data_image0
_chemical_formula_structural       Zn144C288H96C192H96C192H96C480H96C192H96C192H96C192N192H96N192H96O800
_chemical_formula_sum              "Zn144 C1728 H768 N384 O800"
_cell_length_a       45.1476
_cell_length_b       45.1476
_cell_length_c       45.1476
_cell_angle_alpha    90
_cell_angle_beta     90
_cell_angle_gamma    90

_space_group_name_H-M_alt    "P 1"
_space_group_IT_number       1

loop_
  _space_group_symop_operation_xyz
  'x, y, z'

loop_
  _atom_site_type_symbol
  _atom_site_label
  _atom_site_symmetry_multiplicity
  _atom_site_fract_x
  _atom_site_fract_y
  _atom_site_fract_z
  _atom_site_occupancy
  Zn  Zn1       1.0  0.50000  0.50000  0.23255  1.0000
  Zn  Zn2       1.0  0.50000  0.00000  0.73255  1.0000
  Zn  Zn3       1.0  0.00000  0.00000  0.76745  1.0000
  Zn  Zn4       1.0  0.00000  0.50000  0.26745  1.0000
  Zn  Zn5       1.0  0.23255  0.50000  0.50000  1.0000
  Zn  Zn6       1.0  0.73255  0.50000  0.00000  1.0000
  Zn  Zn7       1.0  0.76745  0.00000  0.00000  1.0000
  Zn  Zn8       1.0  0.26745  0.00000  0.50000  1.0000
  Zn  Zn9       1.0  0.50000  0.23255  0.50000  1.0000
  Zn  Zn10      1.0  0.00000  0.73255  0.50000  1.0000
  Zn  Zn11      1.0  0.00000  0.76745  0.00000  1.0000
  Zn  Zn12      1.0  0.50000  0.26745  0.00000  1.0000
  Zn  Zn13      1.0  0.25000  0.75000  0.51745  1.0000
  Zn  Zn14      1.0  0.75000  0.75000  0.01745  1.0000
  Zn  Zn15      1.0  0.75000  0.25000  0.98255  1.0000
  Zn  Zn16      1.0  0.25000  0.25000  0.48255  1.0000
  Zn  Zn17      1.0  0.25000  0.48255  0.25000  1.0000
  Zn  Zn18      1.0  0.25000  0.98255  0.75000  1.0000
  Zn  Zn19      1.0  0.75000  0.01745  0.75000  1.0000
  Zn  Zn20      1.0  0.75000  0.51745  0.25000  1.0000
  Zn  Zn21      1.0  0.98255  0.75000  0.25000  1.0000
  Zn  Zn22      1.0  0.48255  0.25000  0.25000  1.0000
  Zn  Zn23      1.0  0.51745  0.25000  0.75000  1.0000
  Zn  Zn24      1.0  0.01745  0.75000  0.75000  1.0000
  Zn  Zn25      1.0  0.23255  0.00000  0.00000  1.0000
  Zn  Zn26      1.0  0.73255  0.00000  0.50000  1.0000
  Zn  Zn27      1.0  0.76745  0.50000  0.50000  1.0000
  Zn  Zn28      1.0  0.26745  0.50000  0.00000  1.0000
  Zn  Zn29      1.0  0.50000  0.73255  0.00000  1.0000
  Zn  Zn30      1.0  0.00000  0.23255  0.00000  1.0000
  Zn  Zn31      1.0  0.00000  0.26745  0.50000  1.0000
  Zn  Zn32      1.0  0.50000  0.76745  0.50000  1.0000
  Zn  Zn33      1.0  0.25000  0.25000  0.01745  1.0000
  Zn  Zn34      1.0  0.75000  0.25000  0.51745  1.0000
  Zn  Zn35      1.0  0.75000  0.75000  0.48255  1.0000
  Zn  Zn36      1.0  0.25000  0.75000  0.98255  1.0000
  Zn  Zn37      1.0  0.98255  0.25000  0.75000  1.0000
  Zn  Zn38      1.0  0.48255  0.75000  0.75000  1.0000
  Zn  Zn39      1.0  0.51745  0.75000  0.25000  1.0000
  Zn  Zn40      1.0  0.01745  0.25000  0.25000  1.0000
  Zn  Zn41      1.0  0.00000  0.50000  0.73255  1.0000
  Zn  Zn42      1.0  0.00000  0.00000  0.23255  1.0000
  Zn  Zn43      1.0  0.50000  0.00000  0.26745  1.0000
  Zn  Zn44      1.0  0.50000  0.50000  0.76745  1.0000
  Zn  Zn45      1.0  0.75000  0.48255  0.75000  1.0000
  Zn  Zn46      1.0  0.75000  0.98255  0.25000  1.0000
  Zn  Zn47      1.0  0.25000  0.01745  0.25000  1.0000
  Zn  Zn48      1.0  0.25000  0.51745  0.75000  1.0000
  Zn  Zn49      1.0  0.39710  0.66089  0.12550  1.0000
  Zn  Zn50      1.0  0.60290  0.83911  0.62550  1.0000
  Zn  Zn51      1.0  0.10290  0.16089  0.87450  1.0000
  Zn  Zn52      1.0  0.89710  0.33911  0.37450  1.0000
  Zn  Zn53      1.0  0.12550  0.39710  0.66089  1.0000
  Zn  Zn54      1.0  0.62550  0.60290  0.83911  1.0000
  Zn  Zn55      1.0  0.87450  0.10290  0.16089  1.0000
  Zn  Zn56      1.0  0.37450  0.89710  0.33911  1.0000
  Zn  Zn57      1.0  0.66089  0.12550  0.39710  1.0000
  Zn  Zn58      1.0  0.83911  0.62550  0.60290  1.0000
  Zn  Zn59      1.0  0.16089  0.87450  0.10290  1.0000
  Zn  Zn60      1.0  0.33911  0.37450  0.89710  1.0000
  Zn  Zn61      1.0  0.41089  0.64710  0.62450  1.0000
  Zn  Zn62      1.0  0.58911  0.85290  0.12450  1.0000
  Zn  Zn63      1.0  0.91089  0.35290  0.87550  1.0000
  Zn  Zn64      1.0  0.08911  0.14710  0.37550  1.0000
  Zn  Zn65      1.0  0.14710  0.37550  0.08911  1.0000
  Zn  Zn66      1.0  0.35290  0.87550  0.91089  1.0000
  Zn  Zn67      1.0  0.85290  0.12450  0.58911  1.0000
  Zn  Zn68      1.0  0.64710  0.62450  0.41089  1.0000
  Zn  Zn69      1.0  0.87550  0.91089  0.35290  1.0000
  Zn  Zn70      1.0  0.37550  0.08911  0.14710  1.0000
  Zn  Zn71      1.0  0.62450  0.41089  0.64710  1.0000
  Zn  Zn72      1.0  0.12450  0.58911  0.85290  1.0000
  Zn  Zn73      1.0  0.39710  0.16089  0.62550  1.0000
  Zn  Zn74      1.0  0.60290  0.33911  0.12550  1.0000
  Zn  Zn75      1.0  0.10290  0.66089  0.37450  1.0000
  Zn  Zn76      1.0  0.89710  0.83911  0.87450  1.0000
  Zn  Zn77      1.0  0.12550  0.89710  0.16089  1.0000
  Zn  Zn78      1.0  0.62550  0.10290  0.33911  1.0000
  Zn  Zn79      1.0  0.87450  0.60290  0.66089  1.0000
  Zn  Zn80      1.0  0.37450  0.39710  0.83911  1.0000
  Zn  Zn81      1.0  0.66089  0.62550  0.89710  1.0000
  Zn  Zn82      1.0  0.83911  0.12550  0.10290  1.0000
  Zn  Zn83      1.0  0.16089  0.37450  0.60290  1.0000
  Zn  Zn84      1.0  0.33911  0.87450  0.39710  1.0000
  Zn  Zn85      1.0  0.41089  0.14710  0.12450  1.0000
  Zn  Zn86      1.0  0.58911  0.35290  0.62450  1.0000
  Zn  Zn87      1.0  0.91089  0.85290  0.37550  1.0000
  Zn  Zn88      1.0  0.08911  0.64710  0.87550  1.0000
  Zn  Zn89      1.0  0.14710  0.87550  0.58911  1.0000
  Zn  Zn90      1.0  0.35290  0.37550  0.41089  1.0000
  Zn  Zn91      1.0  0.85290  0.62450  0.08911  1.0000
  Zn  Zn92      1.0  0.64710  0.12450  0.91089  1.0000
  Zn  Zn93      1.0  0.87550  0.41089  0.85290  1.0000
  Zn  Zn94      1.0  0.37550  0.58911  0.64710  1.0000
  Zn  Zn95      1.0  0.62450  0.91089  0.14710  1.0000
  Zn  Zn96      1.0  0.12450  0.08911  0.35290  1.0000
  Zn  Zn97      1.0  0.89710  0.66089  0.62550  1.0000
  Zn  Zn98      1.0  0.10290  0.83911  0.12550  1.0000
  Zn  Zn99      1.0  0.60290  0.16089  0.37450  1.0000
  Zn  Zn100     1.0  0.39710  0.33911  0.87450  1.0000
  Zn  Zn101     1.0  0.62550  0.39710  0.16089  1.0000
  Zn  Zn102     1.0  0.12550  0.60290  0.33911  1.0000
  Zn  Zn103     1.0  0.37450  0.10290  0.66089  1.0000
  Zn  Zn104     1.0  0.87450  0.89710  0.83911  1.0000
  Zn  Zn105     1.0  0.16089  0.12550  0.89710  1.0000
  Zn  Zn106     1.0  0.33911  0.62550  0.10290  1.0000
  Zn  Zn107     1.0  0.66089  0.87450  0.60290  1.0000
  Zn  Zn108     1.0  0.83911  0.37450  0.39710  1.0000
  Zn  Zn109     1.0  0.91089  0.64710  0.12450  1.0000
  Zn  Zn110     1.0  0.08911  0.85290  0.62450  1.0000
  Zn  Zn111     1.0  0.41089  0.35290  0.37550  1.0000
  Zn  Zn112     1.0  0.58911  0.14710  0.87550  1.0000
  Zn  Zn113     1.0  0.64710  0.37550  0.58911  1.0000
  Zn  Zn114     1.0  0.85290  0.87550  0.41089  1.0000
  Zn  Zn115     1.0  0.35290  0.12450  0.08911  1.0000
  Zn  Zn116     1.0  0.14710  0.62450  0.91089  1.0000
  Zn  Zn117     1.0  0.37550  0.91089  0.85290  1.0000
  Zn  Zn118     1.0  0.87550  0.08911  0.64710  1.0000
  Zn  Zn119     1.0  0.12450  0.41089  0.14710  1.0000
  Zn  Zn120     1.0  0.62450  0.58911  0.35290  1.0000
  Zn  Zn121     1.0  0.89710  0.16089  0.12550  1.0000
  Zn  Zn122     1.0  0.10290  0.33911  0.62550  1.0000
  Zn  Zn123     1.0  0.60290  0.66089  0.87450  1.0000
  Zn  Zn124     1.0  0.39710  0.83911  0.37450  1.0000
  Zn  Zn125     1.0  0.62550  0.89710  0.66089  1.0000
  Zn  Zn126     1.0  0.12550  0.10290  0.83911  1.0000
  Zn  Zn127     1.0  0.37450  0.60290  0.16089  1.0000
  Zn  Zn128     1.0  0.87450  0.39710  0.33911  1.0000
  Zn  Zn129     1.0  0.16089  0.62550  0.39710  1.0000
  Zn  Zn130     1.0  0.33911  0.12550  0.60290  1.0000
  Zn  Zn131     1.0  0.66089  0.37450  0.10290  1.0000
  Zn  Zn132     1.0  0.83911  0.87450  0.89710  1.0000
  Zn  Zn133     1.0  0.91089  0.14710  0.62450  1.0000
  Zn  Zn134     1.0  0.08911  0.35290  0.12450  1.0000
  Zn  Zn135     1.0  0.41089  0.85290  0.87550  1.0000
  Zn  Zn136     1.0  0.58911  0.64710  0.37550  1.0000
  Zn  Zn137     1.0  0.64710  0.87550  0.08911  1.0000
  Zn  Zn138     1.0  0.85290  0.37550  0.91089  1.0000
  Zn  Zn139     1.0  0.35290  0.62450  0.58911  1.0000
  Zn  Zn140     1.0  0.14710  0.12450  0.41089  1.0000
  Zn  Zn141     1.0  0.37550  0.41089  0.35290  1.0000
  Zn  Zn142     1.0  0.87550  0.58911  0.14710  1.0000
  Zn  Zn143     1.0  0.12450  0.91089  0.64710  1.0000
  Zn  Zn144     1.0  0.62450  0.08911  0.85290  1.0000
  C   C1        1.0  0.55890  0.59370  0.09350  1.0000
  C   C2        1.0  0.44110  0.90630  0.59350  1.0000
  C   C3        1.0  0.94110  0.09370  0.90650  1.0000
  C   C4        1.0  0.05890  0.40630  0.40650  1.0000
  C   C5        1.0  0.09350  0.55890  0.59370  1.0000
  C   C6        1.0  0.59350  0.44110  0.90630  1.0000
  C   C7        1.0  0.90650  0.94110  0.09370  1.0000
  C   C8        1.0  0.40650  0.05890  0.40630  1.0000
  C   C9        1.0  0.59370  0.09350  0.55890  1.0000
  C   C10       1.0  0.90630  0.59350  0.44110  1.0000
  C   C11       1.0  0.09370  0.90650  0.94110  1.0000
  C   C12       1.0  0.40630  0.40650  0.05890  1.0000
  C   C13       1.0  0.34370  0.80890  0.65650  1.0000
  C   C14       1.0  0.65630  0.69110  0.15650  1.0000
  C   C15       1.0  0.84370  0.19110  0.84350  1.0000
  C   C16       1.0  0.15630  0.30890  0.34350  1.0000
  C   C17       1.0  0.30890  0.34350  0.15630  1.0000
  C   C18       1.0  0.19110  0.84350  0.84370  1.0000
  C   C19       1.0  0.69110  0.15650  0.65630  1.0000
  C   C20       1.0  0.80890  0.65650  0.34370  1.0000
  C   C21       1.0  0.84350  0.84370  0.19110  1.0000
  C   C22       1.0  0.34350  0.15630  0.30890  1.0000
  C   C23       1.0  0.65650  0.34370  0.80890  1.0000
  C   C24       1.0  0.15650  0.65630  0.69110  1.0000
  C   C25       1.0  0.55890  0.09370  0.59350  1.0000
  C   C26       1.0  0.44110  0.40630  0.09350  1.0000
  C   C27       1.0  0.94110  0.59370  0.40650  1.0000
  C   C28       1.0  0.05890  0.90630  0.90650  1.0000
  C   C29       1.0  0.09350  0.05890  0.09370  1.0000
  C   C30       1.0  0.59350  0.94110  0.40630  1.0000
  C   C31       1.0  0.90650  0.44110  0.59370  1.0000
  C   C32       1.0  0.40650  0.55890  0.90630  1.0000
  C   C33       1.0  0.59370  0.59350  0.05890  1.0000
  C   C34       1.0  0.90630  0.09350  0.94110  1.0000
  C   C35       1.0  0.09370  0.40650  0.44110  1.0000
  C   C36       1.0  0.40630  0.90650  0.55890  1.0000
  C   C37       1.0  0.34370  0.30890  0.15650  1.0000
  C   C38       1.0  0.65630  0.19110  0.65650  1.0000
  C   C39       1.0  0.84370  0.69110  0.34350  1.0000
  C   C40       1.0  0.15630  0.80890  0.84350  1.0000
  C   C41       1.0  0.30890  0.84350  0.65630  1.0000
  C   C42       1.0  0.19110  0.34350  0.34370  1.0000
  C   C43       1.0  0.69110  0.65650  0.15630  1.0000
  C   C44       1.0  0.80890  0.15650  0.84370  1.0000
  C   C45       1.0  0.84350  0.34370  0.69110  1.0000
  C   C46       1.0  0.34350  0.65630  0.80890  1.0000
  C   C47       1.0  0.65650  0.84370  0.30890  1.0000
  C   C48       1.0  0.15650  0.15630  0.19110  1.0000
  C   C49       1.0  0.05890  0.59370  0.59350  1.0000
  C   C50       1.0  0.94110  0.90630  0.09350  1.0000
  C   C51       1.0  0.44110  0.09370  0.40650  1.0000
  C   C52       1.0  0.55890  0.40630  0.90650  1.0000
  C   C53       1.0  0.59350  0.55890  0.09370  1.0000
  C   C54       1.0  0.09350  0.44110  0.40630  1.0000
  C   C55       1.0  0.40650  0.94110  0.59370  1.0000
  C   C56       1.0  0.90650  0.05890  0.90630  1.0000
  C   C57       1.0  0.09370  0.09350  0.05890  1.0000
  C   C58       1.0  0.40630  0.59350  0.94110  1.0000
  C   C59       1.0  0.59370  0.90650  0.44110  1.0000
  C   C60       1.0  0.90630  0.40650  0.55890  1.0000
  C   C61       1.0  0.84370  0.80890  0.15650  1.0000
  C   C62       1.0  0.15630  0.69110  0.65650  1.0000
  C   C63       1.0  0.34370  0.19110  0.34350  1.0000
  C   C64       1.0  0.65630  0.30890  0.84350  1.0000
  C   C65       1.0  0.80890  0.34350  0.65630  1.0000
  C   C66       1.0  0.69110  0.84350  0.34370  1.0000
  C   C67       1.0  0.19110  0.15650  0.15630  1.0000
  C   C68       1.0  0.30890  0.65650  0.84370  1.0000
  C   C69       1.0  0.34350  0.84370  0.69110  1.0000
  C   C70       1.0  0.84350  0.15630  0.80890  1.0000
  C   C71       1.0  0.15650  0.34370  0.30890  1.0000
  C   C72       1.0  0.65650  0.65630  0.19110  1.0000
  C   C73       1.0  0.05890  0.09370  0.09350  1.0000
  C   C74       1.0  0.94110  0.40630  0.59350  1.0000
  C   C75       1.0  0.44110  0.59370  0.90650  1.0000
  C   C76       1.0  0.55890  0.90630  0.40650  1.0000
  C   C77       1.0  0.59350  0.05890  0.59370  1.0000
  C   C78       1.0  0.09350  0.94110  0.90630  1.0000
  C   C79       1.0  0.40650  0.44110  0.09370  1.0000
  C   C80       1.0  0.90650  0.55890  0.40630  1.0000
  C   C81       1.0  0.09370  0.59350  0.55890  1.0000
  C   C82       1.0  0.40630  0.09350  0.44110  1.0000
  C   C83       1.0  0.59370  0.40650  0.94110  1.0000
  C   C84       1.0  0.90630  0.90650  0.05890  1.0000
  C   C85       1.0  0.84370  0.30890  0.65650  1.0000
  C   C86       1.0  0.15630  0.19110  0.15650  1.0000
  C   C87       1.0  0.34370  0.69110  0.84350  1.0000
  C   C88       1.0  0.65630  0.80890  0.34350  1.0000
  C   C89       1.0  0.80890  0.84350  0.15630  1.0000
  C   C90       1.0  0.69110  0.34350  0.84370  1.0000
  C   C91       1.0  0.19110  0.65650  0.65630  1.0000
  C   C92       1.0  0.30890  0.15650  0.34370  1.0000
  C   C93       1.0  0.34350  0.34370  0.19110  1.0000
  C   C94       1.0  0.84350  0.65630  0.30890  1.0000
  C   C95       1.0  0.15650  0.84370  0.80890  1.0000
  C   C96       1.0  0.65650  0.15630  0.69110  1.0000
  C   C97       1.0  0.51454  0.59776  0.12700  1.0000
  C   C98       1.0  0.48546  0.90224  0.62700  1.0000
  C   C99       1.0  0.98546  0.09776  0.87300  1.0000
  C   C100      1.0  0.01454  0.40224  0.37300  1.0000
  C   C101      1.0  0.12700  0.51454  0.59776  1.0000
  C   C102      1.0  0.62700  0.48546  0.90224  1.0000
  C   C103      1.0  0.87300  0.98546  0.09776  1.0000
  C   C104      1.0  0.37300  0.01454  0.40224  1.0000
  C   C105      1.0  0.59776  0.12700  0.51454  1.0000
  C   C106      1.0  0.90224  0.62700  0.48546  1.0000
  C   C107      1.0  0.09776  0.87300  0.98546  1.0000
  C   C108      1.0  0.40224  0.37300  0.01454  1.0000
  C   C109      1.0  0.34776  0.76454  0.62300  1.0000
  C   C110      1.0  0.65224  0.73546  0.12300  1.0000
  C   C111      1.0  0.84776  0.23546  0.87700  1.0000
  C   C112      1.0  0.15224  0.26454  0.37700  1.0000
  C   C113      1.0  0.26454  0.37700  0.15224  1.0000
  C   C114      1.0  0.23546  0.87700  0.84776  1.0000
  C   C115      1.0  0.73546  0.12300  0.65224  1.0000
  C   C116      1.0  0.76454  0.62300  0.34776  1.0000
  C   C117      1.0  0.87700  0.84776  0.23546  1.0000
  C   C118      1.0  0.37700  0.15224  0.26454  1.0000
  C   C119      1.0  0.62300  0.34776  0.76454  1.0000
  C   C120      1.0  0.12300  0.65224  0.73546  1.0000
  C   C121      1.0  0.51454  0.09776  0.62700  1.0000
  C   C122      1.0  0.48546  0.40224  0.12700  1.0000
  C   C123      1.0  0.98546  0.59776  0.37300  1.0000
  C   C124      1.0  0.01454  0.90224  0.87300  1.0000
  C   C125      1.0  0.12700  0.01454  0.09776  1.0000
  C   C126      1.0  0.62700  0.98546  0.40224  1.0000
  C   C127      1.0  0.87300  0.48546  0.59776  1.0000
  C   C128      1.0  0.37300  0.51454  0.90224  1.0000
  C   C129      1.0  0.59776  0.62700  0.01454  1.0000
  C   C130      1.0  0.90224  0.12700  0.98546  1.0000
  C   C131      1.0  0.09776  0.37300  0.48546  1.0000
  C   C132      1.0  0.40224  0.87300  0.51454  1.0000
  C   C133      1.0  0.34776  0.26454  0.12300  1.0000
  C   C134      1.0  0.65224  0.23546  0.62300  1.0000
  C   C135      1.0  0.84776  0.73546  0.37700  1.0000
  C   C136      1.0  0.15224  0.76454  0.87700  1.0000
  C   C137      1.0  0.26454  0.87700  0.65224  1.0000
  C   C138      1.0  0.23546  0.37700  0.34776  1.0000
  C   C139      1.0  0.73546  0.62300  0.15224  1.0000
  C   C140      1.0  0.76454  0.12300  0.84776  1.0000
  C   C141      1.0  0.87700  0.34776  0.73546  1.0000
  C   C142      1.0  0.37700  0.65224  0.76454  1.0000
  C   C143      1.0  0.62300  0.84776  0.26454  1.0000
  C   C144      1.0  0.12300  0.15224  0.23546  1.0000
  C   C145      1.0  0.01454  0.59776  0.62700  1.0000
  C   C146      1.0  0.98546  0.90224  0.12700  1.0000
  C   C147      1.0  0.48546  0.09776  0.37300  1.0000
  C   C148      1.0  0.51454  0.40224  0.87300  1.0000
  C   C149      1.0  0.62700  0.51454  0.09776  1.0000
  C   C150      1.0  0.12700  0.48546  0.40224  1.0000
  C   C151      1.0  0.37300  0.98546  0.59776  1.0000
  C   C152      1.0  0.87300  0.01454  0.90224  1.0000
  C   C153      1.0  0.09776  0.12700  0.01454  1.0000
  C   C154      1.0  0.40224  0.62700  0.98546  1.0000
  C   C155      1.0  0.59776  0.87300  0.48546  1.0000
  C   C156      1.0  0.90224  0.37300  0.51454  1.0000
  C   C157      1.0  0.84776  0.76454  0.12300  1.0000
  C   C158      1.0  0.15224  0.73546  0.62300  1.0000
  C   C159      1.0  0.34776  0.23546  0.37700  1.0000
  C   C160      1.0  0.65224  0.26454  0.87700  1.0000
  C   C161      1.0  0.76454  0.37700  0.65224  1.0000
  C   C162      1.0  0.73546  0.87700  0.34776  1.0000
  C   C163      1.0  0.23546  0.12300  0.15224  1.0000
  C   C164      1.0  0.26454  0.62300  0.84776  1.0000
  C   C165      1.0  0.37700  0.84776  0.73546  1.0000
  C   C166      1.0  0.87700  0.15224  0.76454  1.0000
  C   C167      1.0  0.12300  0.34776  0.26454  1.0000
  C   C168      1.0  0.62300  0.65224  0.23546  1.0000
  C   C169      1.0  0.01454  0.09776  0.12700  1.0000
  C   C170      1.0  0.98546  0.40224  0.62700  1.0000
  C   C171      1.0  0.48546  0.59776  0.87300  1.0000
  C   C172      1.0  0.51454  0.90224  0.37300  1.0000
  C   C173      1.0  0.62700  0.01454  0.59776  1.0000
  C   C174      1.0  0.12700  0.98546  0.90224  1.0000
  C   C175      1.0  0.37300  0.48546  0.09776  1.0000
  C   C176      1.0  0.87300  0.51454  0.40224  1.0000
  C   C177      1.0  0.09776  0.62700  0.51454  1.0000
  C   C178      1.0  0.40224  0.12700  0.48546  1.0000
  C   C179      1.0  0.59776  0.37300  0.98546  1.0000
  C   C180      1.0  0.90224  0.87300  0.01454  1.0000
  C   C181      1.0  0.84776  0.26454  0.62300  1.0000
  C   C182      1.0  0.15224  0.23546  0.12300  1.0000
  C   C183      1.0  0.34776  0.73546  0.87700  1.0000
  C   C184      1.0  0.65224  0.76454  0.37700  1.0000
  C   C185      1.0  0.76454  0.87700  0.15224  1.0000
  C   C186      1.0  0.73546  0.37700  0.84776  1.0000
  C   C187      1.0  0.23546  0.62300  0.65224  1.0000
  C   C188      1.0  0.26454  0.12300  0.34776  1.0000
  C   C189      1.0  0.37700  0.34776  0.23546  1.0000
  C   C190      1.0  0.87700  0.65224  0.26454  1.0000
  C   C191      1.0  0.12300  0.84776  0.76454  1.0000
  C   C192      1.0  0.62300  0.15224  0.73546  1.0000
  C   C193      1.0  0.48603  0.60937  0.12632  1.0000
  C   C194      1.0  0.51397  0.89063  0.62632  1.0000
  C   C195      1.0  0.01397  0.10937  0.87368  1.0000
  C   C196      1.0  0.98603  0.39063  0.37368  1.0000
  C   C197      1.0  0.12632  0.48603  0.60937  1.0000
  C   C198      1.0  0.62632  0.51397  0.89063  1.0000
  C   C199      1.0  0.87368  0.01397  0.10937  1.0000
  C   C200      1.0  0.37368  0.98603  0.39063  1.0000
  C   C201      1.0  0.60937  0.12632  0.48603  1.0000
  C   C202      1.0  0.89063  0.62632  0.51397  1.0000
  C   C203      1.0  0.10937  0.87368  0.01397  1.0000
  C   C204      1.0  0.39063  0.37368  0.98603  1.0000
  C   C205      1.0  0.35937  0.73603  0.62368  1.0000
  C   C206      1.0  0.64063  0.76397  0.12368  1.0000
  C   C207      1.0  0.85937  0.26397  0.87632  1.0000
  C   C208      1.0  0.14063  0.23603  0.37632  1.0000
  C   C209      1.0  0.23603  0.37632  0.14063  1.0000
  C   C210      1.0  0.26397  0.87632  0.85937  1.0000
  C   C211      1.0  0.76397  0.12368  0.64063  1.0000
  C   C212      1.0  0.73603  0.62368  0.35937  1.0000
  C   C213      1.0  0.87632  0.85937  0.26397  1.0000
  C   C214      1.0  0.37632  0.14063  0.23603  1.0000
  C   C215      1.0  0.62368  0.35937  0.73603  1.0000
  C   C216      1.0  0.12368  0.64063  0.76397  1.0000
  C   C217      1.0  0.48603  0.10937  0.62632  1.0000
  C   C218      1.0  0.51397  0.39063  0.12632  1.0000
  C   C219      1.0  0.01397  0.60937  0.37368  1.0000
  C   C220      1.0  0.98603  0.89063  0.87368  1.0000
  C   C221      1.0  0.12632  0.98603  0.10937  1.0000
  C   C222      1.0  0.62632  0.01397  0.39063  1.0000
  C   C223      1.0  0.87368  0.51397  0.60937  1.0000
  C   C224      1.0  0.37368  0.48603  0.89063  1.0000
  C   C225      1.0  0.60937  0.62632  0.98603  1.0000
  C   C226      1.0  0.89063  0.12632  0.01397  1.0000
  C   C227      1.0  0.10937  0.37368  0.51397  1.0000
  C   C228      1.0  0.39063  0.87368  0.48603  1.0000
  C   C229      1.0  0.35937  0.23603  0.12368  1.0000
  C   C230      1.0  0.64063  0.26397  0.62368  1.0000
  C   C231      1.0  0.85937  0.76397  0.37632  1.0000
  C   C232      1.0  0.14063  0.73603  0.87632  1.0000
  C   C233      1.0  0.23603  0.87632  0.64063  1.0000
  C   C234      1.0  0.26397  0.37632  0.35937  1.0000
  C   C235      1.0  0.76397  0.62368  0.14063  1.0000
  C   C236      1.0  0.73603  0.12368  0.85937  1.0000
  C   C237      1.0  0.87632  0.35937  0.76397  1.0000
  C   C238      1.0  0.37632  0.64063  0.73603  1.0000
  C   C239      1.0  0.62368  0.85937  0.23603  1.0000
  C   C240      1.0  0.12368  0.14063  0.26397  1.0000
  C   C241      1.0  0.98603  0.60937  0.62632  1.0000
  C   C242      1.0  0.01397  0.89063  0.12632  1.0000
  C   C243      1.0  0.51397  0.10937  0.37368  1.0000
  C   C244      1.0  0.48603  0.39063  0.87368  1.0000
  C   C245      1.0  0.62632  0.48603  0.10937  1.0000
  C   C246      1.0  0.12632  0.51397  0.39063  1.0000
  C   C247      1.0  0.37368  0.01397  0.60937  1.0000
  C   C248      1.0  0.87368  0.98603  0.89063  1.0000
  C   C249      1.0  0.10937  0.12632  0.98603  1.0000
  C   C250      1.0  0.39063  0.62632  0.01397  1.0000
  C   C251      1.0  0.60937  0.87368  0.51397  1.0000
  C   C252      1.0  0.89063  0.37368  0.48603  1.0000
  C   C253      1.0  0.85937  0.73603  0.12368  1.0000
  C   C254      1.0  0.14063  0.76397  0.62368  1.0000
  C   C255      1.0  0.35937  0.26397  0.37632  1.0000
  C   C256      1.0  0.64063  0.23603  0.87632  1.0000
  C   C257      1.0  0.73603  0.37632  0.64063  1.0000
  C   C258      1.0  0.76397  0.87632  0.35937  1.0000
  C   C259      1.0  0.26397  0.12368  0.14063  1.0000
  C   C260      1.0  0.23603  0.62368  0.85937  1.0000
  C   C261      1.0  0.37632  0.85937  0.76397  1.0000
  C   C262      1.0  0.87632  0.14063  0.73603  1.0000
  C   C263      1.0  0.12368  0.35937  0.23603  1.0000
  C   C264      1.0  0.62368  0.64063  0.26397  1.0000
  C   C265      1.0  0.98603  0.10937  0.12632  1.0000
  C   C266      1.0  0.01397  0.39063  0.62632  1.0000
  C   C267      1.0  0.51397  0.60937  0.87368  1.0000
  C   C268      1.0  0.48603  0.89063  0.37368  1.0000
  C   C269      1.0  0.62632  0.98603  0.60937  1.0000
  C   C270      1.0  0.12632  0.01397  0.89063  1.0000
  C   C271      1.0  0.37368  0.51397  0.10937  1.0000
  C   C272      1.0  0.87368  0.48603  0.39063  1.0000
  C   C273      1.0  0.10937  0.62632  0.48603  1.0000
  C   C274      1.0  0.39063  0.12632  0.51397  1.0000
  C   C275      1.0  0.60937  0.37368  0.01397  1.0000
  C   C276      1.0  0.89063  0.87368  0.98603  1.0000
  C   C277      1.0  0.85937  0.23603  0.62368  1.0000
  C   C278      1.0  0.14063  0.26397  0.12368  1.0000
  C   C279      1.0  0.35937  0.76397  0.87632  1.0000
  C   C280      1.0  0.64063  0.73603  0.37632  1.0000
  C   C281      1.0  0.73603  0.87632  0.14063  1.0000
  C   C282      1.0  0.76397  0.37632  0.85937  1.0000
  C   C283      1.0  0.26397  0.62368  0.64063  1.0000
  C   C284      1.0  0.23603  0.12368  0.35937  1.0000
  C   C285      1.0  0.37632  0.35937  0.26397  1.0000
  C   C286      1.0  0.87632  0.64063  0.23603  1.0000
  C   C287      1.0  0.12368  0.85937  0.73603  1.0000
  C   C288      1.0  0.62368  0.14063  0.76397  1.0000
  H   H1        1.0  0.48070  0.62320  0.11140  1.0000
  H   H2        1.0  0.51930  0.87680  0.61140  1.0000
  H   H3        1.0  0.01930  0.12320  0.88860  1.0000
  H   H4        1.0  0.98070  0.37680  0.38860  1.0000
  H   H5        1.0  0.11140  0.48070  0.62320  1.0000
  H   H6        1.0  0.61140  0.51930  0.87680  1.0000
  H   H7        1.0  0.88860  0.01930  0.12320  1.0000
  H   H8        1.0  0.38860  0.98070  0.37680  1.0000
  H   H9        1.0  0.62320  0.11140  0.48070  1.0000
  H   H10       1.0  0.87680  0.61140  0.51930  1.0000
  H   H11       1.0  0.12320  0.88860  0.01930  1.0000
  H   H12       1.0  0.37680  0.38860  0.98070  1.0000
  H   H13       1.0  0.37320  0.73070  0.63860  1.0000
  H   H14       1.0  0.62680  0.76930  0.13860  1.0000
  H   H15       1.0  0.87320  0.26930  0.86140  1.0000
  H   H16       1.0  0.12680  0.23070  0.36140  1.0000
  H   H17       1.0  0.23070  0.36140  0.12680  1.0000
  H   H18       1.0  0.26930  0.86140  0.87320  1.0000
  H   H19       1.0  0.76930  0.13860  0.62680  1.0000
  H   H20       1.0  0.73070  0.63860  0.37320  1.0000
  H   H21       1.0  0.86140  0.87320  0.26930  1.0000
  H   H22       1.0  0.36140  0.12680  0.23070  1.0000
  H   H23       1.0  0.63860  0.37320  0.73070  1.0000
  H   H24       1.0  0.13860  0.62680  0.76930  1.0000
  H   H25       1.0  0.48070  0.12320  0.61140  1.0000
  H   H26       1.0  0.51930  0.37680  0.11140  1.0000
  H   H27       1.0  0.01930  0.62320  0.38860  1.0000
  H   H28       1.0  0.98070  0.87680  0.88860  1.0000
  H   H29       1.0  0.11140  0.98070  0.12320  1.0000
  H   H30       1.0  0.61140  0.01930  0.37680  1.0000
  H   H31       1.0  0.88860  0.51930  0.62320  1.0000
  H   H32       1.0  0.38860  0.48070  0.87680  1.0000
  H   H33       1.0  0.62320  0.61140  0.98070  1.0000
  H   H34       1.0  0.87680  0.11140  0.01930  1.0000
  H   H35       1.0  0.12320  0.38860  0.51930  1.0000
  H   H36       1.0  0.37680  0.88860  0.48070  1.0000
  H   H37       1.0  0.37320  0.23070  0.13860  1.0000
  H   H38       1.0  0.62680  0.26930  0.63860  1.0000
  H   H39       1.0  0.87320  0.76930  0.36140  1.0000
  H   H40       1.0  0.12680  0.73070  0.86140  1.0000
  H   H41       1.0  0.23070  0.86140  0.62680  1.0000
  H   H42       1.0  0.26930  0.36140  0.37320  1.0000
  H   H43       1.0  0.76930  0.63860  0.12680  1.0000
  H   H44       1.0  0.73070  0.13860  0.87320  1.0000
  H   H45       1.0  0.86140  0.37320  0.76930  1.0000
  H   H46       1.0  0.36140  0.62680  0.73070  1.0000
  H   H47       1.0  0.63860  0.87320  0.23070  1.0000
  H   H48       1.0  0.13860  0.12680  0.26930  1.0000
  H   H49       1.0  0.98070  0.62320  0.61140  1.0000
  H   H50       1.0  0.01930  0.87680  0.11140  1.0000
  H   H51       1.0  0.51930  0.12320  0.38860  1.0000
  H   H52       1.0  0.48070  0.37680  0.88860  1.0000
  H   H53       1.0  0.61140  0.48070  0.12320  1.0000
  H   H54       1.0  0.11140  0.51930  0.37680  1.0000
  H   H55       1.0  0.38860  0.01930  0.62320  1.0000
  H   H56       1.0  0.88860  0.98070  0.87680  1.0000
  H   H57       1.0  0.12320  0.11140  0.98070  1.0000
  H   H58       1.0  0.37680  0.61140  0.01930  1.0000
  H   H59       1.0  0.62320  0.88860  0.51930  1.0000
  H   H60       1.0  0.87680  0.38860  0.48070  1.0000
  H   H61       1.0  0.87320  0.73070  0.13860  1.0000
  H   H62       1.0  0.12680  0.76930  0.63860  1.0000
  H   H63       1.0  0.37320  0.26930  0.36140  1.0000
  H   H64       1.0  0.62680  0.23070  0.86140  1.0000
  H   H65       1.0  0.73070  0.36140  0.62680  1.0000
  H   H66       1.0  0.76930  0.86140  0.37320  1.0000
  H   H67       1.0  0.26930  0.13860  0.12680  1.0000
  H   H68       1.0  0.23070  0.63860  0.87320  1.0000
  H   H69       1.0  0.36140  0.87320  0.76930  1.0000
  H   H70       1.0  0.86140  0.12680  0.73070  1.0000
  H   H71       1.0  0.13860  0.37320  0.23070  1.0000
  H   H72       1.0  0.63860  0.62680  0.26930  1.0000
  H   H73       1.0  0.98070  0.12320  0.11140  1.0000
  H   H74       1.0  0.01930  0.37680  0.61140  1.0000
  H   H75       1.0  0.51930  0.62320  0.88860  1.0000
  H   H76       1.0  0.48070  0.87680  0.38860  1.0000
  H   H77       1.0  0.61140  0.98070  0.62320  1.0000
  H   H78       1.0  0.11140  0.01930  0.87680  1.0000
  H   H79       1.0  0.38860  0.51930  0.12320  1.0000
  H   H80       1.0  0.88860  0.48070  0.37680  1.0000
  H   H81       1.0  0.12320  0.61140  0.48070  1.0000
  H   H82       1.0  0.37680  0.11140  0.51930  1.0000
  H   H83       1.0  0.62320  0.38860  0.01930  1.0000
  H   H84       1.0  0.87680  0.88860  0.98070  1.0000
  H   H85       1.0  0.87320  0.23070  0.63860  1.0000
  H   H86       1.0  0.12680  0.26930  0.13860  1.0000
  H   H87       1.0  0.37320  0.76930  0.86140  1.0000
  H   H88       1.0  0.62680  0.73070  0.36140  1.0000
  H   H89       1.0  0.73070  0.86140  0.12680  1.0000
  H   H90       1.0  0.76930  0.36140  0.87320  1.0000
  H   H91       1.0  0.26930  0.63860  0.62680  1.0000
  H   H92       1.0  0.23070  0.13860  0.37320  1.0000
  H   H93       1.0  0.36140  0.37320  0.26930  1.0000
  H   H94       1.0  0.86140  0.62680  0.23070  1.0000
  H   H95       1.0  0.13860  0.87320  0.73070  1.0000
  H   H96       1.0  0.63860  0.12680  0.76930  1.0000
  C   C289      1.0  0.46536  0.60068  0.14741  1.0000
  C   C290      1.0  0.53464  0.89932  0.64741  1.0000
  C   C291      1.0  0.03464  0.10068  0.85259  1.0000
  C   C292      1.0  0.96536  0.39932  0.35259  1.0000
  C   C293      1.0  0.14741  0.46536  0.60068  1.0000
  C   C294      1.0  0.64741  0.53464  0.89932  1.0000
  C   C295      1.0  0.85259  0.03464  0.10068  1.0000
  C   C296      1.0  0.35259  0.96536  0.39932  1.0000
  C   C297      1.0  0.60068  0.14741  0.46536  1.0000
  C   C298      1.0  0.89932  0.64741  0.53464  1.0000
  C   C299      1.0  0.10068  0.85259  0.03464  1.0000
  C   C300      1.0  0.39932  0.35259  0.96536  1.0000
  C   C301      1.0  0.35068  0.71536  0.60259  1.0000
  C   C302      1.0  0.64932  0.78464  0.10259  1.0000
  C   C303      1.0  0.85068  0.28464  0.89741  1.0000
  C   C304      1.0  0.14932  0.21536  0.39741  1.0000
  C   C305      1.0  0.21536  0.39741  0.14932  1.0000
  C   C306      1.0  0.28464  0.89741  0.85068  1.0000
  C   C307      1.0  0.78464  0.10259  0.64932  1.0000
  C   C308      1.0  0.71536  0.60259  0.35068  1.0000
  C   C309      1.0  0.89741  0.85068  0.28464  1.0000
  C   C310      1.0  0.39741  0.14932  0.21536  1.0000
  C   C311      1.0  0.60259  0.35068  0.71536  1.0000
  C   C312      1.0  0.10259  0.64932  0.78464  1.0000
  C   C313      1.0  0.46536  0.10068  0.64741  1.0000
  C   C314      1.0  0.53464  0.39932  0.14741  1.0000
  C   C315      1.0  0.03464  0.60068  0.35259  1.0000
  C   C316      1.0  0.96536  0.89932  0.85259  1.0000
  C   C317      1.0  0.14741  0.96536  0.10068  1.0000
  C   C318      1.0  0.64741  0.03464  0.39932  1.0000
  C   C319      1.0  0.85259  0.53464  0.60068  1.0000
  C   C320      1.0  0.35259  0.46536  0.89932  1.0000
  C   C321      1.0  0.60068  0.64741  0.96536  1.0000
  C   C322      1.0  0.89932  0.14741  0.03464  1.0000
  C   C323      1.0  0.10068  0.35259  0.53464  1.0000
  C   C324      1.0  0.39932  0.85259  0.46536  1.0000
  C   C325      1.0  0.35068  0.21536  0.10259  1.0000
  C   C326      1.0  0.64932  0.28464  0.60259  1.0000
  C   C327      1.0  0.85068  0.78464  0.39741  1.0000
  C   C328      1.0  0.14932  0.71536  0.89741  1.0000
  C   C329      1.0  0.21536  0.89741  0.64932  1.0000
  C   C330      1.0  0.28464  0.39741  0.35068  1.0000
  C   C331      1.0  0.78464  0.60259  0.14932  1.0000
  C   C332      1.0  0.71536  0.10259  0.85068  1.0000
  C   C333      1.0  0.89741  0.35068  0.78464  1.0000
  C   C334      1.0  0.39741  0.64932  0.71536  1.0000
  C   C335      1.0  0.60259  0.85068  0.21536  1.0000
  C   C336      1.0  0.10259  0.14932  0.28464  1.0000
  C   C337      1.0  0.96536  0.60068  0.64741  1.0000
  C   C338      1.0  0.03464  0.89932  0.14741  1.0000
  C   C339      1.0  0.53464  0.10068  0.35259  1.0000
  C   C340      1.0  0.46536  0.39932  0.85259  1.0000
  C   C341      1.0  0.64741  0.46536  0.10068  1.0000
  C   C342      1.0  0.14741  0.53464  0.39932  1.0000
  C   C343      1.0  0.35259  0.03464  0.60068  1.0000
  C   C344      1.0  0.85259  0.96536  0.89932  1.0000
  C   C345      1.0  0.10068  0.14741  0.96536  1.0000
  C   C346      1.0  0.39932  0.64741  0.03464  1.0000
  C   C347      1.0  0.60068  0.85259  0.53464  1.0000
  C   C348      1.0  0.89932  0.35259  0.46536  1.0000
  C   C349      1.0  0.85068  0.71536  0.10259  1.0000
  C   C350      1.0  0.14932  0.78464  0.60259  1.0000
  C   C351      1.0  0.35068  0.28464  0.39741  1.0000
  C   C352      1.0  0.64932  0.21536  0.89741  1.0000
  C   C353      1.0  0.71536  0.39741  0.64932  1.0000
  C   C354      1.0  0.78464  0.89741  0.35068  1.0000
  C   C355      1.0  0.28464  0.10259  0.14932  1.0000
  C   C356      1.0  0.21536  0.60259  0.85068  1.0000
  C   C357      1.0  0.39741  0.85068  0.78464  1.0000
  C   C358      1.0  0.89741  0.14932  0.71536  1.0000
  C   C359      1.0  0.10259  0.35068  0.21536  1.0000
  C   C360      1.0  0.60259  0.64932  0.28464  1.0000
  C   C361      1.0  0.96536  0.10068  0.14741  1.0000
  C   C362      1.0  0.03464  0.39932  0.64741  1.0000
  C   C363      1.0  0.53464  0.60068  0.85259  1.0000
  C   C364      1.0  0.46536  0.89932  0.35259  1.0000
  C   C365      1.0  0.64741  0.96536  0.60068  1.0000
  C   C366      1.0  0.14741  0.03464  0.89932  1.0000
  C   C367      1.0  0.35259  0.53464  0.10068  1.0000
  C   C368      1.0  0.85259  0.46536  0.39932  1.0000
  C   C369      1.0  0.10068  0.64741  0.46536  1.0000
  C   C370      1.0  0.39932  0.14741  0.53464  1.0000
  C   C371      1.0  0.60068  0.35259  0.03464  1.0000
  C   C372      1.0  0.89932  0.85259  0.96536  1.0000
  C   C373      1.0  0.85068  0.21536  0.60259  1.0000
  C   C374      1.0  0.14932  0.28464  0.10259  1.0000
  C   C375      1.0  0.35068  0.78464  0.89741  1.0000
  C   C376      1.0  0.64932  0.71536  0.39741  1.0000
  C   C377      1.0  0.71536  0.89741  0.14932  1.0000
  C   C378      1.0  0.78464  0.39741  0.85068  1.0000
  C   C379      1.0  0.28464  0.60259  0.64932  1.0000
  C   C380      1.0  0.21536  0.10259  0.35068  1.0000
  C   C381      1.0  0.39741  0.35068  0.28464  1.0000
  C   C382      1.0  0.89741  0.64932  0.21536  1.0000
  C   C383      1.0  0.10259  0.85068  0.71536  1.0000
  C   C384      1.0  0.60259  0.14932  0.78464  1.0000
  C   C385      1.0  0.47320  0.58038  0.16920  1.0000
  C   C386      1.0  0.52680  0.91962  0.66920  1.0000
  C   C387      1.0  0.02680  0.08038  0.83080  1.0000
  C   C388      1.0  0.97320  0.41962  0.33080  1.0000
  C   C389      1.0  0.16920  0.47320  0.58038  1.0000
  C   C390      1.0  0.66920  0.52680  0.91962  1.0000
  C   C391      1.0  0.83080  0.02680  0.08038  1.0000
  C   C392      1.0  0.33080  0.97320  0.41962  1.0000
  C   C393      1.0  0.58038  0.16920  0.47320  1.0000
  C   C394      1.0  0.91962  0.66920  0.52680  1.0000
  C   C395      1.0  0.08038  0.83080  0.02680  1.0000
  C   C396      1.0  0.41962  0.33080  0.97320  1.0000
  C   C397      1.0  0.33038  0.72320  0.58080  1.0000
  C   C398      1.0  0.66962  0.77680  0.08080  1.0000
  C   C399      1.0  0.83038  0.27680  0.91920  1.0000
  C   C400      1.0  0.16962  0.22320  0.41920  1.0000
  C   C401      1.0  0.22320  0.41920  0.16962  1.0000
  C   C402      1.0  0.27680  0.91920  0.83038  1.0000
  C   C403      1.0  0.77680  0.08080  0.66962  1.0000
  C   C404      1.0  0.72320  0.58080  0.33038  1.0000
  C   C405      1.0  0.91920  0.83038  0.27680  1.0000
  C   C406      1.0  0.41920  0.16962  0.22320  1.0000
  C   C407      1.0  0.58080  0.33038  0.72320  1.0000
  C   C408      1.0  0.08080  0.66962  0.77680  1.0000
  C   C409      1.0  0.47320  0.08038  0.66920  1.0000
  C   C410      1.0  0.52680  0.41962  0.16920  1.0000
  C   C411      1.0  0.02680  0.58038  0.33080  1.0000
  C   C412      1.0  0.97320  0.91962  0.83080  1.0000
  C   C413      1.0  0.16920  0.97320  0.08038  1.0000
  C   C414      1.0  0.66920  0.02680  0.41962  1.0000
  C   C415      1.0  0.83080  0.52680  0.58038  1.0000
  C   C416      1.0  0.33080  0.47320  0.91962  1.0000
  C   C417      1.0  0.58038  0.66920  0.97320  1.0000
  C   C418      1.0  0.91962  0.16920  0.02680  1.0000
  C   C419      1.0  0.08038  0.33080  0.52680  1.0000
  C   C420      1.0  0.41962  0.83080  0.47320  1.0000
  C   C421      1.0  0.33038  0.22320  0.08080  1.0000
  C   C422      1.0  0.66962  0.27680  0.58080  1.0000
  C   C423      1.0  0.83038  0.77680  0.41920  1.0000
  C   C424      1.0  0.16962  0.72320  0.91920  1.0000
  C   C425      1.0  0.22320  0.91920  0.66962  1.0000
  C   C426      1.0  0.27680  0.41920  0.33038  1.0000
  C   C427      1.0  0.77680  0.58080  0.16962  1.0000
  C   C428      1.0  0.72320  0.08080  0.83038  1.0000
  C   C429      1.0  0.91920  0.33038  0.77680  1.0000
  C   C430      1.0  0.41920  0.66962  0.72320  1.0000
  C   C431      1.0  0.58080  0.83038  0.22320  1.0000
  C   C432      1.0  0.08080  0.16962  0.27680  1.0000
  C   C433      1.0  0.97320  0.58038  0.66920  1.0000
  C   C434      1.0  0.02680  0.91962  0.16920  1.0000
  C   C435      1.0  0.52680  0.08038  0.33080  1.0000
  C   C436      1.0  0.47320  0.41962  0.83080  1.0000
  C   C437      1.0  0.66920  0.47320  0.08038  1.0000
  C   C438      1.0  0.16920  0.52680  0.41962  1.0000
  C   C439      1.0  0.33080  0.02680  0.58038  1.0000
  C   C440      1.0  0.83080  0.97320  0.91962  1.0000
  C   C441      1.0  0.08038  0.16920  0.97320  1.0000
  C   C442      1.0  0.41962  0.66920  0.02680  1.0000
  C   C443      1.0  0.58038  0.83080  0.52680  1.0000
  C   C444      1.0  0.91962  0.33080  0.47320  1.0000
  C   C445      1.0  0.83038  0.72320  0.08080  1.0000
  C   C446      1.0  0.16962  0.77680  0.58080  1.0000
  C   C447      1.0  0.33038  0.27680  0.41920  1.0000
  C   C448      1.0  0.66962  0.22320  0.91920  1.0000
  C   C449      1.0  0.72320  0.41920  0.66962  1.0000
  C   C450      1.0  0.77680  0.91920  0.33038  1.0000
  C   C451      1.0  0.27680  0.08080  0.16962  1.0000
  C   C452      1.0  0.22320  0.58080  0.83038  1.0000
  C   C453      1.0  0.41920  0.83038  0.77680  1.0000
  C   C454      1.0  0.91920  0.16962  0.72320  1.0000
  C   C455      1.0  0.08080  0.33038  0.22320  1.0000
  C   C456      1.0  0.58080  0.66962  0.27680  1.0000
  C   C457      1.0  0.97320  0.08038  0.16920  1.0000
  C   C458      1.0  0.02680  0.41962  0.66920  1.0000
  C   C459      1.0  0.52680  0.58038  0.83080  1.0000
  C   C460      1.0  0.47320  0.91962  0.33080  1.0000
  C   C461      1.0  0.66920  0.97320  0.58038  1.0000
  C   C462      1.0  0.16920  0.02680  0.91962  1.0000
  C   C463      1.0  0.33080  0.52680  0.08038  1.0000
  C   C464      1.0  0.83080  0.47320  0.41962  1.0000
  C   C465      1.0  0.08038  0.66920  0.47320  1.0000
  C   C466      1.0  0.41962  0.16920  0.52680  1.0000
  C   C467      1.0  0.58038  0.33080  0.02680  1.0000
  C   C468      1.0  0.91962  0.83080  0.97320  1.0000
  C   C469      1.0  0.83038  0.22320  0.58080  1.0000
  C   C470      1.0  0.16962  0.27680  0.08080  1.0000
  C   C471      1.0  0.33038  0.77680  0.91920  1.0000
  C   C472      1.0  0.66962  0.72320  0.41920  1.0000
  C   C473      1.0  0.72320  0.91920  0.16962  1.0000
  C   C474      1.0  0.77680  0.41920  0.83038  1.0000
  C   C475      1.0  0.27680  0.58080  0.66962  1.0000
  C   C476      1.0  0.22320  0.08080  0.33038  1.0000
  C   C477      1.0  0.41920  0.33038  0.27680  1.0000
  C   C478      1.0  0.91920  0.66962  0.22320  1.0000
  C   C479      1.0  0.08080  0.83038  0.72320  1.0000
  C   C480      1.0  0.58080  0.16962  0.77680  1.0000
  H   H97       1.0  0.45910  0.57440  0.18360  1.0000
  H   H98       1.0  0.54090  0.92560  0.68360  1.0000
  H   H99       1.0  0.04090  0.07440  0.81640  1.0000
  H   H100      1.0  0.95910  0.42560  0.31640  1.0000
  H   H101      1.0  0.18360  0.45910  0.57440  1.0000
  H   H102      1.0  0.68360  0.54090  0.92560  1.0000
  H   H103      1.0  0.81640  0.04090  0.07440  1.0000
  H   H104      1.0  0.31640  0.95910  0.42560  1.0000
  H   H105      1.0  0.57440  0.18360  0.45910  1.0000
  H   H106      1.0  0.92560  0.68360  0.54090  1.0000
  H   H107      1.0  0.07440  0.81640  0.04090  1.0000
  H   H108      1.0  0.42560  0.31640  0.95910  1.0000
  H   H109      1.0  0.32440  0.70910  0.56640  1.0000
  H   H110      1.0  0.67560  0.79090  0.06640  1.0000
  H   H111      1.0  0.82440  0.29090  0.93360  1.0000
  H   H112      1.0  0.17560  0.20910  0.43360  1.0000
  H   H113      1.0  0.20910  0.43360  0.17560  1.0000
  H   H114      1.0  0.29090  0.93360  0.82440  1.0000
  H   H115      1.0  0.79090  0.06640  0.67560  1.0000
  H   H116      1.0  0.70910  0.56640  0.32440  1.0000
  H   H117      1.0  0.93360  0.82440  0.29090  1.0000
  H   H118      1.0  0.43360  0.17560  0.20910  1.0000
  H   H119      1.0  0.56640  0.32440  0.70910  1.0000
  H   H120      1.0  0.06640  0.67560  0.79090  1.0000
  H   H121      1.0  0.45910  0.07440  0.68360  1.0000
  H   H122      1.0  0.54090  0.42560  0.18360  1.0000
  H   H123      1.0  0.04090  0.57440  0.31640  1.0000
  H   H124      1.0  0.95910  0.92560  0.81640  1.0000
  H   H125      1.0  0.18360  0.95910  0.07440  1.0000
  H   H126      1.0  0.68360  0.04090  0.42560  1.0000
  H   H127      1.0  0.81640  0.54090  0.57440  1.0000
  H   H128      1.0  0.31640  0.45910  0.92560  1.0000
  H   H129      1.0  0.57440  0.68360  0.95910  1.0000
  H   H130      1.0  0.92560  0.18360  0.04090  1.0000
  H   H131      1.0  0.07440  0.31640  0.54090  1.0000
  H   H132      1.0  0.42560  0.81640  0.45910  1.0000
  H   H133      1.0  0.32440  0.20910  0.06640  1.0000
  H   H134      1.0  0.67560  0.29090  0.56640  1.0000
  H   H135      1.0  0.82440  0.79090  0.43360  1.0000
  H   H136      1.0  0.17560  0.70910  0.93360  1.0000
  H   H137      1.0  0.20910  0.93360  0.67560  1.0000
  H   H138      1.0  0.29090  0.43360  0.32440  1.0000
  H   H139      1.0  0.79090  0.56640  0.17560  1.0000
  H   H140      1.0  0.70910  0.06640  0.82440  1.0000
  H   H141      1.0  0.93360  0.32440  0.79090  1.0000
  H   H142      1.0  0.43360  0.67560  0.70910  1.0000
  H   H143      1.0  0.56640  0.82440  0.20910  1.0000
  H   H144      1.0  0.06640  0.17560  0.29090  1.0000
  H   H145      1.0  0.95910  0.57440  0.68360  1.0000
  H   H146      1.0  0.04090  0.92560  0.18360  1.0000
  H   H147      1.0  0.54090  0.07440  0.31640  1.0000
  H   H148      1.0  0.45910  0.42560  0.81640  1.0000
  H   H149      1.0  0.68360  0.45910  0.07440  1.0000
  H   H150      1.0  0.18360  0.54090  0.42560  1.0000
  H   H151      1.0  0.31640  0.04090  0.57440  1.0000
  H   H152      1.0  0.81640  0.95910  0.92560  1.0000
  H   H153      1.0  0.07440  0.18360  0.95910  1.0000
  H   H154      1.0  0.42560  0.68360  0.04090  1.0000
  H   H155      1.0  0.57440  0.81640  0.54090  1.0000
  H   H156      1.0  0.92560  0.31640  0.45910  1.0000
  H   H157      1.0  0.82440  0.70910  0.06640  1.0000
  H   H158      1.0  0.17560  0.79090  0.56640  1.0000
  H   H159      1.0  0.32440  0.29090  0.43360  1.0000
  H   H160      1.0  0.67560  0.20910  0.93360  1.0000
  H   H161      1.0  0.70910  0.43360  0.67560  1.0000
  H   H162      1.0  0.79090  0.93360  0.32440  1.0000
  H   H163      1.0  0.29090  0.06640  0.17560  1.0000
  H   H164      1.0  0.20910  0.56640  0.82440  1.0000
  H   H165      1.0  0.43360  0.82440  0.79090  1.0000
  H   H166      1.0  0.93360  0.17560  0.70910  1.0000
  H   H167      1.0  0.06640  0.32440  0.20910  1.0000
  H   H168      1.0  0.56640  0.67560  0.29090  1.0000
  H   H169      1.0  0.95910  0.07440  0.18360  1.0000
  H   H170      1.0  0.04090  0.42560  0.68360  1.0000
  H   H171      1.0  0.54090  0.57440  0.81640  1.0000
  H   H172      1.0  0.45910  0.92560  0.31640  1.0000
  H   H173      1.0  0.68360  0.95910  0.57440  1.0000
  H   H174      1.0  0.18360  0.04090  0.92560  1.0000
  H   H175      1.0  0.31640  0.54090  0.07440  1.0000
  H   H176      1.0  0.81640  0.45910  0.42560  1.0000
  H   H177      1.0  0.07440  0.68360  0.45910  1.0000
  H   H178      1.0  0.42560  0.18360  0.54090  1.0000
  H   H179      1.0  0.57440  0.31640  0.04090  1.0000
  H   H180      1.0  0.92560  0.81640  0.95910  1.0000
  H   H181      1.0  0.82440  0.20910  0.56640  1.0000
  H   H182      1.0  0.17560  0.29090  0.06640  1.0000
  H   H183      1.0  0.32440  0.79090  0.93360  1.0000
  H   H184      1.0  0.67560  0.70910  0.43360  1.0000
  H   H185      1.0  0.70910  0.93360  0.17560  1.0000
  H   H186      1.0  0.79090  0.43360  0.82440  1.0000
  H   H187      1.0  0.29090  0.56640  0.67560  1.0000
  H   H188      1.0  0.20910  0.06640  0.32440  1.0000
  H   H189      1.0  0.43360  0.32440  0.29090  1.0000
  H   H190      1.0  0.93360  0.67560  0.20910  1.0000
  H   H191      1.0  0.06640  0.82440  0.70910  1.0000
  H   H192      1.0  0.56640  0.17560  0.79090  1.0000
  C   C481      1.0  0.50170  0.56877  0.16988  1.0000
  C   C482      1.0  0.49830  0.93123  0.66988  1.0000
  C   C483      1.0  0.99830  0.06877  0.83012  1.0000
  C   C484      1.0  0.00170  0.43123  0.33012  1.0000
  C   C485      1.0  0.16988  0.50170  0.56877  1.0000
  C   C486      1.0  0.66988  0.49830  0.93123  1.0000
  C   C487      1.0  0.83012  0.99830  0.06877  1.0000
  C   C488      1.0  0.33012  0.00170  0.43123  1.0000
  C   C489      1.0  0.56877  0.16988  0.50170  1.0000
  C   C490      1.0  0.93123  0.66988  0.49830  1.0000
  C   C491      1.0  0.06877  0.83012  0.99830  1.0000
  C   C492      1.0  0.43123  0.33012  0.00170  1.0000
  C   C493      1.0  0.31877  0.75170  0.58012  1.0000
  C   C494      1.0  0.68123  0.74830  0.08012  1.0000
  C   C495      1.0  0.81877  0.24830  0.91988  1.0000
  C   C496      1.0  0.18123  0.25170  0.41988  1.0000
  C   C497      1.0  0.25170  0.41988  0.18123  1.0000
  C   C498      1.0  0.24830  0.91988  0.81877  1.0000
  C   C499      1.0  0.74830  0.08012  0.68123  1.0000
  C   C500      1.0  0.75170  0.58012  0.31877  1.0000
  C   C501      1.0  0.91988  0.81877  0.24830  1.0000
  C   C502      1.0  0.41988  0.18123  0.25170  1.0000
  C   C503      1.0  0.58012  0.31877  0.75170  1.0000
  C   C504      1.0  0.08012  0.68123  0.74830  1.0000
  C   C505      1.0  0.50170  0.06877  0.66988  1.0000
  C   C506      1.0  0.49830  0.43123  0.16988  1.0000
  C   C507      1.0  0.99830  0.56877  0.33012  1.0000
  C   C508      1.0  0.00170  0.93123  0.83012  1.0000
  C   C509      1.0  0.16988  0.00170  0.06877  1.0000
  C   C510      1.0  0.66988  0.99830  0.43123  1.0000
  C   C511      1.0  0.83012  0.49830  0.56877  1.0000
  C   C512      1.0  0.33012  0.50170  0.93123  1.0000
  C   C513      1.0  0.56877  0.66988  0.00170  1.0000
  C   C514      1.0  0.93123  0.16988  0.99830  1.0000
  C   C515      1.0  0.06877  0.33012  0.49830  1.0000
  C   C516      1.0  0.43123  0.83012  0.50170  1.0000
  C   C517      1.0  0.31877  0.25170  0.08012  1.0000
  C   C518      1.0  0.68123  0.24830  0.58012  1.0000
  C   C519      1.0  0.81877  0.74830  0.41988  1.0000
  C   C520      1.0  0.18123  0.75170  0.91988  1.0000
  C   C521      1.0  0.25170  0.91988  0.68123  1.0000
  C   C522      1.0  0.24830  0.41988  0.31877  1.0000
  C   C523      1.0  0.74830  0.58012  0.18123  1.0000
  C   C524      1.0  0.75170  0.08012  0.81877  1.0000
  C   C525      1.0  0.91988  0.31877  0.74830  1.0000
  C   C526      1.0  0.41988  0.68123  0.75170  1.0000
  C   C527      1.0  0.58012  0.81877  0.25170  1.0000
  C   C528      1.0  0.08012  0.18123  0.24830  1.0000
  C   C529      1.0  0.00170  0.56877  0.66988  1.0000
  C   C530      1.0  0.99830  0.93123  0.16988  1.0000
  C   C531      1.0  0.49830  0.06877  0.33012  1.0000
  C   C532      1.0  0.50170  0.43123  0.83012  1.0000
  C   C533      1.0  0.66988  0.50170  0.06877  1.0000
  C   C534      1.0  0.16988  0.49830  0.43123  1.0000
  C   C535      1.0  0.33012  0.99830  0.56877  1.0000
  C   C536      1.0  0.83012  0.00170  0.93123  1.0000
  C   C537      1.0  0.06877  0.16988  0.00170  1.0000
  C   C538      1.0  0.43123  0.66988  0.99830  1.0000
  C   C539      1.0  0.56877  0.83012  0.49830  1.0000
  C   C540      1.0  0.93123  0.33012  0.50170  1.0000
  C   C541      1.0  0.81877  0.75170  0.08012  1.0000
  C   C542      1.0  0.18123  0.74830  0.58012  1.0000
  C   C543      1.0  0.31877  0.24830  0.41988  1.0000
  C   C544      1.0  0.68123  0.25170  0.91988  1.0000
  C   C545      1.0  0.75170  0.41988  0.68123  1.0000
  C   C546      1.0  0.74830  0.91988  0.31877  1.0000
  C   C547      1.0  0.24830  0.08012  0.18123  1.0000
  C   C548      1.0  0.25170  0.58012  0.81877  1.0000
  C   C549      1.0  0.41988  0.81877  0.74830  1.0000
  C   C550      1.0  0.91988  0.18123  0.75170  1.0000
  C   C551      1.0  0.08012  0.31877  0.25170  1.0000
  C   C552      1.0  0.58012  0.68123  0.24830  1.0000
  C   C553      1.0  0.00170  0.06877  0.16988  1.0000
  C   C554      1.0  0.99830  0.43123  0.66988  1.0000
  C   C555      1.0  0.49830  0.56877  0.83012  1.0000
  C   C556      1.0  0.50170  0.93123  0.33012  1.0000
  C   C557      1.0  0.66988  0.00170  0.56877  1.0000
  C   C558      1.0  0.16988  0.99830  0.93123  1.0000
  C   C559      1.0  0.33012  0.49830  0.06877  1.0000
  C   C560      1.0  0.83012  0.50170  0.43123  1.0000
  C   C561      1.0  0.06877  0.66988  0.50170  1.0000
  C   C562      1.0  0.43123  0.16988  0.49830  1.0000
  C   C563      1.0  0.56877  0.33012  0.99830  1.0000
  C   C564      1.0  0.93123  0.83012  0.00170  1.0000
  C   C565      1.0  0.81877  0.25170  0.58012  1.0000
  C   C566      1.0  0.18123  0.24830  0.08012  1.0000
  C   C567      1.0  0.31877  0.74830  0.91988  1.0000
  C   C568      1.0  0.68123  0.75170  0.41988  1.0000
  C   C569      1.0  0.75170  0.91988  0.18123  1.0000
  C   C570      1.0  0.74830  0.41988  0.81877  1.0000
  C   C571      1.0  0.24830  0.58012  0.68123  1.0000
  C   C572      1.0  0.25170  0.08012  0.31877  1.0000
  C   C573      1.0  0.41988  0.31877  0.24830  1.0000
  C   C574      1.0  0.91988  0.68123  0.25170  1.0000
  C   C575      1.0  0.08012  0.81877  0.75170  1.0000
  C   C576      1.0  0.58012  0.18123  0.74830  1.0000
  C   C577      1.0  0.52238  0.57746  0.14879  1.0000
  C   C578      1.0  0.47762  0.92254  0.64879  1.0000
  C   C579      1.0  0.97762  0.07746  0.85121  1.0000
  C   C580      1.0  0.02238  0.42254  0.35121  1.0000
  C   C581      1.0  0.14879  0.52238  0.57746  1.0000
  C   C582      1.0  0.64879  0.47762  0.92254  1.0000
  C   C583      1.0  0.85121  0.97762  0.07746  1.0000
  C   C584      1.0  0.35121  0.02238  0.42254  1.0000
  C   C585      1.0  0.57746  0.14879  0.52238  1.0000
  C   C586      1.0  0.92254  0.64879  0.47762  1.0000
  C   C587      1.0  0.07746  0.85121  0.97762  1.0000
  C   C588      1.0  0.42254  0.35121  0.02238  1.0000
  C   C589      1.0  0.32746  0.77238  0.60121  1.0000
  C   C590      1.0  0.67254  0.72762  0.10121  1.0000
  C   C591      1.0  0.82746  0.22762  0.89879  1.0000
  C   C592      1.0  0.17254  0.27238  0.39879  1.0000
  C   C593      1.0  0.27238  0.39879  0.17254  1.0000
  C   C594      1.0  0.22762  0.89879  0.82746  1.0000
  C   C595      1.0  0.72762  0.10121  0.67254  1.0000
  C   C596      1.0  0.77238  0.60121  0.32746  1.0000
  C   C597      1.0  0.89879  0.82746  0.22762  1.0000
  C   C598      1.0  0.39879  0.17254  0.27238  1.0000
  C   C599      1.0  0.60121  0.32746  0.77238  1.0000
  C   C600      1.0  0.10121  0.67254  0.72762  1.0000
  C   C601      1.0  0.52238  0.07746  0.64879  1.0000
  C   C602      1.0  0.47762  0.42254  0.14879  1.0000
  C   C603      1.0  0.97762  0.57746  0.35121  1.0000
  C   C604      1.0  0.02238  0.92254  0.85121  1.0000
  C   C605      1.0  0.14879  0.02238  0.07746  1.0000
  C   C606      1.0  0.64879  0.97762  0.42254  1.0000
  C   C607      1.0  0.85121  0.47762  0.57746  1.0000
  C   C608      1.0  0.35121  0.52238  0.92254  1.0000
  C   C609      1.0  0.57746  0.64879  0.02238  1.0000
  C   C610      1.0  0.92254  0.14879  0.97762  1.0000
  C   C611      1.0  0.07746  0.35121  0.47762  1.0000
  C   C612      1.0  0.42254  0.85121  0.52238  1.0000
  C   C613      1.0  0.32746  0.27238  0.10121  1.0000
  C   C614      1.0  0.67254  0.22762  0.60121  1.0000
  C   C615      1.0  0.82746  0.72762  0.39879  1.0000
  C   C616      1.0  0.17254  0.77238  0.89879  1.0000
  C   C617      1.0  0.27238  0.89879  0.67254  1.0000
  C   C618      1.0  0.22762  0.39879  0.32746  1.0000
  C   C619      1.0  0.72762  0.60121  0.17254  1.0000
  C   C620      1.0  0.77238  0.10121  0.82746  1.0000
  C   C621      1.0  0.89879  0.32746  0.72762  1.0000
  C   C622      1.0  0.39879  0.67254  0.77238  1.0000
  C   C623      1.0  0.60121  0.82746  0.27238  1.0000
  C   C624      1.0  0.10121  0.17254  0.22762  1.0000
  C   C625      1.0  0.02238  0.57746  0.64879  1.0000
  C   C626      1.0  0.97762  0.92254  0.14879  1.0000
  C   C627      1.0  0.47762  0.07746  0.35121  1.0000
  C   C628      1.0  0.52238  0.42254  0.85121  1.0000
  C   C629      1.0  0.64879  0.52238  0.07746  1.0000
  C   C630      1.0  0.14879  0.47762  0.42254  1.0000
  C   C631      1.0  0.35121  0.97762  0.57746  1.0000
  C   C632      1.0  0.85121  0.02238  0.92254  1.0000
  C   C633      1.0  0.07746  0.14879  0.02238  1.0000
  C   C634      1.0  0.42254  0.64879  0.97762  1.0000
  C   C635      1.0  0.57746  0.85121  0.47762  1.0000
  C   C636      1.0  0.92254  0.35121  0.52238  1.0000
  C   C637      1.0  0.82746  0.77238  0.10121  1.0000
  C   C638      1.0  0.17254  0.72762  0.60121  1.0000
  C   C639      1.0  0.32746  0.22762  0.39879  1.0000
  C   C640      1.0  0.67254  0.27238  0.89879  1.0000
  C   C641      1.0  0.77238  0.39879  0.67254  1.0000
  C   C642      1.0  0.72762  0.89879  0.32746  1.0000
  C   C643      1.0  0.22762  0.10121  0.17254  1.0000
  C   C644      1.0  0.27238  0.60121  0.82746  1.0000
  C   C645      1.0  0.39879  0.82746  0.72762  1.0000
  C   C646      1.0  0.89879  0.17254  0.77238  1.0000
  C   C647      1.0  0.10121  0.32746  0.27238  1.0000
  C   C648      1.0  0.60121  0.67254  0.22762  1.0000
  C   C649      1.0  0.02238  0.07746  0.14879  1.0000
  C   C650      1.0  0.97762  0.42254  0.64879  1.0000
  C   C651      1.0  0.47762  0.57746  0.85121  1.0000
  C   C652      1.0  0.52238  0.92254  0.35121  1.0000
  C   C653      1.0  0.64879  0.02238  0.57746  1.0000
  C   C654      1.0  0.14879  0.97762  0.92254  1.0000
  C   C655      1.0  0.35121  0.47762  0.07746  1.0000
  C   C656      1.0  0.85121  0.52238  0.42254  1.0000
  C   C657      1.0  0.07746  0.64879  0.52238  1.0000
  C   C658      1.0  0.42254  0.14879  0.47762  1.0000
  C   C659      1.0  0.57746  0.35121  0.97762  1.0000
  C   C660      1.0  0.92254  0.85121  0.02238  1.0000
  C   C661      1.0  0.82746  0.27238  0.60121  1.0000
  C   C662      1.0  0.17254  0.22762  0.10121  1.0000
  C   C663      1.0  0.32746  0.72762  0.89879  1.0000
  C   C664      1.0  0.67254  0.77238  0.39879  1.0000
  C   C665      1.0  0.77238  0.89879  0.17254  1.0000
  C   C666      1.0  0.72762  0.39879  0.82746  1.0000
  C   C667      1.0  0.22762  0.60121  0.67254  1.0000
  C   C668      1.0  0.27238  0.10121  0.32746  1.0000
  C   C669      1.0  0.39879  0.32746  0.22762  1.0000
  C   C670      1.0  0.89879  0.67254  0.27238  1.0000
  C   C671      1.0  0.10121  0.82746  0.77238  1.0000
  C   C672      1.0  0.60121  0.17254  0.72762  1.0000
  H   H193      1.0  0.54190  0.56950  0.14930  1.0000
  H   H194      1.0  0.45810  0.93050  0.64930  1.0000
  H   H195      1.0  0.95810  0.06950  0.85070  1.0000
  H   H196      1.0  0.04190  0.43050  0.35070  1.0000
  H   H197      1.0  0.14930  0.54190  0.56950  1.0000
  H   H198      1.0  0.64930  0.45810  0.93050  1.0000
  H   H199      1.0  0.85070  0.95810  0.06950  1.0000
  H   H200      1.0  0.35070  0.04190  0.43050  1.0000
  H   H201      1.0  0.56950  0.14930  0.54190  1.0000
  H   H202      1.0  0.93050  0.64930  0.45810  1.0000
  H   H203      1.0  0.06950  0.85070  0.95810  1.0000
  H   H204      1.0  0.43050  0.35070  0.04190  1.0000
  H   H205      1.0  0.31950  0.79190  0.60070  1.0000
  H   H206      1.0  0.68050  0.70810  0.10070  1.0000
  H   H207      1.0  0.81950  0.20810  0.89930  1.0000
  H   H208      1.0  0.18050  0.29190  0.39930  1.0000
  H   H209      1.0  0.29190  0.39930  0.18050  1.0000
  H   H210      1.0  0.20810  0.89930  0.81950  1.0000
  H   H211      1.0  0.70810  0.10070  0.68050  1.0000
  H   H212      1.0  0.79190  0.60070  0.31950  1.0000
  H   H213      1.0  0.89930  0.81950  0.20810  1.0000
  H   H214      1.0  0.39930  0.18050  0.29190  1.0000
  H   H215      1.0  0.60070  0.31950  0.79190  1.0000
  H   H216      1.0  0.10070  0.68050  0.70810  1.0000
  H   H217      1.0  0.54190  0.06950  0.64930  1.0000
  H   H218      1.0  0.45810  0.43050  0.14930  1.0000
  H   H219      1.0  0.95810  0.56950  0.35070  1.0000
  H   H220      1.0  0.04190  0.93050  0.85070  1.0000
  H   H221      1.0  0.14930  0.04190  0.06950  1.0000
  H   H222      1.0  0.64930  0.95810  0.43050  1.0000
  H   H223      1.0  0.85070  0.45810  0.56950  1.0000
  H   H224      1.0  0.35070  0.54190  0.93050  1.0000
  H   H225      1.0  0.56950  0.64930  0.04190  1.0000
  H   H226      1.0  0.93050  0.14930  0.95810  1.0000
  H   H227      1.0  0.06950  0.35070  0.45810  1.0000
  H   H228      1.0  0.43050  0.85070  0.54190  1.0000
  H   H229      1.0  0.31950  0.29190  0.10070  1.0000
  H   H230      1.0  0.68050  0.20810  0.60070  1.0000
  H   H231      1.0  0.81950  0.70810  0.39930  1.0000
  H   H232      1.0  0.18050  0.79190  0.89930  1.0000
  H   H233      1.0  0.29190  0.89930  0.68050  1.0000
  H   H234      1.0  0.20810  0.39930  0.31950  1.0000
  H   H235      1.0  0.70810  0.60070  0.18050  1.0000
  H   H236      1.0  0.79190  0.10070  0.81950  1.0000
  H   H237      1.0  0.89930  0.31950  0.70810  1.0000
  H   H238      1.0  0.39930  0.68050  0.79190  1.0000
  H   H239      1.0  0.60070  0.81950  0.29190  1.0000
  H   H240      1.0  0.10070  0.18050  0.20810  1.0000
  H   H241      1.0  0.04190  0.56950  0.64930  1.0000
  H   H242      1.0  0.95810  0.93050  0.14930  1.0000
  H   H243      1.0  0.45810  0.06950  0.35070  1.0000
  H   H244      1.0  0.54190  0.43050  0.85070  1.0000
  H   H245      1.0  0.64930  0.54190  0.06950  1.0000
  H   H246      1.0  0.14930  0.45810  0.43050  1.0000
  H   H247      1.0  0.35070  0.95810  0.56950  1.0000
  H   H248      1.0  0.85070  0.04190  0.93050  1.0000
  H   H249      1.0  0.06950  0.14930  0.04190  1.0000
  H   H250      1.0  0.43050  0.64930  0.95810  1.0000
  H   H251      1.0  0.56950  0.85070  0.45810  1.0000
  H   H252      1.0  0.93050  0.35070  0.54190  1.0000
  H   H253      1.0  0.81950  0.79190  0.10070  1.0000
  H   H254      1.0  0.18050  0.70810  0.60070  1.0000
  H   H255      1.0  0.31950  0.20810  0.39930  1.0000
  H   H256      1.0  0.68050  0.29190  0.89930  1.0000
  H   H257      1.0  0.79190  0.39930  0.68050  1.0000
  H   H258      1.0  0.70810  0.89930  0.31950  1.0000
  H   H259      1.0  0.20810  0.10070  0.18050  1.0000
  H   H260      1.0  0.29190  0.60070  0.81950  1.0000
  H   H261      1.0  0.39930  0.81950  0.70810  1.0000
  H   H262      1.0  0.89930  0.18050  0.79190  1.0000
  H   H263      1.0  0.10070  0.31950  0.29190  1.0000
  H   H264      1.0  0.60070  0.68050  0.20810  1.0000
  H   H265      1.0  0.04190  0.06950  0.14930  1.0000
  H   H266      1.0  0.95810  0.43050  0.64930  1.0000
  H   H267      1.0  0.45810  0.56950  0.85070  1.0000
  H   H268      1.0  0.54190  0.93050  0.35070  1.0000
  H   H269      1.0  0.64930  0.04190  0.56950  1.0000
  H   H270      1.0  0.14930  0.95810  0.93050  1.0000
  H   H271      1.0  0.35070  0.45810  0.06950  1.0000
  H   H272      1.0  0.85070  0.54190  0.43050  1.0000
  H   H273      1.0  0.06950  0.64930  0.54190  1.0000
  H   H274      1.0  0.43050  0.14930  0.45810  1.0000
  H   H275      1.0  0.56950  0.35070  0.95810  1.0000
  H   H276      1.0  0.93050  0.85070  0.04190  1.0000
  H   H277      1.0  0.81950  0.29190  0.60070  1.0000
  H   H278      1.0  0.18050  0.20810  0.10070  1.0000
  H   H279      1.0  0.31950  0.70810  0.89930  1.0000
  H   H280      1.0  0.68050  0.79190  0.39930  1.0000
  H   H281      1.0  0.79190  0.89930  0.18050  1.0000
  H   H282      1.0  0.70810  0.39930  0.81950  1.0000
  H   H283      1.0  0.20810  0.60070  0.68050  1.0000
  H   H284      1.0  0.29190  0.10070  0.31950  1.0000
  H   H285      1.0  0.39930  0.31950  0.20810  1.0000
  H   H286      1.0  0.89930  0.68050  0.29190  1.0000
  H   H287      1.0  0.10070  0.81950  0.79190  1.0000
  H   H288      1.0  0.60070  0.18050  0.70810  1.0000
  C   C673      1.0  0.43620  0.61380  0.14760  1.0000
  C   C674      1.0  0.56380  0.88620  0.64760  1.0000
  C   C675      1.0  0.06380  0.11380  0.85240  1.0000
  C   C676      1.0  0.93620  0.38620  0.35240  1.0000
  C   C677      1.0  0.14760  0.43620  0.61380  1.0000
  C   C678      1.0  0.64760  0.56380  0.88620  1.0000
  C   C679      1.0  0.85240  0.06380  0.11380  1.0000
  C   C680      1.0  0.35240  0.93620  0.38620  1.0000
  C   C681      1.0  0.61380  0.14760  0.43620  1.0000
  C   C682      1.0  0.88620  0.64760  0.56380  1.0000
  C   C683      1.0  0.11380  0.85240  0.06380  1.0000
  C   C684      1.0  0.38620  0.35240  0.93620  1.0000
  C   C685      1.0  0.36380  0.68620  0.60240  1.0000
  C   C686      1.0  0.63620  0.81380  0.10240  1.0000
  C   C687      1.0  0.86380  0.31380  0.89760  1.0000
  C   C688      1.0  0.13620  0.18620  0.39760  1.0000
  C   C689      1.0  0.18620  0.39760  0.13620  1.0000
  C   C690      1.0  0.31380  0.89760  0.86380  1.0000
  C   C691      1.0  0.81380  0.10240  0.63620  1.0000
  C   C692      1.0  0.68620  0.60240  0.36380  1.0000
  C   C693      1.0  0.89760  0.86380  0.31380  1.0000
  C   C694      1.0  0.39760  0.13620  0.18620  1.0000
  C   C695      1.0  0.60240  0.36380  0.68620  1.0000
  C   C696      1.0  0.10240  0.63620  0.81380  1.0000
  C   C697      1.0  0.43620  0.11380  0.64760  1.0000
  C   C698      1.0  0.56380  0.38620  0.14760  1.0000
  C   C699      1.0  0.06380  0.61380  0.35240  1.0000
  C   C700      1.0  0.93620  0.88620  0.85240  1.0000
  C   C701      1.0  0.14760  0.93620  0.11380  1.0000
  C   C702      1.0  0.64760  0.06380  0.38620  1.0000
  C   C703      1.0  0.85240  0.56380  0.61380  1.0000
  C   C704      1.0  0.35240  0.43620  0.88620  1.0000
  C   C705      1.0  0.61380  0.64760  0.93620  1.0000
  C   C706      1.0  0.88620  0.14760  0.06380  1.0000
  C   C707      1.0  0.11380  0.35240  0.56380  1.0000
  C   C708      1.0  0.38620  0.85240  0.43620  1.0000
  C   C709      1.0  0.36380  0.18620  0.10240  1.0000
  C   C710      1.0  0.63620  0.31380  0.60240  1.0000
  C   C711      1.0  0.86380  0.81380  0.39760  1.0000
  C   C712      1.0  0.13620  0.68620  0.89760  1.0000
  C   C713      1.0  0.18620  0.89760  0.63620  1.0000
  C   C714      1.0  0.31380  0.39760  0.36380  1.0000
  C   C715      1.0  0.81380  0.60240  0.13620  1.0000
  C   C716      1.0  0.68620  0.10240  0.86380  1.0000
  C   C717      1.0  0.89760  0.36380  0.81380  1.0000
  C   C718      1.0  0.39760  0.63620  0.68620  1.0000
  C   C719      1.0  0.60240  0.86380  0.18620  1.0000
  C   C720      1.0  0.10240  0.13620  0.31380  1.0000
  C   C721      1.0  0.93620  0.61380  0.64760  1.0000
  C   C722      1.0  0.06380  0.88620  0.14760  1.0000
  C   C723      1.0  0.56380  0.11380  0.35240  1.0000
  C   C724      1.0  0.43620  0.38620  0.85240  1.0000
  C   C725      1.0  0.64760  0.43620  0.11380  1.0000
  C   C726      1.0  0.14760  0.56380  0.38620  1.0000
  C   C727      1.0  0.35240  0.06380  0.61380  1.0000
  C   C728      1.0  0.85240  0.93620  0.88620  1.0000
  C   C729      1.0  0.11380  0.14760  0.93620  1.0000
  C   C730      1.0  0.38620  0.64760  0.06380  1.0000
  C   C731      1.0  0.61380  0.85240  0.56380  1.0000
  C   C732      1.0  0.88620  0.35240  0.43620  1.0000
  C   C733      1.0  0.86380  0.68620  0.10240  1.0000
  C   C734      1.0  0.13620  0.81380  0.60240  1.0000
  C   C735      1.0  0.36380  0.31380  0.39760  1.0000
  C   C736      1.0  0.63620  0.18620  0.89760  1.0000
  C   C737      1.0  0.68620  0.39760  0.63620  1.0000
  C   C738      1.0  0.81380  0.89760  0.36380  1.0000
  C   C739      1.0  0.31380  0.10240  0.13620  1.0000
  C   C740      1.0  0.18620  0.60240  0.86380  1.0000
  C   C741      1.0  0.39760  0.86380  0.81380  1.0000
  C   C742      1.0  0.89760  0.13620  0.68620  1.0000
  C   C743      1.0  0.10240  0.36380  0.18620  1.0000
  C   C744      1.0  0.60240  0.63620  0.31380  1.0000
  C   C745      1.0  0.93620  0.11380  0.14760  1.0000
  C   C746      1.0  0.06380  0.38620  0.64760  1.0000
  C   C747      1.0  0.56380  0.61380  0.85240  1.0000
  C   C748      1.0  0.43620  0.88620  0.35240  1.0000
  C   C749      1.0  0.64760  0.93620  0.61380  1.0000
  C   C750      1.0  0.14760  0.06380  0.88620  1.0000
  C   C751      1.0  0.35240  0.56380  0.11380  1.0000
  C   C752      1.0  0.85240  0.43620  0.38620  1.0000
  C   C753      1.0  0.11380  0.64760  0.43620  1.0000
  C   C754      1.0  0.38620  0.14760  0.56380  1.0000
  C   C755      1.0  0.61380  0.35240  0.06380  1.0000
  C   C756      1.0  0.88620  0.85240  0.93620  1.0000
  C   C757      1.0  0.86380  0.18620  0.60240  1.0000
  C   C758      1.0  0.13620  0.31380  0.10240  1.0000
  C   C759      1.0  0.36380  0.81380  0.89760  1.0000
  C   C760      1.0  0.63620  0.68620  0.39760  1.0000
  C   C761      1.0  0.68620  0.89760  0.13620  1.0000
  C   C762      1.0  0.81380  0.39760  0.86380  1.0000
  C   C763      1.0  0.31380  0.60240  0.63620  1.0000
  C   C764      1.0  0.18620  0.10240  0.36380  1.0000
  C   C765      1.0  0.39760  0.36380  0.31380  1.0000
  C   C766      1.0  0.89760  0.63620  0.18620  1.0000
  C   C767      1.0  0.10240  0.86380  0.68620  1.0000
  C   C768      1.0  0.60240  0.13620  0.81380  1.0000
  C   C769      1.0  0.51170  0.54640  0.19120  1.0000
  C   C770      1.0  0.48830  0.95360  0.69120  1.0000
  C   C771      1.0  0.98830  0.04640  0.80880  1.0000
  C   C772      1.0  0.01170  0.45360  0.30880  1.0000
  C   C773      1.0  0.19120  0.51170  0.54640  1.0000
  C   C774      1.0  0.69120  0.48830  0.95360  1.0000
  C   C775      1.0  0.80880  0.98830  0.04640  1.0000
  C   C776      1.0  0.30880  0.01170  0.45360  1.0000
  C   C777      1.0  0.54640  0.19120  0.51170  1.0000
  C   C778      1.0  0.95360  0.69120  0.48830  1.0000
  C   C779      1.0  0.04640  0.80880  0.98830  1.0000
  C   C780      1.0  0.45360  0.30880  0.01170  1.0000
  C   C781      1.0  0.29640  0.76170  0.55880  1.0000
  C   C782      1.0  0.70360  0.73830  0.05880  1.0000
  C   C783      1.0  0.79640  0.23830  0.94120  1.0000
  C   C784      1.0  0.20360  0.26170  0.44120  1.0000
  C   C785      1.0  0.26170  0.44120  0.20360  1.0000
  C   C786      1.0  0.23830  0.94120  0.79640  1.0000
  C   C787      1.0  0.73830  0.05880  0.70360  1.0000
  C   C788      1.0  0.76170  0.55880  0.29640  1.0000
  C   C789      1.0  0.94120  0.79640  0.23830  1.0000
  C   C790      1.0  0.44120  0.20360  0.26170  1.0000
  C   C791      1.0  0.55880  0.29640  0.76170  1.0000
  C   C792      1.0  0.05880  0.70360  0.73830  1.0000
  C   C793      1.0  0.51170  0.04640  0.69120  1.0000
  C   C794      1.0  0.48830  0.45360  0.19120  1.0000
  C   C795      1.0  0.98830  0.54640  0.30880  1.0000
  C   C796      1.0  0.01170  0.95360  0.80880  1.0000
  C   C797      1.0  0.19120  0.01170  0.04640  1.0000
  C   C798      1.0  0.69120  0.98830  0.45360  1.0000
  C   C799      1.0  0.80880  0.48830  0.54640  1.0000
  C   C800      1.0  0.30880  0.51170  0.95360  1.0000
  C   C801      1.0  0.54640  0.69120  0.01170  1.0000
  C   C802      1.0  0.95360  0.19120  0.98830  1.0000
  C   C803      1.0  0.04640  0.30880  0.48830  1.0000
  C   C804      1.0  0.45360  0.80880  0.51170  1.0000
  C   C805      1.0  0.29640  0.26170  0.05880  1.0000
  C   C806      1.0  0.70360  0.23830  0.55880  1.0000
  C   C807      1.0  0.79640  0.73830  0.44120  1.0000
  C   C808      1.0  0.20360  0.76170  0.94120  1.0000
  C   C809      1.0  0.26170  0.94120  0.70360  1.0000
  C   C810      1.0  0.23830  0.44120  0.29640  1.0000
  C   C811      1.0  0.73830  0.55880  0.20360  1.0000
  C   C812      1.0  0.76170  0.05880  0.79640  1.0000
  C   C813      1.0  0.94120  0.29640  0.73830  1.0000
  C   C814      1.0  0.44120  0.70360  0.76170  1.0000
  C   C815      1.0  0.55880  0.79640  0.26170  1.0000
  C   C816      1.0  0.05880  0.20360  0.23830  1.0000
  C   C817      1.0  0.01170  0.54640  0.69120  1.0000
  C   C818      1.0  0.98830  0.95360  0.19120  1.0000
  C   C819      1.0  0.48830  0.04640  0.30880  1.0000
  C   C820      1.0  0.51170  0.45360  0.80880  1.0000
  C   C821      1.0  0.69120  0.51170  0.04640  1.0000
  C   C822      1.0  0.19120  0.48830  0.45360  1.0000
  C   C823      1.0  0.30880  0.98830  0.54640  1.0000
  C   C824      1.0  0.80880  0.01170  0.95360  1.0000
  C   C825      1.0  0.04640  0.19120  0.01170  1.0000
  C   C826      1.0  0.45360  0.69120  0.98830  1.0000
  C   C827      1.0  0.54640  0.80880  0.48830  1.0000
  C   C828      1.0  0.95360  0.30880  0.51170  1.0000
  C   C829      1.0  0.79640  0.76170  0.05880  1.0000
  C   C830      1.0  0.20360  0.73830  0.55880  1.0000
  C   C831      1.0  0.29640  0.23830  0.44120  1.0000
  C   C832      1.0  0.70360  0.26170  0.94120  1.0000
  C   C833      1.0  0.76170  0.44120  0.70360  1.0000
  C   C834      1.0  0.73830  0.94120  0.29640  1.0000
  C   C835      1.0  0.23830  0.05880  0.20360  1.0000
  C   C836      1.0  0.26170  0.55880  0.79640  1.0000
  C   C837      1.0  0.44120  0.79640  0.73830  1.0000
  C   C838      1.0  0.94120  0.20360  0.76170  1.0000
  C   C839      1.0  0.05880  0.29640  0.26170  1.0000
  C   C840      1.0  0.55880  0.70360  0.23830  1.0000
  C   C841      1.0  0.01170  0.04640  0.19120  1.0000
  C   C842      1.0  0.98830  0.45360  0.69120  1.0000
  C   C843      1.0  0.48830  0.54640  0.80880  1.0000
  C   C844      1.0  0.51170  0.95360  0.30880  1.0000
  C   C845      1.0  0.69120  0.01170  0.54640  1.0000
  C   C846      1.0  0.19120  0.98830  0.95360  1.0000
  C   C847      1.0  0.30880  0.48830  0.04640  1.0000
  C   C848      1.0  0.80880  0.51170  0.45360  1.0000
  C   C849      1.0  0.04640  0.69120  0.51170  1.0000
  C   C850      1.0  0.45360  0.19120  0.48830  1.0000
  C   C851      1.0  0.54640  0.30880  0.98830  1.0000
  C   C852      1.0  0.95360  0.80880  0.01170  1.0000
  C   C853      1.0  0.79640  0.26170  0.55880  1.0000
  C   C854      1.0  0.20360  0.23830  0.05880  1.0000
  C   C855      1.0  0.29640  0.73830  0.94120  1.0000
  C   C856      1.0  0.70360  0.76170  0.44120  1.0000
  C   C857      1.0  0.76170  0.94120  0.20360  1.0000
  C   C858      1.0  0.73830  0.44120  0.79640  1.0000
  C   C859      1.0  0.23830  0.55880  0.70360  1.0000
  C   C860      1.0  0.26170  0.05880  0.29640  1.0000
  C   C861      1.0  0.44120  0.29640  0.23830  1.0000
  C   C862      1.0  0.94120  0.70360  0.26170  1.0000
  C   C863      1.0  0.05880  0.79640  0.76170  1.0000
  C   C864      1.0  0.55880  0.20360  0.73830  1.0000
  C   C865      1.0  0.35440  0.82070  0.18140  1.0000
  C   C866      1.0  0.64560  0.67930  0.68140  1.0000
  C   C867      1.0  0.14560  0.32070  0.81860  1.0000
  C   C868      1.0  0.85440  0.17930  0.31860  1.0000
  C   C869      1.0  0.18140  0.35440  0.82070  1.0000
  C   C870      1.0  0.68140  0.64560  0.67930  1.0000
  C   C871      1.0  0.81860  0.14560  0.32070  1.0000
  C   C872      1.0  0.31860  0.85440  0.17930  1.0000
  C   C873      1.0  0.82070  0.18140  0.35440  1.0000
  C   C874      1.0  0.67930  0.68140  0.64560  1.0000
  C   C875      1.0  0.32070  0.81860  0.14560  1.0000
  C   C876      1.0  0.17930  0.31860  0.85440  1.0000
  C   C877      1.0  0.57070  0.60440  0.56860  1.0000
  C   C878      1.0  0.42930  0.89560  0.06860  1.0000
  C   C879      1.0  0.07070  0.39560  0.93140  1.0000
  C   C880      1.0  0.92930  0.10440  0.43140  1.0000
  C   C881      1.0  0.10440  0.43140  0.92930  1.0000
  C   C882      1.0  0.39560  0.93140  0.07070  1.0000
  C   C883      1.0  0.89560  0.06860  0.42930  1.0000
  C   C884      1.0  0.60440  0.56860  0.57070  1.0000
  C   C885      1.0  0.93140  0.07070  0.39560  1.0000
  C   C886      1.0  0.43140  0.92930  0.10440  1.0000
  C   C887      1.0  0.56860  0.57070  0.60440  1.0000
  C   C888      1.0  0.06860  0.42930  0.89560  1.0000
  C   C889      1.0  0.35440  0.32070  0.68140  1.0000
  C   C890      1.0  0.64560  0.17930  0.18140  1.0000
  C   C891      1.0  0.14560  0.82070  0.31860  1.0000
  C   C892      1.0  0.85440  0.67930  0.81860  1.0000
  C   C893      1.0  0.18140  0.85440  0.32070  1.0000
  C   C894      1.0  0.68140  0.14560  0.17930  1.0000
  C   C895      1.0  0.81860  0.64560  0.82070  1.0000
  C   C896      1.0  0.31860  0.35440  0.67930  1.0000
  C   C897      1.0  0.82070  0.68140  0.85440  1.0000
  C   C898      1.0  0.67930  0.18140  0.14560  1.0000
  C   C899      1.0  0.32070  0.31860  0.64560  1.0000
  C   C900      1.0  0.17930  0.81860  0.35440  1.0000
  C   C901      1.0  0.57070  0.10440  0.06860  1.0000
  C   C902      1.0  0.42930  0.39560  0.56860  1.0000
  C   C903      1.0  0.07070  0.89560  0.43140  1.0000
  C   C904      1.0  0.92930  0.60440  0.93140  1.0000
  C   C905      1.0  0.10440  0.93140  0.42930  1.0000
  C   C906      1.0  0.39560  0.43140  0.57070  1.0000
  C   C907      1.0  0.89560  0.56860  0.92930  1.0000
  C   C908      1.0  0.60440  0.06860  0.07070  1.0000
  C   C909      1.0  0.93140  0.57070  0.89560  1.0000
  C   C910      1.0  0.43140  0.42930  0.60440  1.0000
  C   C911      1.0  0.56860  0.07070  0.10440  1.0000
  C   C912      1.0  0.06860  0.92930  0.39560  1.0000
  C   C913      1.0  0.85440  0.82070  0.68140  1.0000
  C   C914      1.0  0.14560  0.67930  0.18140  1.0000
  C   C915      1.0  0.64560  0.32070  0.31860  1.0000
  C   C916      1.0  0.35440  0.17930  0.81860  1.0000
  C   C917      1.0  0.68140  0.35440  0.32070  1.0000
  C   C918      1.0  0.18140  0.64560  0.17930  1.0000
  C   C919      1.0  0.31860  0.14560  0.82070  1.0000
  C   C920      1.0  0.81860  0.85440  0.67930  1.0000
  C   C921      1.0  0.32070  0.18140  0.85440  1.0000
  C   C922      1.0  0.17930  0.68140  0.14560  1.0000
  C   C923      1.0  0.82070  0.81860  0.64560  1.0000
  C   C924      1.0  0.67930  0.31860  0.35440  1.0000
  C   C925      1.0  0.07070  0.60440  0.06860  1.0000
  C   C926      1.0  0.92930  0.89560  0.56860  1.0000
  C   C927      1.0  0.57070  0.39560  0.43140  1.0000
  C   C928      1.0  0.42930  0.10440  0.93140  1.0000
  C   C929      1.0  0.60440  0.43140  0.42930  1.0000
  C   C930      1.0  0.89560  0.93140  0.57070  1.0000
  C   C931      1.0  0.39560  0.06860  0.92930  1.0000
  C   C932      1.0  0.10440  0.56860  0.07070  1.0000
  C   C933      1.0  0.43140  0.07070  0.89560  1.0000
  C   C934      1.0  0.93140  0.92930  0.60440  1.0000
  C   C935      1.0  0.06860  0.57070  0.10440  1.0000
  C   C936      1.0  0.56860  0.42930  0.39560  1.0000
  C   C937      1.0  0.85440  0.32070  0.18140  1.0000
  C   C938      1.0  0.14560  0.17930  0.68140  1.0000
  C   C939      1.0  0.64560  0.82070  0.81860  1.0000
  C   C940      1.0  0.35440  0.67930  0.31860  1.0000
  C   C941      1.0  0.68140  0.85440  0.82070  1.0000
  C   C942      1.0  0.18140  0.14560  0.67930  1.0000
  C   C943      1.0  0.31860  0.64560  0.32070  1.0000
  C   C944      1.0  0.81860  0.35440  0.17930  1.0000
  C   C945      1.0  0.32070  0.68140  0.35440  1.0000
  C   C946      1.0  0.17930  0.18140  0.64560  1.0000
  C   C947      1.0  0.82070  0.31860  0.14560  1.0000
  C   C948      1.0  0.67930  0.81860  0.85440  1.0000
  C   C949      1.0  0.07070  0.10440  0.56860  1.0000
  C   C950      1.0  0.92930  0.39560  0.06860  1.0000
  C   C951      1.0  0.57070  0.89560  0.93140  1.0000
  C   C952      1.0  0.42930  0.60440  0.43140  1.0000
  C   C953      1.0  0.60440  0.93140  0.92930  1.0000
  C   C954      1.0  0.89560  0.43140  0.07070  1.0000
  C   C955      1.0  0.39560  0.56860  0.42930  1.0000
  C   C956      1.0  0.10440  0.06860  0.57070  1.0000
  C   C957      1.0  0.43140  0.57070  0.39560  1.0000
  C   C958      1.0  0.93140  0.42930  0.10440  1.0000
  C   C959      1.0  0.06860  0.07070  0.60440  1.0000
  C   C960      1.0  0.56860  0.92930  0.89560  1.0000
  C   C961      1.0  0.39660  0.78652  0.18994  1.0000
  C   C962      1.0  0.60340  0.71348  0.68994  1.0000
  C   C963      1.0  0.10340  0.28652  0.81006  1.0000
  C   C964      1.0  0.89660  0.21348  0.31006  1.0000
  C   C965      1.0  0.18994  0.39660  0.78652  1.0000
  C   C966      1.0  0.68994  0.60340  0.71348  1.0000
  C   C967      1.0  0.81006  0.10340  0.28652  1.0000
  C   C968      1.0  0.31006  0.89660  0.21348  1.0000
  C   C969      1.0  0.78652  0.18994  0.39660  1.0000
  C   C970      1.0  0.71348  0.68994  0.60340  1.0000
  C   C971      1.0  0.28652  0.81006  0.10340  1.0000
  C   C972      1.0  0.21348  0.31006  0.89660  1.0000
  C   C973      1.0  0.53652  0.64660  0.56006  1.0000
  C   C974      1.0  0.46348  0.85340  0.06006  1.0000
  C   C975      1.0  0.03652  0.35340  0.93994  1.0000
  C   C976      1.0  0.96348  0.14660  0.43994  1.0000
  C   C977      1.0  0.14660  0.43994  0.96348  1.0000
  C   C978      1.0  0.35340  0.93994  0.03652  1.0000
  C   C979      1.0  0.85340  0.06006  0.46348  1.0000
  C   C980      1.0  0.64660  0.56006  0.53652  1.0000
  C   C981      1.0  0.93994  0.03652  0.35340  1.0000
  C   C982      1.0  0.43994  0.96348  0.14660  1.0000
  C   C983      1.0  0.56006  0.53652  0.64660  1.0000
  C   C984      1.0  0.06006  0.46348  0.85340  1.0000
  C   C985      1.0  0.39660  0.28652  0.68994  1.0000
  C   C986      1.0  0.60340  0.21348  0.18994  1.0000
  C   C987      1.0  0.10340  0.78652  0.31006  1.0000
  C   C988      1.0  0.89660  0.71348  0.81006  1.0000
  C   C989      1.0  0.18994  0.89660  0.28652  1.0000
  C   C990      1.0  0.68994  0.10340  0.21348  1.0000
  C   C991      1.0  0.81006  0.60340  0.78652  1.0000
  C   C992      1.0  0.31006  0.39660  0.71348  1.0000
  C   C993      1.0  0.78652  0.68994  0.89660  1.0000
  C   C994      1.0  0.71348  0.18994  0.10340  1.0000
  C   C995      1.0  0.28652  0.31006  0.60340  1.0000
  C   C996      1.0  0.21348  0.81006  0.39660  1.0000
  C   C997      1.0  0.53652  0.14660  0.06006  1.0000
  C   C998      1.0  0.46348  0.35340  0.56006  1.0000
  C   C999      1.0  0.03652  0.85340  0.43994  1.0000
  C   C1000     1.0  0.96348  0.64660  0.93994  1.0000
  C   C1001     1.0  0.14660  0.93994  0.46348  1.0000
  C   C1002     1.0  0.35340  0.43994  0.53652  1.0000
  C   C1003     1.0  0.85340  0.56006  0.96348  1.0000
  C   C1004     1.0  0.64660  0.06006  0.03652  1.0000
  C   C1005     1.0  0.93994  0.53652  0.85340  1.0000
  C   C1006     1.0  0.43994  0.46348  0.64660  1.0000
  C   C1007     1.0  0.56006  0.03652  0.14660  1.0000
  C   C1008     1.0  0.06006  0.96348  0.35340  1.0000
  C   C1009     1.0  0.89660  0.78652  0.68994  1.0000
  C   C1010     1.0  0.10340  0.71348  0.18994  1.0000
  C   C1011     1.0  0.60340  0.28652  0.31006  1.0000
  C   C1012     1.0  0.39660  0.21348  0.81006  1.0000
  C   C1013     1.0  0.68994  0.39660  0.28652  1.0000
  C   C1014     1.0  0.18994  0.60340  0.21348  1.0000
  C   C1015     1.0  0.31006  0.10340  0.78652  1.0000
  C   C1016     1.0  0.81006  0.89660  0.71348  1.0000
  C   C1017     1.0  0.28652  0.18994  0.89660  1.0000
  C   C1018     1.0  0.21348  0.68994  0.10340  1.0000
  C   C1019     1.0  0.78652  0.81006  0.60340  1.0000
  C   C1020     1.0  0.71348  0.31006  0.39660  1.0000
  C   C1021     1.0  0.03652  0.64660  0.06006  1.0000
  C   C1022     1.0  0.96348  0.85340  0.56006  1.0000
  C   C1023     1.0  0.53652  0.35340  0.43994  1.0000
  C   C1024     1.0  0.46348  0.14660  0.93994  1.0000
  C   C1025     1.0  0.64660  0.43994  0.46348  1.0000
  C   C1026     1.0  0.85340  0.93994  0.53652  1.0000
  C   C1027     1.0  0.35340  0.06006  0.96348  1.0000
  C   C1028     1.0  0.14660  0.56006  0.03652  1.0000
  C   C1029     1.0  0.43994  0.03652  0.85340  1.0000
  C   C1030     1.0  0.93994  0.96348  0.64660  1.0000
  C   C1031     1.0  0.06006  0.53652  0.14660  1.0000
  C   C1032     1.0  0.56006  0.46348  0.35340  1.0000
  C   C1033     1.0  0.89660  0.28652  0.18994  1.0000
  C   C1034     1.0  0.10340  0.21348  0.68994  1.0000
  C   C1035     1.0  0.60340  0.78652  0.81006  1.0000
  C   C1036     1.0  0.39660  0.71348  0.31006  1.0000
  C   C1037     1.0  0.68994  0.89660  0.78652  1.0000
  C   C1038     1.0  0.18994  0.10340  0.71348  1.0000
  C   C1039     1.0  0.31006  0.60340  0.28652  1.0000
  C   C1040     1.0  0.81006  0.39660  0.21348  1.0000
  C   C1041     1.0  0.28652  0.68994  0.39660  1.0000
  C   C1042     1.0  0.21348  0.18994  0.60340  1.0000
  C   C1043     1.0  0.78652  0.31006  0.10340  1.0000
  C   C1044     1.0  0.71348  0.81006  0.89660  1.0000
  C   C1045     1.0  0.03652  0.14660  0.56006  1.0000
  C   C1046     1.0  0.96348  0.35340  0.06006  1.0000
  C   C1047     1.0  0.53652  0.85340  0.93994  1.0000
  C   C1048     1.0  0.46348  0.64660  0.43994  1.0000
  C   C1049     1.0  0.64660  0.93994  0.96348  1.0000
  C   C1050     1.0  0.85340  0.43994  0.03652  1.0000
  C   C1051     1.0  0.35340  0.56006  0.46348  1.0000
  C   C1052     1.0  0.14660  0.06006  0.53652  1.0000
  C   C1053     1.0  0.43994  0.53652  0.35340  1.0000
  C   C1054     1.0  0.93994  0.46348  0.14660  1.0000
  C   C1055     1.0  0.06006  0.03652  0.64660  1.0000
  C   C1056     1.0  0.56006  0.96348  0.85340  1.0000
  C   C1057     1.0  0.42393  0.78713  0.20410  1.0000
  C   C1058     1.0  0.57607  0.71287  0.70410  1.0000
  C   C1059     1.0  0.07607  0.28713  0.79590  1.0000
  C   C1060     1.0  0.92393  0.21287  0.29590  1.0000
  C   C1061     1.0  0.20410  0.42393  0.78713  1.0000
  C   C1062     1.0  0.70410  0.57607  0.71287  1.0000
  C   C1063     1.0  0.79590  0.07607  0.28713  1.0000
  C   C1064     1.0  0.29590  0.92393  0.21287  1.0000
  C   C1065     1.0  0.78713  0.20410  0.42393  1.0000
  C   C1066     1.0  0.71287  0.70410  0.57607  1.0000
  C   C1067     1.0  0.28713  0.79590  0.07607  1.0000
  C   C1068     1.0  0.21287  0.29590  0.92393  1.0000
  C   C1069     1.0  0.53713  0.67393  0.54590  1.0000
  C   C1070     1.0  0.46287  0.82607  0.04590  1.0000
  C   C1071     1.0  0.03713  0.32607  0.95410  1.0000
  C   C1072     1.0  0.96287  0.17393  0.45410  1.0000
  C   C1073     1.0  0.17393  0.45410  0.96287  1.0000
  C   C1074     1.0  0.32607  0.95410  0.03713  1.0000
  C   C1075     1.0  0.82607  0.04590  0.46287  1.0000
  C   C1076     1.0  0.67393  0.54590  0.53713  1.0000
  C   C1077     1.0  0.95410  0.03713  0.32607  1.0000
  C   C1078     1.0  0.45410  0.96287  0.17393  1.0000
  C   C1079     1.0  0.54590  0.53713  0.67393  1.0000
  C   C1080     1.0  0.04590  0.46287  0.82607  1.0000
  C   C1081     1.0  0.42393  0.28713  0.70410  1.0000
  C   C1082     1.0  0.57607  0.21287  0.20410  1.0000
  C   C1083     1.0  0.07607  0.78713  0.29590  1.0000
  C   C1084     1.0  0.92393  0.71287  0.79590  1.0000
  C   C1085     1.0  0.20410  0.92393  0.28713  1.0000
  C   C1086     1.0  0.70410  0.07607  0.21287  1.0000
  C   C1087     1.0  0.79590  0.57607  0.78713  1.0000
  C   C1088     1.0  0.29590  0.42393  0.71287  1.0000
  C   C1089     1.0  0.78713  0.70410  0.92393  1.0000
  C   C1090     1.0  0.71287  0.20410  0.07607  1.0000
  C   C1091     1.0  0.28713  0.29590  0.57607  1.0000
  C   C1092     1.0  0.21287  0.79590  0.42393  1.0000
  C   C1093     1.0  0.53713  0.17393  0.04590  1.0000
  C   C1094     1.0  0.46287  0.32607  0.54590  1.0000
  C   C1095     1.0  0.03713  0.82607  0.45410  1.0000
  C   C1096     1.0  0.96287  0.67393  0.95410  1.0000
  C   C1097     1.0  0.17393  0.95410  0.46287  1.0000
  C   C1098     1.0  0.32607  0.45410  0.53713  1.0000
  C   C1099     1.0  0.82607  0.54590  0.96287  1.0000
  C   C1100     1.0  0.67393  0.04590  0.03713  1.0000
  C   C1101     1.0  0.95410  0.53713  0.82607  1.0000
  C   C1102     1.0  0.45410  0.46287  0.67393  1.0000
  C   C1103     1.0  0.54590  0.03713  0.17393  1.0000
  C   C1104     1.0  0.04590  0.96287  0.32607  1.0000
  C   C1105     1.0  0.92393  0.78713  0.70410  1.0000
  C   C1106     1.0  0.07607  0.71287  0.20410  1.0000
  C   C1107     1.0  0.57607  0.28713  0.29590  1.0000
  C   C1108     1.0  0.42393  0.21287  0.79590  1.0000
  C   C1109     1.0  0.70410  0.42393  0.28713  1.0000
  C   C1110     1.0  0.20410  0.57607  0.21287  1.0000
  C   C1111     1.0  0.29590  0.07607  0.78713  1.0000
  C   C1112     1.0  0.79590  0.92393  0.71287  1.0000
  C   C1113     1.0  0.28713  0.20410  0.92393  1.0000
  C   C1114     1.0  0.21287  0.70410  0.07607  1.0000
  C   C1115     1.0  0.78713  0.79590  0.57607  1.0000
  C   C1116     1.0  0.71287  0.29590  0.42393  1.0000
  C   C1117     1.0  0.03713  0.67393  0.04590  1.0000
  C   C1118     1.0  0.96287  0.82607  0.54590  1.0000
  C   C1119     1.0  0.53713  0.32607  0.45410  1.0000
  C   C1120     1.0  0.46287  0.17393  0.95410  1.0000
  C   C1121     1.0  0.67393  0.45410  0.46287  1.0000
  C   C1122     1.0  0.82607  0.95410  0.53713  1.0000
  C   C1123     1.0  0.32607  0.04590  0.96287  1.0000
  C   C1124     1.0  0.17393  0.54590  0.03713  1.0000
  C   C1125     1.0  0.45410  0.03713  0.82607  1.0000
  C   C1126     1.0  0.95410  0.96287  0.67393  1.0000
  C   C1127     1.0  0.04590  0.53713  0.17393  1.0000
  C   C1128     1.0  0.54590  0.46287  0.32607  1.0000
  C   C1129     1.0  0.92393  0.28713  0.20410  1.0000
  C   C1130     1.0  0.07607  0.21287  0.70410  1.0000
  C   C1131     1.0  0.57607  0.78713  0.79590  1.0000
  C   C1132     1.0  0.42393  0.71287  0.29590  1.0000
  C   C1133     1.0  0.70410  0.92393  0.78713  1.0000
  C   C1134     1.0  0.20410  0.07607  0.71287  1.0000
  C   C1135     1.0  0.29590  0.57607  0.28713  1.0000
  C   C1136     1.0  0.79590  0.42393  0.21287  1.0000
  C   C1137     1.0  0.28713  0.70410  0.42393  1.0000
  C   C1138     1.0  0.21287  0.20410  0.57607  1.0000
  C   C1139     1.0  0.78713  0.29590  0.07607  1.0000
  C   C1140     1.0  0.71287  0.79590  0.92393  1.0000
  C   C1141     1.0  0.03713  0.17393  0.54590  1.0000
  C   C1142     1.0  0.96287  0.32607  0.04590  1.0000
  C   C1143     1.0  0.53713  0.82607  0.95410  1.0000
  C   C1144     1.0  0.46287  0.67393  0.45410  1.0000
  C   C1145     1.0  0.67393  0.95410  0.96287  1.0000
  C   C1146     1.0  0.82607  0.45410  0.03713  1.0000
  C   C1147     1.0  0.32607  0.54590  0.46287  1.0000
  C   C1148     1.0  0.17393  0.04590  0.53713  1.0000
  C   C1149     1.0  0.45410  0.53713  0.32607  1.0000
  C   C1150     1.0  0.95410  0.46287  0.17393  1.0000
  C   C1151     1.0  0.04590  0.03713  0.67393  1.0000
  C   C1152     1.0  0.54590  0.96287  0.82607  1.0000
  H   H289      1.0  0.42900  0.80340  0.21640  1.0000
  H   H290      1.0  0.57100  0.69660  0.71640  1.0000
  H   H291      1.0  0.07100  0.30340  0.78360  1.0000
  H   H292      1.0  0.92900  0.19660  0.28360  1.0000
  H   H293      1.0  0.21640  0.42900  0.80340  1.0000
  H   H294      1.0  0.71640  0.57100  0.69660  1.0000
  H   H295      1.0  0.78360  0.07100  0.30340  1.0000
  H   H296      1.0  0.28360  0.92900  0.19660  1.0000
  H   H297      1.0  0.80340  0.21640  0.42900  1.0000
  H   H298      1.0  0.69660  0.71640  0.57100  1.0000
  H   H299      1.0  0.30340  0.78360  0.07100  1.0000
  H   H300      1.0  0.19660  0.28360  0.92900  1.0000
  H   H301      1.0  0.55340  0.67900  0.53360  1.0000
  H   H302      1.0  0.44660  0.82100  0.03360  1.0000
  H   H303      1.0  0.05340  0.32100  0.96640  1.0000
  H   H304      1.0  0.94660  0.17900  0.46640  1.0000
  H   H305      1.0  0.17900  0.46640  0.94660  1.0000
  H   H306      1.0  0.32100  0.96640  0.05340  1.0000
  H   H307      1.0  0.82100  0.03360  0.44660  1.0000
  H   H308      1.0  0.67900  0.53360  0.55340  1.0000
  H   H309      1.0  0.96640  0.05340  0.32100  1.0000
  H   H310      1.0  0.46640  0.94660  0.17900  1.0000
  H   H311      1.0  0.53360  0.55340  0.67900  1.0000
  H   H312      1.0  0.03360  0.44660  0.82100  1.0000
  H   H313      1.0  0.42900  0.30340  0.71640  1.0000
  H   H314      1.0  0.57100  0.19660  0.21640  1.0000
  H   H315      1.0  0.07100  0.80340  0.28360  1.0000
  H   H316      1.0  0.92900  0.69660  0.78360  1.0000
  H   H317      1.0  0.21640  0.92900  0.30340  1.0000
  H   H318      1.0  0.71640  0.07100  0.19660  1.0000
  H   H319      1.0  0.78360  0.57100  0.80340  1.0000
  H   H320      1.0  0.28360  0.42900  0.69660  1.0000
  H   H321      1.0  0.80340  0.71640  0.92900  1.0000
  H   H322      1.0  0.69660  0.21640  0.07100  1.0000
  H   H323      1.0  0.30340  0.28360  0.57100  1.0000
  H   H324      1.0  0.19660  0.78360  0.42900  1.0000
  H   H325      1.0  0.55340  0.17900  0.03360  1.0000
  H   H326      1.0  0.44660  0.32100  0.53360  1.0000
  H   H327      1.0  0.05340  0.82100  0.46640  1.0000
  H   H328      1.0  0.94660  0.67900  0.96640  1.0000
  H   H329      1.0  0.17900  0.96640  0.44660  1.0000
  H   H330      1.0  0.32100  0.46640  0.55340  1.0000
  H   H331      1.0  0.82100  0.53360  0.94660  1.0000
  H   H332      1.0  0.67900  0.03360  0.05340  1.0000
  H   H333      1.0  0.96640  0.55340  0.82100  1.0000
  H   H334      1.0  0.46640  0.44660  0.67900  1.0000
  H   H335      1.0  0.53360  0.05340  0.17900  1.0000
  H   H336      1.0  0.03360  0.94660  0.32100  1.0000
  H   H337      1.0  0.92900  0.80340  0.71640  1.0000
  H   H338      1.0  0.07100  0.69660  0.21640  1.0000
  H   H339      1.0  0.57100  0.30340  0.28360  1.0000
  H   H340      1.0  0.42900  0.19660  0.78360  1.0000
  H   H341      1.0  0.71640  0.42900  0.30340  1.0000
  H   H342      1.0  0.21640  0.57100  0.19660  1.0000
  H   H343      1.0  0.28360  0.07100  0.80340  1.0000
  H   H344      1.0  0.78360  0.92900  0.69660  1.0000
  H   H345      1.0  0.30340  0.21640  0.92900  1.0000
  H   H346      1.0  0.19660  0.71640  0.07100  1.0000
  H   H347      1.0  0.80340  0.78360  0.57100  1.0000
  H   H348      1.0  0.69660  0.28360  0.42900  1.0000
  H   H349      1.0  0.05340  0.67900  0.03360  1.0000
  H   H350      1.0  0.94660  0.82100  0.53360  1.0000
  H   H351      1.0  0.55340  0.32100  0.46640  1.0000
  H   H352      1.0  0.44660  0.17900  0.96640  1.0000
  H   H353      1.0  0.67900  0.46640  0.44660  1.0000
  H   H354      1.0  0.82100  0.96640  0.55340  1.0000
  H   H355      1.0  0.32100  0.03360  0.94660  1.0000
  H   H356      1.0  0.17900  0.53360  0.05340  1.0000
  H   H357      1.0  0.46640  0.05340  0.82100  1.0000
  H   H358      1.0  0.96640  0.94660  0.67900  1.0000
  H   H359      1.0  0.03360  0.55340  0.17900  1.0000
  H   H360      1.0  0.53360  0.44660  0.32100  1.0000
  H   H361      1.0  0.92900  0.30340  0.21640  1.0000
  H   H362      1.0  0.07100  0.19660  0.71640  1.0000
  H   H363      1.0  0.57100  0.80340  0.78360  1.0000
  H   H364      1.0  0.42900  0.69660  0.28360  1.0000
  H   H365      1.0  0.71640  0.92900  0.80340  1.0000
  H   H366      1.0  0.21640  0.07100  0.69660  1.0000
  H   H367      1.0  0.28360  0.57100  0.30340  1.0000
  H   H368      1.0  0.78360  0.42900  0.19660  1.0000
  H   H369      1.0  0.30340  0.71640  0.42900  1.0000
  H   H370      1.0  0.19660  0.21640  0.57100  1.0000
  H   H371      1.0  0.80340  0.28360  0.07100  1.0000
  H   H372      1.0  0.69660  0.78360  0.92900  1.0000
  H   H373      1.0  0.05340  0.17900  0.53360  1.0000
  H   H374      1.0  0.94660  0.32100  0.03360  1.0000
  H   H375      1.0  0.55340  0.82100  0.96640  1.0000
  H   H376      1.0  0.44660  0.67900  0.46640  1.0000
  H   H377      1.0  0.67900  0.96640  0.94660  1.0000
  H   H378      1.0  0.82100  0.46640  0.05340  1.0000
  H   H379      1.0  0.32100  0.53360  0.44660  1.0000
  H   H380      1.0  0.17900  0.03360  0.55340  1.0000
  H   H381      1.0  0.46640  0.55340  0.32100  1.0000
  H   H382      1.0  0.96640  0.44660  0.17900  1.0000
  H   H383      1.0  0.03360  0.05340  0.67900  1.0000
  H   H384      1.0  0.53360  0.94660  0.82100  1.0000
  C   C1153     1.0  0.44380  0.76393  0.20022  1.0000
  C   C1154     1.0  0.55620  0.73607  0.70022  1.0000
  C   C1155     1.0  0.05620  0.26393  0.79978  1.0000
  C   C1156     1.0  0.94380  0.23607  0.29978  1.0000
  C   C1157     1.0  0.20022  0.44380  0.76393  1.0000
  C   C1158     1.0  0.70022  0.55620  0.73607  1.0000
  C   C1159     1.0  0.79978  0.05620  0.26393  1.0000
  C   C1160     1.0  0.29978  0.94380  0.23607  1.0000
  C   C1161     1.0  0.76393  0.20022  0.44380  1.0000
  C   C1162     1.0  0.73607  0.70022  0.55620  1.0000
  C   C1163     1.0  0.26393  0.79978  0.05620  1.0000
  C   C1164     1.0  0.23607  0.29978  0.94380  1.0000
  C   C1165     1.0  0.51393  0.69380  0.54978  1.0000
  C   C1166     1.0  0.48607  0.80620  0.04978  1.0000
  C   C1167     1.0  0.01393  0.30620  0.95022  1.0000
  C   C1168     1.0  0.98607  0.19380  0.45022  1.0000
  C   C1169     1.0  0.19380  0.45022  0.98607  1.0000
  C   C1170     1.0  0.30620  0.95022  0.01393  1.0000
  C   C1171     1.0  0.80620  0.04978  0.48607  1.0000
  C   C1172     1.0  0.69380  0.54978  0.51393  1.0000
  C   C1173     1.0  0.95022  0.01393  0.30620  1.0000
  C   C1174     1.0  0.45022  0.98607  0.19380  1.0000
  C   C1175     1.0  0.54978  0.51393  0.69380  1.0000
  C   C1176     1.0  0.04978  0.48607  0.80620  1.0000
  C   C1177     1.0  0.44380  0.26393  0.70022  1.0000
  C   C1178     1.0  0.55620  0.23607  0.20022  1.0000
  C   C1179     1.0  0.05620  0.76393  0.29978  1.0000
  C   C1180     1.0  0.94380  0.73607  0.79978  1.0000
  C   C1181     1.0  0.20022  0.94380  0.26393  1.0000
  C   C1182     1.0  0.70022  0.05620  0.23607  1.0000
  C   C1183     1.0  0.79978  0.55620  0.76393  1.0000
  C   C1184     1.0  0.29978  0.44380  0.73607  1.0000
  C   C1185     1.0  0.76393  0.70022  0.94380  1.0000
  C   C1186     1.0  0.73607  0.20022  0.05620  1.0000
  C   C1187     1.0  0.26393  0.29978  0.55620  1.0000
  C   C1188     1.0  0.23607  0.79978  0.44380  1.0000
  C   C1189     1.0  0.51393  0.19380  0.04978  1.0000
  C   C1190     1.0  0.48607  0.30620  0.54978  1.0000
  C   C1191     1.0  0.01393  0.80620  0.45022  1.0000
  C   C1192     1.0  0.98607  0.69380  0.95022  1.0000
  C   C1193     1.0  0.19380  0.95022  0.48607  1.0000
  C   C1194     1.0  0.30620  0.45022  0.51393  1.0000
  C   C1195     1.0  0.80620  0.54978  0.98607  1.0000
  C   C1196     1.0  0.69380  0.04978  0.01393  1.0000
  C   C1197     1.0  0.95022  0.51393  0.80620  1.0000
  C   C1198     1.0  0.45022  0.48607  0.69380  1.0000
  C   C1199     1.0  0.54978  0.01393  0.19380  1.0000
  C   C1200     1.0  0.04978  0.98607  0.30620  1.0000
  C   C1201     1.0  0.94380  0.76393  0.70022  1.0000
  C   C1202     1.0  0.05620  0.73607  0.20022  1.0000
  C   C1203     1.0  0.55620  0.26393  0.29978  1.0000
  C   C1204     1.0  0.44380  0.23607  0.79978  1.0000
  C   C1205     1.0  0.70022  0.44380  0.26393  1.0000
  C   C1206     1.0  0.20022  0.55620  0.23607  1.0000
  C   C1207     1.0  0.29978  0.05620  0.76393  1.0000
  C   C1208     1.0  0.79978  0.94380  0.73607  1.0000
  C   C1209     1.0  0.26393  0.20022  0.94380  1.0000
  C   C1210     1.0  0.23607  0.70022  0.05620  1.0000
  C   C1211     1.0  0.76393  0.79978  0.55620  1.0000
  C   C1212     1.0  0.73607  0.29978  0.44380  1.0000
  C   C1213     1.0  0.01393  0.69380  0.04978  1.0000
  C   C1214     1.0  0.98607  0.80620  0.54978  1.0000
  C   C1215     1.0  0.51393  0.30620  0.45022  1.0000
  C   C1216     1.0  0.48607  0.19380  0.95022  1.0000
  C   C1217     1.0  0.69380  0.45022  0.48607  1.0000
  C   C1218     1.0  0.80620  0.95022  0.51393  1.0000
  C   C1219     1.0  0.30620  0.04978  0.98607  1.0000
  C   C1220     1.0  0.19380  0.54978  0.01393  1.0000
  C   C1221     1.0  0.45022  0.01393  0.80620  1.0000
  C   C1222     1.0  0.95022  0.98607  0.69380  1.0000
  C   C1223     1.0  0.04978  0.51393  0.19380  1.0000
  C   C1224     1.0  0.54978  0.48607  0.30620  1.0000
  C   C1225     1.0  0.94380  0.26393  0.20022  1.0000
  C   C1226     1.0  0.05620  0.23607  0.70022  1.0000
  C   C1227     1.0  0.55620  0.76393  0.79978  1.0000
  C   C1228     1.0  0.44380  0.73607  0.29978  1.0000
  C   C1229     1.0  0.70022  0.94380  0.76393  1.0000
  C   C1230     1.0  0.20022  0.05620  0.73607  1.0000
  C   C1231     1.0  0.29978  0.55620  0.26393  1.0000
  C   C1232     1.0  0.79978  0.44380  0.23607  1.0000
  C   C1233     1.0  0.26393  0.70022  0.44380  1.0000
  C   C1234     1.0  0.23607  0.20022  0.55620  1.0000
  C   C1235     1.0  0.76393  0.29978  0.05620  1.0000
  C   C1236     1.0  0.73607  0.79978  0.94380  1.0000
  C   C1237     1.0  0.01393  0.19380  0.54978  1.0000
  C   C1238     1.0  0.98607  0.30620  0.04978  1.0000
  C   C1239     1.0  0.51393  0.80620  0.95022  1.0000
  C   C1240     1.0  0.48607  0.69380  0.45022  1.0000
  C   C1241     1.0  0.69380  0.95022  0.98607  1.0000
  C   C1242     1.0  0.80620  0.45022  0.01393  1.0000
  C   C1243     1.0  0.30620  0.54978  0.48607  1.0000
  C   C1244     1.0  0.19380  0.04978  0.51393  1.0000
  C   C1245     1.0  0.45022  0.51393  0.30620  1.0000
  C   C1246     1.0  0.95022  0.48607  0.19380  1.0000
  C   C1247     1.0  0.04978  0.01393  0.69380  1.0000
  C   C1248     1.0  0.54978  0.98607  0.80620  1.0000
  C   C1249     1.0  0.43634  0.74013  0.18217  1.0000
  C   C1250     1.0  0.56366  0.75987  0.68217  1.0000
  C   C1251     1.0  0.06366  0.24013  0.81783  1.0000
  C   C1252     1.0  0.93634  0.25987  0.31783  1.0000
  C   C1253     1.0  0.18217  0.43634  0.74013  1.0000
  C   C1254     1.0  0.68217  0.56366  0.75987  1.0000
  C   C1255     1.0  0.81783  0.06366  0.24013  1.0000
  C   C1256     1.0  0.31783  0.93634  0.25987  1.0000
  C   C1257     1.0  0.74013  0.18217  0.43634  1.0000
  C   C1258     1.0  0.75987  0.68217  0.56366  1.0000
  C   C1259     1.0  0.24013  0.81783  0.06366  1.0000
  C   C1260     1.0  0.25987  0.31783  0.93634  1.0000
  C   C1261     1.0  0.49013  0.68634  0.56783  1.0000
  C   C1262     1.0  0.50987  0.81366  0.06783  1.0000
  C   C1263     1.0  0.99013  0.31366  0.93217  1.0000
  C   C1264     1.0  0.00987  0.18634  0.43217  1.0000
  C   C1265     1.0  0.18634  0.43217  0.00987  1.0000
  C   C1266     1.0  0.31366  0.93217  0.99013  1.0000
  C   C1267     1.0  0.81366  0.06783  0.50987  1.0000
  C   C1268     1.0  0.68634  0.56783  0.49013  1.0000
  C   C1269     1.0  0.93217  0.99013  0.31366  1.0000
  C   C1270     1.0  0.43217  0.00987  0.18634  1.0000
  C   C1271     1.0  0.56783  0.49013  0.68634  1.0000
  C   C1272     1.0  0.06783  0.50987  0.81366  1.0000
  C   C1273     1.0  0.43634  0.24013  0.68217  1.0000
  C   C1274     1.0  0.56366  0.25987  0.18217  1.0000
  C   C1275     1.0  0.06366  0.74013  0.31783  1.0000
  C   C1276     1.0  0.93634  0.75987  0.81783  1.0000
  C   C1277     1.0  0.18217  0.93634  0.24013  1.0000
  C   C1278     1.0  0.68217  0.06366  0.25987  1.0000
  C   C1279     1.0  0.81783  0.56366  0.74013  1.0000
  C   C1280     1.0  0.31783  0.43634  0.75987  1.0000
  C   C1281     1.0  0.74013  0.68217  0.93634  1.0000
  C   C1282     1.0  0.75987  0.18217  0.06366  1.0000
  C   C1283     1.0  0.24013  0.31783  0.56366  1.0000
  C   C1284     1.0  0.25987  0.81783  0.43634  1.0000
  C   C1285     1.0  0.49013  0.18634  0.06783  1.0000
  C   C1286     1.0  0.50987  0.31366  0.56783  1.0000
  C   C1287     1.0  0.99013  0.81366  0.43217  1.0000
  C   C1288     1.0  0.00987  0.68634  0.93217  1.0000
  C   C1289     1.0  0.18634  0.93217  0.50987  1.0000
  C   C1290     1.0  0.31366  0.43217  0.49013  1.0000
  C   C1291     1.0  0.81366  0.56783  0.00987  1.0000
  C   C1292     1.0  0.68634  0.06783  0.99013  1.0000
  C   C1293     1.0  0.93217  0.49013  0.81366  1.0000
  C   C1294     1.0  0.43217  0.50987  0.68634  1.0000
  C   C1295     1.0  0.56783  0.99013  0.18634  1.0000
  C   C1296     1.0  0.06783  0.00987  0.31366  1.0000
  C   C1297     1.0  0.93634  0.74013  0.68217  1.0000
  C   C1298     1.0  0.06366  0.75987  0.18217  1.0000
  C   C1299     1.0  0.56366  0.24013  0.31783  1.0000
  C   C1300     1.0  0.43634  0.25987  0.81783  1.0000
  C   C1301     1.0  0.68217  0.43634  0.24013  1.0000
  C   C1302     1.0  0.18217  0.56366  0.25987  1.0000
  C   C1303     1.0  0.31783  0.06366  0.74013  1.0000
  C   C1304     1.0  0.81783  0.93634  0.75987  1.0000
  C   C1305     1.0  0.24013  0.18217  0.93634  1.0000
  C   C1306     1.0  0.25987  0.68217  0.06366  1.0000
  C   C1307     1.0  0.74013  0.81783  0.56366  1.0000
  C   C1308     1.0  0.75987  0.31783  0.43634  1.0000
  C   C1309     1.0  0.99013  0.68634  0.06783  1.0000
  C   C1310     1.0  0.00987  0.81366  0.56783  1.0000
  C   C1311     1.0  0.49013  0.31366  0.43217  1.0000
  C   C1312     1.0  0.50987  0.18634  0.93217  1.0000
  C   C1313     1.0  0.68634  0.43217  0.50987  1.0000
  C   C1314     1.0  0.81366  0.93217  0.49013  1.0000
  C   C1315     1.0  0.31366  0.06783  0.00987  1.0000
  C   C1316     1.0  0.18634  0.56783  0.99013  1.0000
  C   C1317     1.0  0.43217  0.99013  0.81366  1.0000
  C   C1318     1.0  0.93217  0.00987  0.68634  1.0000
  C   C1319     1.0  0.06783  0.49013  0.18634  1.0000
  C   C1320     1.0  0.56783  0.50987  0.31366  1.0000
  C   C1321     1.0  0.93634  0.24013  0.18217  1.0000
  C   C1322     1.0  0.06366  0.25987  0.68217  1.0000
  C   C1323     1.0  0.56366  0.74013  0.81783  1.0000
  C   C1324     1.0  0.43634  0.75987  0.31783  1.0000
  C   C1325     1.0  0.68217  0.93634  0.74013  1.0000
  C   C1326     1.0  0.18217  0.06366  0.75987  1.0000
  C   C1327     1.0  0.31783  0.56366  0.24013  1.0000
  C   C1328     1.0  0.81783  0.43634  0.25987  1.0000
  C   C1329     1.0  0.24013  0.68217  0.43634  1.0000
  C   C1330     1.0  0.25987  0.18217  0.56366  1.0000
  C   C1331     1.0  0.74013  0.31783  0.06366  1.0000
  C   C1332     1.0  0.75987  0.81783  0.93634  1.0000
  C   C1333     1.0  0.99013  0.18634  0.56783  1.0000
  C   C1334     1.0  0.00987  0.31366  0.06783  1.0000
  C   C1335     1.0  0.49013  0.81366  0.93217  1.0000
  C   C1336     1.0  0.50987  0.68634  0.43217  1.0000
  C   C1337     1.0  0.68634  0.93217  0.00987  1.0000
  C   C1338     1.0  0.81366  0.43217  0.99013  1.0000
  C   C1339     1.0  0.31366  0.56783  0.50987  1.0000
  C   C1340     1.0  0.18634  0.06783  0.49013  1.0000
  C   C1341     1.0  0.43217  0.49013  0.31366  1.0000
  C   C1342     1.0  0.93217  0.50987  0.18634  1.0000
  C   C1343     1.0  0.06783  0.99013  0.68634  1.0000
  C   C1344     1.0  0.56783  0.00987  0.81366  1.0000
  H   H385      1.0  0.44990  0.72430  0.17950  1.0000
  H   H386      1.0  0.55010  0.77570  0.67950  1.0000
  H   H387      1.0  0.05010  0.22430  0.82050  1.0000
  H   H388      1.0  0.94990  0.27570  0.32050  1.0000
  H   H389      1.0  0.17950  0.44990  0.72430  1.0000
  H   H390      1.0  0.67950  0.55010  0.77570  1.0000
  H   H391      1.0  0.82050  0.05010  0.22430  1.0000
  H   H392      1.0  0.32050  0.94990  0.27570  1.0000
  H   H393      1.0  0.72430  0.17950  0.44990  1.0000
  H   H394      1.0  0.77570  0.67950  0.55010  1.0000
  H   H395      1.0  0.22430  0.82050  0.05010  1.0000
  H   H396      1.0  0.27570  0.32050  0.94990  1.0000
  H   H397      1.0  0.47430  0.69990  0.57050  1.0000
  H   H398      1.0  0.52570  0.80010  0.07050  1.0000
  H   H399      1.0  0.97430  0.30010  0.92950  1.0000
  H   H400      1.0  0.02570  0.19990  0.42950  1.0000
  H   H401      1.0  0.19990  0.42950  0.02570  1.0000
  H   H402      1.0  0.30010  0.92950  0.97430  1.0000
  H   H403      1.0  0.80010  0.07050  0.52570  1.0000
  H   H404      1.0  0.69990  0.57050  0.47430  1.0000
  H   H405      1.0  0.92950  0.97430  0.30010  1.0000
  H   H406      1.0  0.42950  0.02570  0.19990  1.0000
  H   H407      1.0  0.57050  0.47430  0.69990  1.0000
  H   H408      1.0  0.07050  0.52570  0.80010  1.0000
  H   H409      1.0  0.44990  0.22430  0.67950  1.0000
  H   H410      1.0  0.55010  0.27570  0.17950  1.0000
  H   H411      1.0  0.05010  0.72430  0.32050  1.0000
  H   H412      1.0  0.94990  0.77570  0.82050  1.0000
  H   H413      1.0  0.17950  0.94990  0.22430  1.0000
  H   H414      1.0  0.67950  0.05010  0.27570  1.0000
  H   H415      1.0  0.82050  0.55010  0.72430  1.0000
  H   H416      1.0  0.32050  0.44990  0.77570  1.0000
  H   H417      1.0  0.72430  0.67950  0.94990  1.0000
  H   H418      1.0  0.77570  0.17950  0.05010  1.0000
  H   H419      1.0  0.22430  0.32050  0.55010  1.0000
  H   H420      1.0  0.27570  0.82050  0.44990  1.0000
  H   H421      1.0  0.47430  0.19990  0.07050  1.0000
  H   H422      1.0  0.52570  0.30010  0.57050  1.0000
  H   H423      1.0  0.97430  0.80010  0.42950  1.0000
  H   H424      1.0  0.02570  0.69990  0.92950  1.0000
  H   H425      1.0  0.19990  0.92950  0.52570  1.0000
  H   H426      1.0  0.30010  0.42950  0.47430  1.0000
  H   H427      1.0  0.80010  0.57050  0.02570  1.0000
  H   H428      1.0  0.69990  0.07050  0.97430  1.0000
  H   H429      1.0  0.92950  0.47430  0.80010  1.0000
  H   H430      1.0  0.42950  0.52570  0.69990  1.0000
  H   H431      1.0  0.57050  0.97430  0.19990  1.0000
  H   H432      1.0  0.07050  0.02570  0.30010  1.0000
  H   H433      1.0  0.94990  0.72430  0.67950  1.0000
  H   H434      1.0  0.05010  0.77570  0.17950  1.0000
  H   H435      1.0  0.55010  0.22430  0.32050  1.0000
  H   H436      1.0  0.44990  0.27570  0.82050  1.0000
  H   H437      1.0  0.67950  0.44990  0.22430  1.0000
  H   H438      1.0  0.17950  0.55010  0.27570  1.0000
  H   H439      1.0  0.32050  0.05010  0.72430  1.0000
  H   H440      1.0  0.82050  0.94990  0.77570  1.0000
  H   H441      1.0  0.22430  0.17950  0.94990  1.0000
  H   H442      1.0  0.27570  0.67950  0.05010  1.0000
  H   H443      1.0  0.72430  0.82050  0.55010  1.0000
  H   H444      1.0  0.77570  0.32050  0.44990  1.0000
  H   H445      1.0  0.97430  0.69990  0.07050  1.0000
  H   H446      1.0  0.02570  0.80010  0.57050  1.0000
  H   H447      1.0  0.47430  0.30010  0.42950  1.0000
  H   H448      1.0  0.52570  0.19990  0.92950  1.0000
  H   H449      1.0  0.69990  0.42950  0.52570  1.0000
  H   H450      1.0  0.80010  0.92950  0.47430  1.0000
  H   H451      1.0  0.30010  0.07050  0.02570  1.0000
  H   H452      1.0  0.19990  0.57050  0.97430  1.0000
  H   H453      1.0  0.42950  0.97430  0.80010  1.0000
  H   H454      1.0  0.92950  0.02570  0.69990  1.0000
  H   H455      1.0  0.07050  0.47430  0.19990  1.0000
  H   H456      1.0  0.57050  0.52570  0.30010  1.0000
  H   H457      1.0  0.94990  0.22430  0.17950  1.0000
  H   H458      1.0  0.05010  0.27570  0.67950  1.0000
  H   H459      1.0  0.55010  0.72430  0.82050  1.0000
  H   H460      1.0  0.44990  0.77570  0.32050  1.0000
  H   H461      1.0  0.67950  0.94990  0.72430  1.0000
  H   H462      1.0  0.17950  0.05010  0.77570  1.0000
  H   H463      1.0  0.32050  0.55010  0.22430  1.0000
  H   H464      1.0  0.82050  0.44990  0.27570  1.0000
  H   H465      1.0  0.22430  0.67950  0.44990  1.0000
  H   H466      1.0  0.27570  0.17950  0.55010  1.0000
  H   H467      1.0  0.72430  0.32050  0.05010  1.0000
  H   H468      1.0  0.77570  0.82050  0.94990  1.0000
  H   H469      1.0  0.97430  0.19990  0.57050  1.0000
  H   H470      1.0  0.02570  0.30010  0.07050  1.0000
  H   H471      1.0  0.47430  0.80010  0.92950  1.0000
  H   H472      1.0  0.52570  0.69990  0.42950  1.0000
  H   H473      1.0  0.69990  0.92950  0.02570  1.0000
  H   H474      1.0  0.80010  0.42950  0.97430  1.0000
  H   H475      1.0  0.30010  0.57050  0.52570  1.0000
  H   H476      1.0  0.19990  0.07050  0.47430  1.0000
  H   H477      1.0  0.42950  0.47430  0.30010  1.0000
  H   H478      1.0  0.92950  0.52570  0.19990  1.0000
  H   H479      1.0  0.07050  0.97430  0.69990  1.0000
  H   H480      1.0  0.57050  0.02570  0.80010  1.0000
  C   C1345     1.0  0.40901  0.73953  0.16800  1.0000
  C   C1346     1.0  0.59099  0.76047  0.66800  1.0000
  C   C1347     1.0  0.09099  0.23953  0.83200  1.0000
  C   C1348     1.0  0.90901  0.26047  0.33200  1.0000
  C   C1349     1.0  0.16800  0.40901  0.73953  1.0000
  C   C1350     1.0  0.66800  0.59099  0.76047  1.0000
  C   C1351     1.0  0.83200  0.09099  0.23953  1.0000
  C   C1352     1.0  0.33200  0.90901  0.26047  1.0000
  C   C1353     1.0  0.73953  0.16800  0.40901  1.0000
  C   C1354     1.0  0.76047  0.66800  0.59099  1.0000
  C   C1355     1.0  0.23953  0.83200  0.09099  1.0000
  C   C1356     1.0  0.26047  0.33200  0.90901  1.0000
  C   C1357     1.0  0.48953  0.65901  0.58200  1.0000
  C   C1358     1.0  0.51047  0.84099  0.08200  1.0000
  C   C1359     1.0  0.98953  0.34099  0.91800  1.0000
  C   C1360     1.0  0.01047  0.15901  0.41800  1.0000
  C   C1361     1.0  0.15901  0.41800  0.01047  1.0000
  C   C1362     1.0  0.34099  0.91800  0.98953  1.0000
  C   C1363     1.0  0.84099  0.08200  0.51047  1.0000
  C   C1364     1.0  0.65901  0.58200  0.48953  1.0000
  C   C1365     1.0  0.91800  0.98953  0.34099  1.0000
  C   C1366     1.0  0.41800  0.01047  0.15901  1.0000
  C   C1367     1.0  0.58200  0.48953  0.65901  1.0000
  C   C1368     1.0  0.08200  0.51047  0.84099  1.0000
  C   C1369     1.0  0.40901  0.23953  0.66800  1.0000
  C   C1370     1.0  0.59099  0.26047  0.16800  1.0000
  C   C1371     1.0  0.09099  0.73953  0.33200  1.0000
  C   C1372     1.0  0.90901  0.76047  0.83200  1.0000
  C   C1373     1.0  0.16800  0.90901  0.23953  1.0000
  C   C1374     1.0  0.66800  0.09099  0.26047  1.0000
  C   C1375     1.0  0.83200  0.59099  0.73953  1.0000
  C   C1376     1.0  0.33200  0.40901  0.76047  1.0000
  C   C1377     1.0  0.73953  0.66800  0.90901  1.0000
  C   C1378     1.0  0.76047  0.16800  0.09099  1.0000
  C   C1379     1.0  0.23953  0.33200  0.59099  1.0000
  C   C1380     1.0  0.26047  0.83200  0.40901  1.0000
  C   C1381     1.0  0.48953  0.15901  0.08200  1.0000
  C   C1382     1.0  0.51047  0.34099  0.58200  1.0000
  C   C1383     1.0  0.98953  0.84099  0.41800  1.0000
  C   C1384     1.0  0.01047  0.65901  0.91800  1.0000
  C   C1385     1.0  0.15901  0.91800  0.51047  1.0000
  C   C1386     1.0  0.34099  0.41800  0.48953  1.0000
  C   C1387     1.0  0.84099  0.58200  0.01047  1.0000
  C   C1388     1.0  0.65901  0.08200  0.98953  1.0000
  C   C1389     1.0  0.91800  0.48953  0.84099  1.0000
  C   C1390     1.0  0.41800  0.51047  0.65901  1.0000
  C   C1391     1.0  0.58200  0.98953  0.15901  1.0000
  C   C1392     1.0  0.08200  0.01047  0.34099  1.0000
  C   C1393     1.0  0.90901  0.73953  0.66800  1.0000
  C   C1394     1.0  0.09099  0.76047  0.16800  1.0000
  C   C1395     1.0  0.59099  0.23953  0.33200  1.0000
  C   C1396     1.0  0.40901  0.26047  0.83200  1.0000
  C   C1397     1.0  0.66800  0.40901  0.23953  1.0000
  C   C1398     1.0  0.16800  0.59099  0.26047  1.0000
  C   C1399     1.0  0.33200  0.09099  0.73953  1.0000
  C   C1400     1.0  0.83200  0.90901  0.76047  1.0000
  C   C1401     1.0  0.23953  0.16800  0.90901  1.0000
  C   C1402     1.0  0.26047  0.66800  0.09099  1.0000
  C   C1403     1.0  0.73953  0.83200  0.59099  1.0000
  C   C1404     1.0  0.76047  0.33200  0.40901  1.0000
  C   C1405     1.0  0.98953  0.65901  0.08200  1.0000
  C   C1406     1.0  0.01047  0.84099  0.58200  1.0000
  C   C1407     1.0  0.48953  0.34099  0.41800  1.0000
  C   C1408     1.0  0.51047  0.15901  0.91800  1.0000
  C   C1409     1.0  0.65901  0.41800  0.51047  1.0000
  C   C1410     1.0  0.84099  0.91800  0.48953  1.0000
  C   C1411     1.0  0.34099  0.08200  0.01047  1.0000
  C   C1412     1.0  0.15901  0.58200  0.98953  1.0000
  C   C1413     1.0  0.41800  0.98953  0.84099  1.0000
  C   C1414     1.0  0.91800  0.01047  0.65901  1.0000
  C   C1415     1.0  0.08200  0.48953  0.15901  1.0000
  C   C1416     1.0  0.58200  0.51047  0.34099  1.0000
  C   C1417     1.0  0.90901  0.23953  0.16800  1.0000
  C   C1418     1.0  0.09099  0.26047  0.66800  1.0000
  C   C1419     1.0  0.59099  0.73953  0.83200  1.0000
  C   C1420     1.0  0.40901  0.76047  0.33200  1.0000
  C   C1421     1.0  0.66800  0.90901  0.73953  1.0000
  C   C1422     1.0  0.16800  0.09099  0.76047  1.0000
  C   C1423     1.0  0.33200  0.59099  0.23953  1.0000
  C   C1424     1.0  0.83200  0.40901  0.26047  1.0000
  C   C1425     1.0  0.23953  0.66800  0.40901  1.0000
  C   C1426     1.0  0.26047  0.16800  0.59099  1.0000
  C   C1427     1.0  0.73953  0.33200  0.09099  1.0000
  C   C1428     1.0  0.76047  0.83200  0.90901  1.0000
  C   C1429     1.0  0.98953  0.15901  0.58200  1.0000
  C   C1430     1.0  0.01047  0.34099  0.08200  1.0000
  C   C1431     1.0  0.48953  0.84099  0.91800  1.0000
  C   C1432     1.0  0.51047  0.65901  0.41800  1.0000
  C   C1433     1.0  0.65901  0.91800  0.01047  1.0000
  C   C1434     1.0  0.84099  0.41800  0.98953  1.0000
  C   C1435     1.0  0.34099  0.58200  0.51047  1.0000
  C   C1436     1.0  0.15901  0.08200  0.48953  1.0000
  C   C1437     1.0  0.41800  0.48953  0.34099  1.0000
  C   C1438     1.0  0.91800  0.51047  0.15901  1.0000
  C   C1439     1.0  0.08200  0.98953  0.65901  1.0000
  C   C1440     1.0  0.58200  0.01047  0.84099  1.0000
  C   C1441     1.0  0.38914  0.76273  0.17189  1.0000
  C   C1442     1.0  0.61086  0.73727  0.67189  1.0000
  C   C1443     1.0  0.11086  0.26273  0.82811  1.0000
  C   C1444     1.0  0.88914  0.23727  0.32811  1.0000
  C   C1445     1.0  0.17189  0.38914  0.76273  1.0000
  C   C1446     1.0  0.67189  0.61086  0.73727  1.0000
  C   C1447     1.0  0.82811  0.11086  0.26273  1.0000
  C   C1448     1.0  0.32811  0.88914  0.23727  1.0000
  C   C1449     1.0  0.76273  0.17189  0.38914  1.0000
  C   C1450     1.0  0.73727  0.67189  0.61086  1.0000
  C   C1451     1.0  0.26273  0.82811  0.11086  1.0000
  C   C1452     1.0  0.23727  0.32811  0.88914  1.0000
  C   C1453     1.0  0.51273  0.63914  0.57811  1.0000
  C   C1454     1.0  0.48727  0.86086  0.07811  1.0000
  C   C1455     1.0  0.01273  0.36086  0.92189  1.0000
  C   C1456     1.0  0.98727  0.13914  0.42189  1.0000
  C   C1457     1.0  0.13914  0.42189  0.98727  1.0000
  C   C1458     1.0  0.36086  0.92189  0.01273  1.0000
  C   C1459     1.0  0.86086  0.07811  0.48727  1.0000
  C   C1460     1.0  0.63914  0.57811  0.51273  1.0000
  C   C1461     1.0  0.92189  0.01273  0.36086  1.0000
  C   C1462     1.0  0.42189  0.98727  0.13914  1.0000
  C   C1463     1.0  0.57811  0.51273  0.63914  1.0000
  C   C1464     1.0  0.07811  0.48727  0.86086  1.0000
  C   C1465     1.0  0.38914  0.26273  0.67189  1.0000
  C   C1466     1.0  0.61086  0.23727  0.17189  1.0000
  C   C1467     1.0  0.11086  0.76273  0.32811  1.0000
  C   C1468     1.0  0.88914  0.73727  0.82811  1.0000
  C   C1469     1.0  0.17189  0.88914  0.26273  1.0000
  C   C1470     1.0  0.67189  0.11086  0.23727  1.0000
  C   C1471     1.0  0.82811  0.61086  0.76273  1.0000
  C   C1472     1.0  0.32811  0.38914  0.73727  1.0000
  C   C1473     1.0  0.76273  0.67189  0.88914  1.0000
  C   C1474     1.0  0.73727  0.17189  0.11086  1.0000
  C   C1475     1.0  0.26273  0.32811  0.61086  1.0000
  C   C1476     1.0  0.23727  0.82811  0.38914  1.0000
  C   C1477     1.0  0.51273  0.13914  0.07811  1.0000
  C   C1478     1.0  0.48727  0.36086  0.57811  1.0000
  C   C1479     1.0  0.01273  0.86086  0.42189  1.0000
  C   C1480     1.0  0.98727  0.63914  0.92189  1.0000
  C   C1481     1.0  0.13914  0.92189  0.48727  1.0000
  C   C1482     1.0  0.36086  0.42189  0.51273  1.0000
  C   C1483     1.0  0.86086  0.57811  0.98727  1.0000
  C   C1484     1.0  0.63914  0.07811  0.01273  1.0000
  C   C1485     1.0  0.92189  0.51273  0.86086  1.0000
  C   C1486     1.0  0.42189  0.48727  0.63914  1.0000
  C   C1487     1.0  0.57811  0.01273  0.13914  1.0000
  C   C1488     1.0  0.07811  0.98727  0.36086  1.0000
  C   C1489     1.0  0.88914  0.76273  0.67189  1.0000
  C   C1490     1.0  0.11086  0.73727  0.17189  1.0000
  C   C1491     1.0  0.61086  0.26273  0.32811  1.0000
  C   C1492     1.0  0.38914  0.23727  0.82811  1.0000
  C   C1493     1.0  0.67189  0.38914  0.26273  1.0000
  C   C1494     1.0  0.17189  0.61086  0.23727  1.0000
  C   C1495     1.0  0.32811  0.11086  0.76273  1.0000
  C   C1496     1.0  0.82811  0.88914  0.73727  1.0000
  C   C1497     1.0  0.26273  0.17189  0.88914  1.0000
  C   C1498     1.0  0.23727  0.67189  0.11086  1.0000
  C   C1499     1.0  0.76273  0.82811  0.61086  1.0000
  C   C1500     1.0  0.73727  0.32811  0.38914  1.0000
  C   C1501     1.0  0.01273  0.63914  0.07811  1.0000
  C   C1502     1.0  0.98727  0.86086  0.57811  1.0000
  C   C1503     1.0  0.51273  0.36086  0.42189  1.0000
  C   C1504     1.0  0.48727  0.13914  0.92189  1.0000
  C   C1505     1.0  0.63914  0.42189  0.48727  1.0000
  C   C1506     1.0  0.86086  0.92189  0.51273  1.0000
  C   C1507     1.0  0.36086  0.07811  0.98727  1.0000
  C   C1508     1.0  0.13914  0.57811  0.01273  1.0000
  C   C1509     1.0  0.42189  0.01273  0.86086  1.0000
  C   C1510     1.0  0.92189  0.98727  0.63914  1.0000
  C   C1511     1.0  0.07811  0.51273  0.13914  1.0000
  C   C1512     1.0  0.57811  0.48727  0.36086  1.0000
  C   C1513     1.0  0.88914  0.26273  0.17189  1.0000
  C   C1514     1.0  0.11086  0.23727  0.67189  1.0000
  C   C1515     1.0  0.61086  0.76273  0.82811  1.0000
  C   C1516     1.0  0.38914  0.73727  0.32811  1.0000
  C   C1517     1.0  0.67189  0.88914  0.76273  1.0000
  C   C1518     1.0  0.17189  0.11086  0.73727  1.0000
  C   C1519     1.0  0.32811  0.61086  0.26273  1.0000
  C   C1520     1.0  0.82811  0.38914  0.23727  1.0000
  C   C1521     1.0  0.26273  0.67189  0.38914  1.0000
  C   C1522     1.0  0.23727  0.17189  0.61086  1.0000
  C   C1523     1.0  0.76273  0.32811  0.11086  1.0000
  C   C1524     1.0  0.73727  0.82811  0.88914  1.0000
  C   C1525     1.0  0.01273  0.13914  0.57811  1.0000
  C   C1526     1.0  0.98727  0.36086  0.07811  1.0000
  C   C1527     1.0  0.51273  0.86086  0.92189  1.0000
  C   C1528     1.0  0.48727  0.63914  0.42189  1.0000
  C   C1529     1.0  0.63914  0.92189  0.98727  1.0000
  C   C1530     1.0  0.86086  0.42189  0.01273  1.0000
  C   C1531     1.0  0.36086  0.57811  0.48727  1.0000
  C   C1532     1.0  0.13914  0.07811  0.51273  1.0000
  C   C1533     1.0  0.42189  0.51273  0.36086  1.0000
  C   C1534     1.0  0.92189  0.48727  0.13914  1.0000
  C   C1535     1.0  0.07811  0.01273  0.63914  1.0000
  C   C1536     1.0  0.57811  0.98727  0.86086  1.0000
  H   H481      1.0  0.37050  0.76230  0.16220  1.0000
  H   H482      1.0  0.62950  0.73770  0.66220  1.0000
  H   H483      1.0  0.12950  0.26230  0.83780  1.0000
  H   H484      1.0  0.87050  0.23770  0.33780  1.0000
  H   H485      1.0  0.16220  0.37050  0.76230  1.0000
  H   H486      1.0  0.66220  0.62950  0.73770  1.0000
  H   H487      1.0  0.83780  0.12950  0.26230  1.0000
  H   H488      1.0  0.33780  0.87050  0.23770  1.0000
  H   H489      1.0  0.76230  0.16220  0.37050  1.0000
  H   H490      1.0  0.73770  0.66220  0.62950  1.0000
  H   H491      1.0  0.26230  0.83780  0.12950  1.0000
  H   H492      1.0  0.23770  0.33780  0.87050  1.0000
  H   H493      1.0  0.51230  0.62050  0.58780  1.0000
  H   H494      1.0  0.48770  0.87950  0.08780  1.0000
  H   H495      1.0  0.01230  0.37950  0.91220  1.0000
  H   H496      1.0  0.98770  0.12050  0.41220  1.0000
  H   H497      1.0  0.12050  0.41220  0.98770  1.0000
  H   H498      1.0  0.37950  0.91220  0.01230  1.0000
  H   H499      1.0  0.87950  0.08780  0.48770  1.0000
  H   H500      1.0  0.62050  0.58780  0.51230  1.0000
  H   H501      1.0  0.91220  0.01230  0.37950  1.0000
  H   H502      1.0  0.41220  0.98770  0.12050  1.0000
  H   H503      1.0  0.58780  0.51230  0.62050  1.0000
  H   H504      1.0  0.08780  0.48770  0.87950  1.0000
  H   H505      1.0  0.37050  0.26230  0.66220  1.0000
  H   H506      1.0  0.62950  0.23770  0.16220  1.0000
  H   H507      1.0  0.12950  0.76230  0.33780  1.0000
  H   H508      1.0  0.87050  0.73770  0.83780  1.0000
  H   H509      1.0  0.16220  0.87050  0.26230  1.0000
  H   H510      1.0  0.66220  0.12950  0.23770  1.0000
  H   H511      1.0  0.83780  0.62950  0.76230  1.0000
  H   H512      1.0  0.33780  0.37050  0.73770  1.0000
  H   H513      1.0  0.76230  0.66220  0.87050  1.0000
  H   H514      1.0  0.73770  0.16220  0.12950  1.0000
  H   H515      1.0  0.26230  0.33780  0.62950  1.0000
  H   H516      1.0  0.23770  0.83780  0.37050  1.0000
  H   H517      1.0  0.51230  0.12050  0.08780  1.0000
  H   H518      1.0  0.48770  0.37950  0.58780  1.0000
  H   H519      1.0  0.01230  0.87950  0.41220  1.0000
  H   H520      1.0  0.98770  0.62050  0.91220  1.0000
  H   H521      1.0  0.12050  0.91220  0.48770  1.0000
  H   H522      1.0  0.37950  0.41220  0.51230  1.0000
  H   H523      1.0  0.87950  0.58780  0.98770  1.0000
  H   H524      1.0  0.62050  0.08780  0.01230  1.0000
  H   H525      1.0  0.91220  0.51230  0.87950  1.0000
  H   H526      1.0  0.41220  0.48770  0.62050  1.0000
  H   H527      1.0  0.58780  0.01230  0.12050  1.0000
  H   H528      1.0  0.08780  0.98770  0.37950  1.0000
  H   H529      1.0  0.87050  0.76230  0.66220  1.0000
  H   H530      1.0  0.12950  0.73770  0.16220  1.0000
  H   H531      1.0  0.62950  0.26230  0.33780  1.0000
  H   H532      1.0  0.37050  0.23770  0.83780  1.0000
  H   H533      1.0  0.66220  0.37050  0.26230  1.0000
  H   H534      1.0  0.16220  0.62950  0.23770  1.0000
  H   H535      1.0  0.33780  0.12950  0.76230  1.0000
  H   H536      1.0  0.83780  0.87050  0.73770  1.0000
  H   H537      1.0  0.26230  0.16220  0.87050  1.0000
  H   H538      1.0  0.23770  0.66220  0.12950  1.0000
  H   H539      1.0  0.76230  0.83780  0.62950  1.0000
  H   H540      1.0  0.73770  0.33780  0.37050  1.0000
  H   H541      1.0  0.01230  0.62050  0.08780  1.0000
  H   H542      1.0  0.98770  0.87950  0.58780  1.0000
  H   H543      1.0  0.51230  0.37950  0.41220  1.0000
  H   H544      1.0  0.48770  0.12050  0.91220  1.0000
  H   H545      1.0  0.62050  0.41220  0.48770  1.0000
  H   H546      1.0  0.87950  0.91220  0.51230  1.0000
  H   H547      1.0  0.37950  0.08780  0.98770  1.0000
  H   H548      1.0  0.12050  0.58780  0.01230  1.0000
  H   H549      1.0  0.41220  0.01230  0.87950  1.0000
  H   H550      1.0  0.91220  0.98770  0.62050  1.0000
  H   H551      1.0  0.08780  0.51230  0.12050  1.0000
  H   H552      1.0  0.58780  0.48770  0.37950  1.0000
  H   H553      1.0  0.87050  0.26230  0.16220  1.0000
  H   H554      1.0  0.12950  0.23770  0.66220  1.0000
  H   H555      1.0  0.62950  0.76230  0.83780  1.0000
  H   H556      1.0  0.37050  0.73770  0.33780  1.0000
  H   H557      1.0  0.66220  0.87050  0.76230  1.0000
  H   H558      1.0  0.16220  0.12950  0.73770  1.0000
  H   H559      1.0  0.33780  0.62950  0.26230  1.0000
  H   H560      1.0  0.83780  0.37050  0.23770  1.0000
  H   H561      1.0  0.26230  0.66220  0.37050  1.0000
  H   H562      1.0  0.23770  0.16220  0.62950  1.0000
  H   H563      1.0  0.76230  0.33780  0.12950  1.0000
  H   H564      1.0  0.73770  0.83780  0.87050  1.0000
  H   H565      1.0  0.01230  0.12050  0.58780  1.0000
  H   H566      1.0  0.98770  0.37950  0.08780  1.0000
  H   H567      1.0  0.51230  0.87950  0.91220  1.0000
  H   H568      1.0  0.48770  0.62050  0.41220  1.0000
  H   H569      1.0  0.62050  0.91220  0.98770  1.0000
  H   H570      1.0  0.87950  0.41220  0.01230  1.0000
  H   H571      1.0  0.37950  0.58780  0.48770  1.0000
  H   H572      1.0  0.12050  0.08780  0.51230  1.0000
  H   H573      1.0  0.41220  0.51230  0.37950  1.0000
  H   H574      1.0  0.91220  0.48770  0.12050  1.0000
  H   H575      1.0  0.08780  0.01230  0.62050  1.0000
  H   H576      1.0  0.58780  0.98770  0.87950  1.0000
  C   C1537     1.0  0.47190  0.76370  0.21750  1.0000
  C   C1538     1.0  0.52810  0.73630  0.71750  1.0000
  C   C1539     1.0  0.02810  0.26370  0.78250  1.0000
  C   C1540     1.0  0.97190  0.23630  0.28250  1.0000
  C   C1541     1.0  0.21750  0.47190  0.76370  1.0000
  C   C1542     1.0  0.71750  0.52810  0.73630  1.0000
  C   C1543     1.0  0.78250  0.02810  0.26370  1.0000
  C   C1544     1.0  0.28250  0.97190  0.23630  1.0000
  C   C1545     1.0  0.76370  0.21750  0.47190  1.0000
  C   C1546     1.0  0.73630  0.71750  0.52810  1.0000
  C   C1547     1.0  0.26370  0.78250  0.02810  1.0000
  C   C1548     1.0  0.23630  0.28250  0.97190  1.0000
  C   C1549     1.0  0.51370  0.72190  0.53250  1.0000
  C   C1550     1.0  0.48630  0.77810  0.03250  1.0000
  C   C1551     1.0  0.01370  0.27810  0.96750  1.0000
  C   C1552     1.0  0.98630  0.22190  0.46750  1.0000
  C   C1553     1.0  0.22190  0.46750  0.98630  1.0000
  C   C1554     1.0  0.27810  0.96750  0.01370  1.0000
  C   C1555     1.0  0.77810  0.03250  0.48630  1.0000
  C   C1556     1.0  0.72190  0.53250  0.51370  1.0000
  C   C1557     1.0  0.96750  0.01370  0.27810  1.0000
  C   C1558     1.0  0.46750  0.98630  0.22190  1.0000
  C   C1559     1.0  0.53250  0.51370  0.72190  1.0000
  C   C1560     1.0  0.03250  0.48630  0.77810  1.0000
  C   C1561     1.0  0.47190  0.26370  0.71750  1.0000
  C   C1562     1.0  0.52810  0.23630  0.21750  1.0000
  C   C1563     1.0  0.02810  0.76370  0.28250  1.0000
  C   C1564     1.0  0.97190  0.73630  0.78250  1.0000
  C   C1565     1.0  0.21750  0.97190  0.26370  1.0000
  C   C1566     1.0  0.71750  0.02810  0.23630  1.0000
  C   C1567     1.0  0.78250  0.52810  0.76370  1.0000
  C   C1568     1.0  0.28250  0.47190  0.73630  1.0000
  C   C1569     1.0  0.76370  0.71750  0.97190  1.0000
  C   C1570     1.0  0.73630  0.21750  0.02810  1.0000
  C   C1571     1.0  0.26370  0.28250  0.52810  1.0000
  C   C1572     1.0  0.23630  0.78250  0.47190  1.0000
  C   C1573     1.0  0.51370  0.22190  0.03250  1.0000
  C   C1574     1.0  0.48630  0.27810  0.53250  1.0000
  C   C1575     1.0  0.01370  0.77810  0.46750  1.0000
  C   C1576     1.0  0.98630  0.72190  0.96750  1.0000
  C   C1577     1.0  0.22190  0.96750  0.48630  1.0000
  C   C1578     1.0  0.27810  0.46750  0.51370  1.0000
  C   C1579     1.0  0.77810  0.53250  0.98630  1.0000
  C   C1580     1.0  0.72190  0.03250  0.01370  1.0000
  C   C1581     1.0  0.96750  0.51370  0.77810  1.0000
  C   C1582     1.0  0.46750  0.48630  0.72190  1.0000
  C   C1583     1.0  0.53250  0.01370  0.22190  1.0000
  C   C1584     1.0  0.03250  0.98630  0.27810  1.0000
  C   C1585     1.0  0.97190  0.76370  0.71750  1.0000
  C   C1586     1.0  0.02810  0.73630  0.21750  1.0000
  C   C1587     1.0  0.52810  0.26370  0.28250  1.0000
  C   C1588     1.0  0.47190  0.23630  0.78250  1.0000
  C   C1589     1.0  0.71750  0.47190  0.26370  1.0000
  C   C1590     1.0  0.21750  0.52810  0.23630  1.0000
  C   C1591     1.0  0.28250  0.02810  0.76370  1.0000
  C   C1592     1.0  0.78250  0.97190  0.73630  1.0000
  C   C1593     1.0  0.26370  0.21750  0.97190  1.0000
  C   C1594     1.0  0.23630  0.71750  0.02810  1.0000
  C   C1595     1.0  0.76370  0.78250  0.52810  1.0000
  C   C1596     1.0  0.73630  0.28250  0.47190  1.0000
  C   C1597     1.0  0.01370  0.72190  0.03250  1.0000
  C   C1598     1.0  0.98630  0.77810  0.53250  1.0000
  C   C1599     1.0  0.51370  0.27810  0.46750  1.0000
  C   C1600     1.0  0.48630  0.22190  0.96750  1.0000
  C   C1601     1.0  0.72190  0.46750  0.48630  1.0000
  C   C1602     1.0  0.77810  0.96750  0.51370  1.0000
  C   C1603     1.0  0.27810  0.03250  0.98630  1.0000
  C   C1604     1.0  0.22190  0.53250  0.01370  1.0000
  C   C1605     1.0  0.46750  0.01370  0.77810  1.0000
  C   C1606     1.0  0.96750  0.98630  0.72190  1.0000
  C   C1607     1.0  0.03250  0.51370  0.22190  1.0000
  C   C1608     1.0  0.53250  0.48630  0.27810  1.0000
  C   C1609     1.0  0.97190  0.26370  0.21750  1.0000
  C   C1610     1.0  0.02810  0.23630  0.71750  1.0000
  C   C1611     1.0  0.52810  0.76370  0.78250  1.0000
  C   C1612     1.0  0.47190  0.73630  0.28250  1.0000
  C   C1613     1.0  0.71750  0.97190  0.76370  1.0000
  C   C1614     1.0  0.21750  0.02810  0.73630  1.0000
  C   C1615     1.0  0.28250  0.52810  0.26370  1.0000
  C   C1616     1.0  0.78250  0.47190  0.23630  1.0000
  C   C1617     1.0  0.26370  0.71750  0.47190  1.0000
  C   C1618     1.0  0.23630  0.21750  0.52810  1.0000
  C   C1619     1.0  0.76370  0.28250  0.02810  1.0000
  C   C1620     1.0  0.73630  0.78250  0.97190  1.0000
  C   C1621     1.0  0.01370  0.22190  0.53250  1.0000
  C   C1622     1.0  0.98630  0.27810  0.03250  1.0000
  C   C1623     1.0  0.51370  0.77810  0.96750  1.0000
  C   C1624     1.0  0.48630  0.72190  0.46750  1.0000
  C   C1625     1.0  0.72190  0.96750  0.98630  1.0000
  C   C1626     1.0  0.77810  0.46750  0.01370  1.0000
  C   C1627     1.0  0.27810  0.53250  0.48630  1.0000
  C   C1628     1.0  0.22190  0.03250  0.51370  1.0000
  C   C1629     1.0  0.46750  0.51370  0.27810  1.0000
  C   C1630     1.0  0.96750  0.48630  0.22190  1.0000
  C   C1631     1.0  0.03250  0.01370  0.72190  1.0000
  C   C1632     1.0  0.53250  0.98630  0.77810  1.0000
  C   C1633     1.0  0.39980  0.71460  0.14950  1.0000
  C   C1634     1.0  0.60020  0.78540  0.64950  1.0000
  C   C1635     1.0  0.10020  0.21460  0.85050  1.0000
  C   C1636     1.0  0.89980  0.28540  0.35050  1.0000
  C   C1637     1.0  0.14950  0.39980  0.71460  1.0000
  C   C1638     1.0  0.64950  0.60020  0.78540  1.0000
  C   C1639     1.0  0.85050  0.10020  0.21460  1.0000
  C   C1640     1.0  0.35050  0.89980  0.28540  1.0000
  C   C1641     1.0  0.71460  0.14950  0.39980  1.0000
  C   C1642     1.0  0.78540  0.64950  0.60020  1.0000
  C   C1643     1.0  0.21460  0.85050  0.10020  1.0000
  C   C1644     1.0  0.28540  0.35050  0.89980  1.0000
  C   C1645     1.0  0.46460  0.64980  0.60050  1.0000
  C   C1646     1.0  0.53540  0.85020  0.10050  1.0000
  C   C1647     1.0  0.96460  0.35020  0.89950  1.0000
  C   C1648     1.0  0.03540  0.14980  0.39950  1.0000
  C   C1649     1.0  0.14980  0.39950  0.03540  1.0000
  C   C1650     1.0  0.35020  0.89950  0.96460  1.0000
  C   C1651     1.0  0.85020  0.10050  0.53540  1.0000
  C   C1652     1.0  0.64980  0.60050  0.46460  1.0000
  C   C1653     1.0  0.89950  0.96460  0.35020  1.0000
  C   C1654     1.0  0.39950  0.03540  0.14980  1.0000
  C   C1655     1.0  0.60050  0.46460  0.64980  1.0000
  C   C1656     1.0  0.10050  0.53540  0.85020  1.0000
  C   C1657     1.0  0.39980  0.21460  0.64950  1.0000
  C   C1658     1.0  0.60020  0.28540  0.14950  1.0000
  C   C1659     1.0  0.10020  0.71460  0.35050  1.0000
  C   C1660     1.0  0.89980  0.78540  0.85050  1.0000
  C   C1661     1.0  0.14950  0.89980  0.21460  1.0000
  C   C1662     1.0  0.64950  0.10020  0.28540  1.0000
  C   C1663     1.0  0.85050  0.60020  0.71460  1.0000
  C   C1664     1.0  0.35050  0.39980  0.78540  1.0000
  C   C1665     1.0  0.71460  0.64950  0.89980  1.0000
  C   C1666     1.0  0.78540  0.14950  0.10020  1.0000
  C   C1667     1.0  0.21460  0.35050  0.60020  1.0000
  C   C1668     1.0  0.28540  0.85050  0.39980  1.0000
  C   C1669     1.0  0.46460  0.14980  0.10050  1.0000
  C   C1670     1.0  0.53540  0.35020  0.60050  1.0000
  C   C1671     1.0  0.96460  0.85020  0.39950  1.0000
  C   C1672     1.0  0.03540  0.64980  0.89950  1.0000
  C   C1673     1.0  0.14980  0.89950  0.53540  1.0000
  C   C1674     1.0  0.35020  0.39950  0.46460  1.0000
  C   C1675     1.0  0.85020  0.60050  0.03540  1.0000
  C   C1676     1.0  0.64980  0.10050  0.96460  1.0000
  C   C1677     1.0  0.89950  0.46460  0.85020  1.0000
  C   C1678     1.0  0.39950  0.53540  0.64980  1.0000
  C   C1679     1.0  0.60050  0.96460  0.14980  1.0000
  C   C1680     1.0  0.10050  0.03540  0.35020  1.0000
  C   C1681     1.0  0.89980  0.71460  0.64950  1.0000
  C   C1682     1.0  0.10020  0.78540  0.14950  1.0000
  C   C1683     1.0  0.60020  0.21460  0.35050  1.0000
  C   C1684     1.0  0.39980  0.28540  0.85050  1.0000
  C   C1685     1.0  0.64950  0.39980  0.21460  1.0000
  C   C1686     1.0  0.14950  0.60020  0.28540  1.0000
  C   C1687     1.0  0.35050  0.10020  0.71460  1.0000
  C   C1688     1.0  0.85050  0.89980  0.78540  1.0000
  C   C1689     1.0  0.21460  0.14950  0.89980  1.0000
  C   C1690     1.0  0.28540  0.64950  0.10020  1.0000
  C   C1691     1.0  0.71460  0.85050  0.60020  1.0000
  C   C1692     1.0  0.78540  0.35050  0.39980  1.0000
  C   C1693     1.0  0.96460  0.64980  0.10050  1.0000
  C   C1694     1.0  0.03540  0.85020  0.60050  1.0000
  C   C1695     1.0  0.46460  0.35020  0.39950  1.0000
  C   C1696     1.0  0.53540  0.14980  0.89950  1.0000
  C   C1697     1.0  0.64980  0.39950  0.53540  1.0000
  C   C1698     1.0  0.85020  0.89950  0.46460  1.0000
  C   C1699     1.0  0.35020  0.10050  0.03540  1.0000
  C   C1700     1.0  0.14980  0.60050  0.96460  1.0000
  C   C1701     1.0  0.39950  0.96460  0.85020  1.0000
  C   C1702     1.0  0.89950  0.03540  0.64980  1.0000
  C   C1703     1.0  0.10050  0.46460  0.14980  1.0000
  C   C1704     1.0  0.60050  0.53540  0.35020  1.0000
  C   C1705     1.0  0.89980  0.21460  0.14950  1.0000
  C   C1706     1.0  0.10020  0.28540  0.64950  1.0000
  C   C1707     1.0  0.60020  0.71460  0.85050  1.0000
  C   C1708     1.0  0.39980  0.78540  0.35050  1.0000
  C   C1709     1.0  0.64950  0.89980  0.71460  1.0000
  C   C1710     1.0  0.14950  0.10020  0.78540  1.0000
  C   C1711     1.0  0.35050  0.60020  0.21460  1.0000
  C   C1712     1.0  0.85050  0.39980  0.28540  1.0000
  C   C1713     1.0  0.21460  0.64950  0.39980  1.0000
  C   C1714     1.0  0.28540  0.14950  0.60020  1.0000
  C   C1715     1.0  0.71460  0.35050  0.10020  1.0000
  C   C1716     1.0  0.78540  0.85050  0.89980  1.0000
  C   C1717     1.0  0.96460  0.14980  0.60050  1.0000
  C   C1718     1.0  0.03540  0.35020  0.10050  1.0000
  C   C1719     1.0  0.46460  0.85020  0.89950  1.0000
  C   C1720     1.0  0.53540  0.64980  0.39950  1.0000
  C   C1721     1.0  0.64980  0.89950  0.03540  1.0000
  C   C1722     1.0  0.85020  0.39950  0.96460  1.0000
  C   C1723     1.0  0.35020  0.60050  0.53540  1.0000
  C   C1724     1.0  0.14980  0.10050  0.46460  1.0000
  C   C1725     1.0  0.39950  0.46460  0.35020  1.0000
  C   C1726     1.0  0.89950  0.53540  0.14980  1.0000
  C   C1727     1.0  0.10050  0.96460  0.64980  1.0000
  C   C1728     1.0  0.60050  0.03540  0.85020  1.0000
  N   N1        1.0  0.56960  0.60607  0.06860  1.0000
  N   N2        1.0  0.43040  0.89393  0.56860  1.0000
  N   N3        1.0  0.93040  0.10607  0.93140  1.0000
  N   N4        1.0  0.06960  0.39393  0.43140  1.0000
  N   N5        1.0  0.06860  0.56960  0.60607  1.0000
  N   N6        1.0  0.56860  0.43040  0.89393  1.0000
  N   N7        1.0  0.93140  0.93040  0.10607  1.0000
  N   N8        1.0  0.43140  0.06960  0.39393  1.0000
  N   N9        1.0  0.60607  0.06860  0.56960  1.0000
  N   N10       1.0  0.89393  0.56860  0.43040  1.0000
  N   N11       1.0  0.10607  0.93140  0.93040  1.0000
  N   N12       1.0  0.39393  0.43140  0.06960  1.0000
  N   N13       1.0  0.35607  0.81960  0.68140  1.0000
  N   N14       1.0  0.64393  0.68040  0.18140  1.0000
  N   N15       1.0  0.85607  0.18040  0.81860  1.0000
  N   N16       1.0  0.14393  0.31960  0.31860  1.0000
  N   N17       1.0  0.31960  0.31860  0.14393  1.0000
  N   N18       1.0  0.18040  0.81860  0.85607  1.0000
  N   N19       1.0  0.68040  0.18140  0.64393  1.0000
  N   N20       1.0  0.81960  0.68140  0.35607  1.0000
  N   N21       1.0  0.81860  0.85607  0.18040  1.0000
  N   N22       1.0  0.31860  0.14393  0.31960  1.0000
  N   N23       1.0  0.68140  0.35607  0.81960  1.0000
  N   N24       1.0  0.18140  0.64393  0.68040  1.0000
  N   N25       1.0  0.56960  0.10607  0.56860  1.0000
  N   N26       1.0  0.43040  0.39393  0.06860  1.0000
  N   N27       1.0  0.93040  0.60607  0.43140  1.0000
  N   N28       1.0  0.06960  0.89393  0.93140  1.0000
  N   N29       1.0  0.06860  0.06960  0.10607  1.0000
  N   N30       1.0  0.56860  0.93040  0.39393  1.0000
  N   N31       1.0  0.93140  0.43040  0.60607  1.0000
  N   N32       1.0  0.43140  0.56960  0.89393  1.0000
  N   N33       1.0  0.60607  0.56860  0.06960  1.0000
  N   N34       1.0  0.89393  0.06860  0.93040  1.0000
  N   N35       1.0  0.10607  0.43140  0.43040  1.0000
  N   N36       1.0  0.39393  0.93140  0.56960  1.0000
  N   N37       1.0  0.35607  0.31960  0.18140  1.0000
  N   N38       1.0  0.64393  0.18040  0.68140  1.0000
  N   N39       1.0  0.85607  0.68040  0.31860  1.0000
  N   N40       1.0  0.14393  0.81960  0.81860  1.0000
  N   N41       1.0  0.31960  0.81860  0.64393  1.0000
  N   N42       1.0  0.18040  0.31860  0.35607  1.0000
  N   N43       1.0  0.68040  0.68140  0.14393  1.0000
  N   N44       1.0  0.81960  0.18140  0.85607  1.0000
  N   N45       1.0  0.81860  0.35607  0.68040  1.0000
  N   N46       1.0  0.31860  0.64393  0.81960  1.0000
  N   N47       1.0  0.68140  0.85607  0.31960  1.0000
  N   N48       1.0  0.18140  0.14393  0.18040  1.0000
  N   N49       1.0  0.06960  0.60607  0.56860  1.0000
  N   N50       1.0  0.93040  0.89393  0.06860  1.0000
  N   N51       1.0  0.43040  0.10607  0.43140  1.0000
  N   N52       1.0  0.56960  0.39393  0.93140  1.0000
  N   N53       1.0  0.56860  0.56960  0.10607  1.0000
  N   N54       1.0  0.06860  0.43040  0.39393  1.0000
  N   N55       1.0  0.43140  0.93040  0.60607  1.0000
  N   N56       1.0  0.93140  0.06960  0.89393  1.0000
  N   N57       1.0  0.10607  0.06860  0.06960  1.0000
  N   N58       1.0  0.39393  0.56860  0.93040  1.0000
  N   N59       1.0  0.60607  0.93140  0.43040  1.0000
  N   N60       1.0  0.89393  0.43140  0.56960  1.0000
  N   N61       1.0  0.85607  0.81960  0.18140  1.0000
  N   N62       1.0  0.14393  0.68040  0.68140  1.0000
  N   N63       1.0  0.35607  0.18040  0.31860  1.0000
  N   N64       1.0  0.64393  0.31960  0.81860  1.0000
  N   N65       1.0  0.81960  0.31860  0.64393  1.0000
  N   N66       1.0  0.68040  0.81860  0.35607  1.0000
  N   N67       1.0  0.18040  0.18140  0.14393  1.0000
  N   N68       1.0  0.31960  0.68140  0.85607  1.0000
  N   N69       1.0  0.31860  0.85607  0.68040  1.0000
  N   N70       1.0  0.81860  0.14393  0.81960  1.0000
  N   N71       1.0  0.18140  0.35607  0.31960  1.0000
  N   N72       1.0  0.68140  0.64393  0.18040  1.0000
  N   N73       1.0  0.06960  0.10607  0.06860  1.0000
  N   N74       1.0  0.93040  0.39393  0.56860  1.0000
  N   N75       1.0  0.43040  0.60607  0.93140  1.0000
  N   N76       1.0  0.56960  0.89393  0.43140  1.0000
  N   N77       1.0  0.56860  0.06960  0.60607  1.0000
  N   N78       1.0  0.06860  0.93040  0.89393  1.0000
  N   N79       1.0  0.43140  0.43040  0.10607  1.0000
  N   N80       1.0  0.93140  0.56960  0.39393  1.0000
  N   N81       1.0  0.10607  0.56860  0.56960  1.0000
  N   N82       1.0  0.39393  0.06860  0.43040  1.0000
  N   N83       1.0  0.60607  0.43140  0.93040  1.0000
  N   N84       1.0  0.89393  0.93140  0.06960  1.0000
  N   N85       1.0  0.85607  0.31960  0.68140  1.0000
  N   N86       1.0  0.14393  0.18040  0.18140  1.0000
  N   N87       1.0  0.35607  0.68040  0.81860  1.0000
  N   N88       1.0  0.64393  0.81960  0.31860  1.0000
  N   N89       1.0  0.81960  0.81860  0.14393  1.0000
  N   N90       1.0  0.68040  0.31860  0.85607  1.0000
  N   N91       1.0  0.18040  0.68140  0.64393  1.0000
  N   N92       1.0  0.31960  0.18140  0.35607  1.0000
  N   N93       1.0  0.31860  0.35607  0.18040  1.0000
  N   N94       1.0  0.81860  0.64393  0.31960  1.0000
  N   N95       1.0  0.18140  0.85607  0.81960  1.0000
  N   N96       1.0  0.68140  0.14393  0.68040  1.0000
  N   N97       1.0  0.53312  0.60650  0.10380  1.0000
  N   N98       1.0  0.46688  0.89350  0.60380  1.0000
  N   N99       1.0  0.96688  0.10650  0.89620  1.0000
  N   N100      1.0  0.03312  0.39350  0.39620  1.0000
  N   N101      1.0  0.10380  0.53312  0.60650  1.0000
  N   N102      1.0  0.60380  0.46688  0.89350  1.0000
  N   N103      1.0  0.89620  0.96688  0.10650  1.0000
  N   N104      1.0  0.39620  0.03312  0.39350  1.0000
  N   N105      1.0  0.60650  0.10380  0.53312  1.0000
  N   N106      1.0  0.89350  0.60380  0.46688  1.0000
  N   N107      1.0  0.10650  0.89620  0.96688  1.0000
  N   N108      1.0  0.39350  0.39620  0.03312  1.0000
  N   N109      1.0  0.35650  0.78312  0.64620  1.0000
  N   N110      1.0  0.64350  0.71688  0.14620  1.0000
  N   N111      1.0  0.85650  0.21688  0.85380  1.0000
  N   N112      1.0  0.14350  0.28312  0.35380  1.0000
  N   N113      1.0  0.28312  0.35380  0.14350  1.0000
  N   N114      1.0  0.21688  0.85380  0.85650  1.0000
  N   N115      1.0  0.71688  0.14620  0.64350  1.0000
  N   N116      1.0  0.78312  0.64620  0.35650  1.0000
  N   N117      1.0  0.85380  0.85650  0.21688  1.0000
  N   N118      1.0  0.35380  0.14350  0.28312  1.0000
  N   N119      1.0  0.64620  0.35650  0.78312  1.0000
  N   N120      1.0  0.14620  0.64350  0.71688  1.0000
  N   N121      1.0  0.53312  0.10650  0.60380  1.0000
  N   N122      1.0  0.46688  0.39350  0.10380  1.0000
  N   N123      1.0  0.96688  0.60650  0.39620  1.0000
  N   N124      1.0  0.03312  0.89350  0.89620  1.0000
  N   N125      1.0  0.10380  0.03312  0.10650  1.0000
  N   N126      1.0  0.60380  0.96688  0.39350  1.0000
  N   N127      1.0  0.89620  0.46688  0.60650  1.0000
  N   N128      1.0  0.39620  0.53312  0.89350  1.0000
  N   N129      1.0  0.60650  0.60380  0.03312  1.0000
  N   N130      1.0  0.89350  0.10380  0.96688  1.0000
  N   N131      1.0  0.10650  0.39620  0.46688  1.0000
  N   N132      1.0  0.39350  0.89620  0.53312  1.0000
  N   N133      1.0  0.35650  0.28312  0.14620  1.0000
  N   N134      1.0  0.64350  0.21688  0.64620  1.0000
  N   N135      1.0  0.85650  0.71688  0.35380  1.0000
  N   N136      1.0  0.14350  0.78312  0.85380  1.0000
  N   N137      1.0  0.28312  0.85380  0.64350  1.0000
  N   N138      1.0  0.21688  0.35380  0.35650  1.0000
  N   N139      1.0  0.71688  0.64620  0.14350  1.0000
  N   N140      1.0  0.78312  0.14620  0.85650  1.0000
  N   N141      1.0  0.85380  0.35650  0.71688  1.0000
  N   N142      1.0  0.35380  0.64350  0.78312  1.0000
  N   N143      1.0  0.64620  0.85650  0.28312  1.0000
  N   N144      1.0  0.14620  0.14350  0.21688  1.0000
  N   N145      1.0  0.03312  0.60650  0.60380  1.0000
  N   N146      1.0  0.96688  0.89350  0.10380  1.0000
  N   N147      1.0  0.46688  0.10650  0.39620  1.0000
  N   N148      1.0  0.53312  0.39350  0.89620  1.0000
  N   N149      1.0  0.60380  0.53312  0.10650  1.0000
  N   N150      1.0  0.10380  0.46688  0.39350  1.0000
  N   N151      1.0  0.39620  0.96688  0.60650  1.0000
  N   N152      1.0  0.89620  0.03312  0.89350  1.0000
  N   N153      1.0  0.10650  0.10380  0.03312  1.0000
  N   N154      1.0  0.39350  0.60380  0.96688  1.0000
  N   N155      1.0  0.60650  0.89620  0.46688  1.0000
  N   N156      1.0  0.89350  0.39620  0.53312  1.0000
  N   N157      1.0  0.85650  0.78312  0.14620  1.0000
  N   N158      1.0  0.14350  0.71688  0.64620  1.0000
  N   N159      1.0  0.35650  0.21688  0.35380  1.0000
  N   N160      1.0  0.64350  0.28312  0.85380  1.0000
  N   N161      1.0  0.78312  0.35380  0.64350  1.0000
  N   N162      1.0  0.71688  0.85380  0.35650  1.0000
  N   N163      1.0  0.21688  0.14620  0.14350  1.0000
  N   N164      1.0  0.28312  0.64620  0.85650  1.0000
  N   N165      1.0  0.35380  0.85650  0.71688  1.0000
  N   N166      1.0  0.85380  0.14350  0.78312  1.0000
  N   N167      1.0  0.14620  0.35650  0.28312  1.0000
  N   N168      1.0  0.64620  0.64350  0.21688  1.0000
  N   N169      1.0  0.03312  0.10650  0.10380  1.0000
  N   N170      1.0  0.96688  0.39350  0.60380  1.0000
  N   N171      1.0  0.46688  0.60650  0.89620  1.0000
  N   N172      1.0  0.53312  0.89350  0.39620  1.0000
  N   N173      1.0  0.60380  0.03312  0.60650  1.0000
  N   N174      1.0  0.10380  0.96688  0.89350  1.0000
  N   N175      1.0  0.39620  0.46688  0.10650  1.0000
  N   N176      1.0  0.89620  0.53312  0.39350  1.0000
  N   N177      1.0  0.10650  0.60380  0.53312  1.0000
  N   N178      1.0  0.39350  0.10380  0.46688  1.0000
  N   N179      1.0  0.60650  0.39620  0.96688  1.0000
  N   N180      1.0  0.89350  0.89620  0.03312  1.0000
  N   N181      1.0  0.85650  0.28312  0.64620  1.0000
  N   N182      1.0  0.14350  0.21688  0.14620  1.0000
  N   N183      1.0  0.35650  0.71688  0.85380  1.0000
  N   N184      1.0  0.64350  0.78312  0.35380  1.0000
  N   N185      1.0  0.78312  0.85380  0.14350  1.0000
  N   N186      1.0  0.71688  0.35380  0.85650  1.0000
  N   N187      1.0  0.21688  0.64620  0.64350  1.0000
  N   N188      1.0  0.28312  0.14620  0.35650  1.0000
  N   N189      1.0  0.35380  0.35650  0.21688  1.0000
  N   N190      1.0  0.85380  0.64350  0.28312  1.0000
  N   N191      1.0  0.14620  0.85650  0.78312  1.0000
  N   N192      1.0  0.64620  0.14350  0.71688  1.0000
  H   H577      1.0  0.52750  0.62260  0.09440  1.0000
  H   H578      1.0  0.47250  0.87740  0.59440  1.0000
  H   H579      1.0  0.97250  0.12260  0.90560  1.0000
  H   H580      1.0  0.02750  0.37740  0.40560  1.0000
  H   H581      1.0  0.09440  0.52750  0.62260  1.0000
  H   H582      1.0  0.59440  0.47250  0.87740  1.0000
  H   H583      1.0  0.90560  0.97250  0.12260  1.0000
  H   H584      1.0  0.40560  0.02750  0.37740  1.0000
  H   H585      1.0  0.62260  0.09440  0.52750  1.0000
  H   H586      1.0  0.87740  0.59440  0.47250  1.0000
  H   H587      1.0  0.12260  0.90560  0.97250  1.0000
  H   H588      1.0  0.37740  0.40560  0.02750  1.0000
  H   H589      1.0  0.37260  0.77750  0.65560  1.0000
  H   H590      1.0  0.62740  0.72250  0.15560  1.0000
  H   H591      1.0  0.87260  0.22250  0.84440  1.0000
  H   H592      1.0  0.12740  0.27750  0.34440  1.0000
  H   H593      1.0  0.27750  0.34440  0.12740  1.0000
  H   H594      1.0  0.22250  0.84440  0.87260  1.0000
  H   H595      1.0  0.72250  0.15560  0.62740  1.0000
  H   H596      1.0  0.77750  0.65560  0.37260  1.0000
  H   H597      1.0  0.84440  0.87260  0.22250  1.0000
  H   H598      1.0  0.34440  0.12740  0.27750  1.0000
  H   H599      1.0  0.65560  0.37260  0.77750  1.0000
  H   H600      1.0  0.15560  0.62740  0.72250  1.0000
  H   H601      1.0  0.52750  0.12260  0.59440  1.0000
  H   H602      1.0  0.47250  0.37740  0.09440  1.0000
  H   H603      1.0  0.97250  0.62260  0.40560  1.0000
  H   H604      1.0  0.02750  0.87740  0.90560  1.0000
  H   H605      1.0  0.09440  0.02750  0.12260  1.0000
  H   H606      1.0  0.59440  0.97250  0.37740  1.0000
  H   H607      1.0  0.90560  0.47250  0.62260  1.0000
  H   H608      1.0  0.40560  0.52750  0.87740  1.0000
  H   H609      1.0  0.62260  0.59440  0.02750  1.0000
  H   H610      1.0  0.87740  0.09440  0.97250  1.0000
  H   H611      1.0  0.12260  0.40560  0.47250  1.0000
  H   H612      1.0  0.37740  0.90560  0.52750  1.0000
  H   H613      1.0  0.37260  0.27750  0.15560  1.0000
  H   H614      1.0  0.62740  0.22250  0.65560  1.0000
  H   H615      1.0  0.87260  0.72250  0.34440  1.0000
  H   H616      1.0  0.12740  0.77750  0.84440  1.0000
  H   H617      1.0  0.27750  0.84440  0.62740  1.0000
  H   H618      1.0  0.22250  0.34440  0.37260  1.0000
  H   H619      1.0  0.72250  0.65560  0.12740  1.0000
  H   H620      1.0  0.77750  0.15560  0.87260  1.0000
  H   H621      1.0  0.84440  0.37260  0.72250  1.0000
  H   H622      1.0  0.34440  0.62740  0.77750  1.0000
  H   H623      1.0  0.65560  0.87260  0.27750  1.0000
  H   H624      1.0  0.15560  0.12740  0.22250  1.0000
  H   H625      1.0  0.02750  0.62260  0.59440  1.0000
  H   H626      1.0  0.97250  0.87740  0.09440  1.0000
  H   H627      1.0  0.47250  0.12260  0.40560  1.0000
  H   H628      1.0  0.52750  0.37740  0.90560  1.0000
  H   H629      1.0  0.59440  0.52750  0.12260  1.0000
  H   H630      1.0  0.09440  0.47250  0.37740  1.0000
  H   H631      1.0  0.40560  0.97250  0.62260  1.0000
  H   H632      1.0  0.90560  0.02750  0.87740  1.0000
  H   H633      1.0  0.12260  0.09440  0.02750  1.0000
  H   H634      1.0  0.37740  0.59440  0.97250  1.0000
  H   H635      1.0  0.62260  0.90560  0.47250  1.0000
  H   H636      1.0  0.87740  0.40560  0.52750  1.0000
  H   H637      1.0  0.87260  0.77750  0.15560  1.0000
  H   H638      1.0  0.12740  0.72250  0.65560  1.0000
  H   H639      1.0  0.37260  0.22250  0.34440  1.0000
  H   H640      1.0  0.62740  0.27750  0.84440  1.0000
  H   H641      1.0  0.77750  0.34440  0.62740  1.0000
  H   H642      1.0  0.72250  0.84440  0.37260  1.0000
  H   H643      1.0  0.22250  0.15560  0.12740  1.0000
  H   H644      1.0  0.27750  0.65560  0.87260  1.0000
  H   H645      1.0  0.34440  0.87260  0.72250  1.0000
  H   H646      1.0  0.84440  0.12740  0.77750  1.0000
  H   H647      1.0  0.15560  0.37260  0.27750  1.0000
  H   H648      1.0  0.65560  0.62740  0.22250  1.0000
  H   H649      1.0  0.02750  0.12260  0.09440  1.0000
  H   H650      1.0  0.97250  0.37740  0.59440  1.0000
  H   H651      1.0  0.47250  0.62260  0.90560  1.0000
  H   H652      1.0  0.52750  0.87740  0.40560  1.0000
  H   H653      1.0  0.59440  0.02750  0.62260  1.0000
  H   H654      1.0  0.09440  0.97250  0.87740  1.0000
  H   H655      1.0  0.40560  0.47250  0.12260  1.0000
  H   H656      1.0  0.90560  0.52750  0.37740  1.0000
  H   H657      1.0  0.12260  0.59440  0.52750  1.0000
  H   H658      1.0  0.37740  0.09440  0.47250  1.0000
  H   H659      1.0  0.62260  0.40560  0.97250  1.0000
  H   H660      1.0  0.87740  0.90560  0.02750  1.0000
  H   H661      1.0  0.87260  0.27750  0.65560  1.0000
  H   H662      1.0  0.12740  0.22250  0.15560  1.0000
  H   H663      1.0  0.37260  0.72250  0.84440  1.0000
  H   H664      1.0  0.62740  0.77750  0.34440  1.0000
  H   H665      1.0  0.77750  0.84440  0.12740  1.0000
  H   H666      1.0  0.72250  0.34440  0.87260  1.0000
  H   H667      1.0  0.22250  0.65560  0.62740  1.0000
  H   H668      1.0  0.27750  0.15560  0.37260  1.0000
  H   H669      1.0  0.34440  0.37260  0.22250  1.0000
  H   H670      1.0  0.84440  0.62740  0.27750  1.0000
  H   H671      1.0  0.15560  0.87260  0.77750  1.0000
  H   H672      1.0  0.65560  0.12740  0.72250  1.0000
  N   N193      1.0  0.34140  0.84381  0.19470  1.0000
  N   N194      1.0  0.65860  0.65619  0.69470  1.0000
  N   N195      1.0  0.15860  0.34381  0.80530  1.0000
  N   N196      1.0  0.84140  0.15619  0.30530  1.0000
  N   N197      1.0  0.19470  0.34140  0.84381  1.0000
  N   N198      1.0  0.69470  0.65860  0.65619  1.0000
  N   N199      1.0  0.80530  0.15860  0.34381  1.0000
  N   N200      1.0  0.30530  0.84140  0.15619  1.0000
  N   N201      1.0  0.84381  0.19470  0.34140  1.0000
  N   N202      1.0  0.65619  0.69470  0.65860  1.0000
  N   N203      1.0  0.34381  0.80530  0.15860  1.0000
  N   N204      1.0  0.15619  0.30530  0.84140  1.0000
  N   N205      1.0  0.59381  0.59140  0.55530  1.0000
  N   N206      1.0  0.40619  0.90860  0.05530  1.0000
  N   N207      1.0  0.09381  0.40860  0.94470  1.0000
  N   N208      1.0  0.90619  0.09140  0.44470  1.0000
  N   N209      1.0  0.09140  0.44470  0.90619  1.0000
  N   N210      1.0  0.40860  0.94470  0.09381  1.0000
  N   N211      1.0  0.90860  0.05530  0.40619  1.0000
  N   N212      1.0  0.59140  0.55530  0.59381  1.0000
  N   N213      1.0  0.94470  0.09381  0.40860  1.0000
  N   N214      1.0  0.44470  0.90619  0.09140  1.0000
  N   N215      1.0  0.55530  0.59381  0.59140  1.0000
  N   N216      1.0  0.05530  0.40619  0.90860  1.0000
  N   N217      1.0  0.34140  0.34381  0.69470  1.0000
  N   N218      1.0  0.65860  0.15619  0.19470  1.0000
  N   N219      1.0  0.15860  0.84381  0.30530  1.0000
  N   N220      1.0  0.84140  0.65619  0.80530  1.0000
  N   N221      1.0  0.19470  0.84140  0.34381  1.0000
  N   N222      1.0  0.69470  0.15860  0.15619  1.0000
  N   N223      1.0  0.80530  0.65860  0.84381  1.0000
  N   N224      1.0  0.30530  0.34140  0.65619  1.0000
  N   N225      1.0  0.84381  0.69470  0.84140  1.0000
  N   N226      1.0  0.65619  0.19470  0.15860  1.0000
  N   N227      1.0  0.34381  0.30530  0.65860  1.0000
  N   N228      1.0  0.15619  0.80530  0.34140  1.0000
  N   N229      1.0  0.59381  0.09140  0.05530  1.0000
  N   N230      1.0  0.40619  0.40860  0.55530  1.0000
  N   N231      1.0  0.09381  0.90860  0.44470  1.0000
  N   N232      1.0  0.90619  0.59140  0.94470  1.0000
  N   N233      1.0  0.09140  0.94470  0.40619  1.0000
  N   N234      1.0  0.40860  0.44470  0.59381  1.0000
  N   N235      1.0  0.90860  0.55530  0.90619  1.0000
  N   N236      1.0  0.59140  0.05530  0.09381  1.0000
  N   N237      1.0  0.94470  0.59381  0.90860  1.0000
  N   N238      1.0  0.44470  0.40619  0.59140  1.0000
  N   N239      1.0  0.55530  0.09381  0.09140  1.0000
  N   N240      1.0  0.05530  0.90619  0.40860  1.0000
  N   N241      1.0  0.84140  0.84381  0.69470  1.0000
  N   N242      1.0  0.15860  0.65619  0.19470  1.0000
  N   N243      1.0  0.65860  0.34381  0.30530  1.0000
  N   N244      1.0  0.34140  0.15619  0.80530  1.0000
  N   N245      1.0  0.69470  0.34140  0.34381  1.0000
  N   N246      1.0  0.19470  0.65860  0.15619  1.0000
  N   N247      1.0  0.30530  0.15860  0.84381  1.0000
  N   N248      1.0  0.80530  0.84140  0.65619  1.0000
  N   N249      1.0  0.34381  0.19470  0.84140  1.0000
  N   N250      1.0  0.15619  0.69470  0.15860  1.0000
  N   N251      1.0  0.84381  0.80530  0.65860  1.0000
  N   N252      1.0  0.65619  0.30530  0.34140  1.0000
  N   N253      1.0  0.09381  0.59140  0.05530  1.0000
  N   N254      1.0  0.90619  0.90860  0.55530  1.0000
  N   N255      1.0  0.59381  0.40860  0.44470  1.0000
  N   N256      1.0  0.40619  0.09140  0.94470  1.0000
  N   N257      1.0  0.59140  0.44470  0.40619  1.0000
  N   N258      1.0  0.90860  0.94470  0.59381  1.0000
  N   N259      1.0  0.40860  0.05530  0.90619  1.0000
  N   N260      1.0  0.09140  0.55530  0.09381  1.0000
  N   N261      1.0  0.44470  0.09381  0.90860  1.0000
  N   N262      1.0  0.94470  0.90619  0.59140  1.0000
  N   N263      1.0  0.05530  0.59381  0.09140  1.0000
  N   N264      1.0  0.55530  0.40619  0.40860  1.0000
  N   N265      1.0  0.84140  0.34381  0.19470  1.0000
  N   N266      1.0  0.15860  0.15619  0.69470  1.0000
  N   N267      1.0  0.65860  0.84381  0.80530  1.0000
  N   N268      1.0  0.34140  0.65619  0.30530  1.0000
  N   N269      1.0  0.69470  0.84140  0.84381  1.0000
  N   N270      1.0  0.19470  0.15860  0.65619  1.0000
  N   N271      1.0  0.30530  0.65860  0.34381  1.0000
  N   N272      1.0  0.80530  0.34140  0.15619  1.0000
  N   N273      1.0  0.34381  0.69470  0.34140  1.0000
  N   N274      1.0  0.15619  0.19470  0.65860  1.0000
  N   N275      1.0  0.84381  0.30530  0.15860  1.0000
  N   N276      1.0  0.65619  0.80530  0.84140  1.0000
  N   N277      1.0  0.09381  0.09140  0.55530  1.0000
  N   N278      1.0  0.90619  0.40860  0.05530  1.0000
  N   N279      1.0  0.59381  0.90860  0.94470  1.0000
  N   N280      1.0  0.40619  0.59140  0.44470  1.0000
  N   N281      1.0  0.59140  0.94470  0.90619  1.0000
  N   N282      1.0  0.90860  0.44470  0.09381  1.0000
  N   N283      1.0  0.40860  0.55530  0.40619  1.0000
  N   N284      1.0  0.09140  0.05530  0.59381  1.0000
  N   N285      1.0  0.44470  0.59381  0.40860  1.0000
  N   N286      1.0  0.94470  0.40619  0.09140  1.0000
  N   N287      1.0  0.05530  0.09381  0.59140  1.0000
  N   N288      1.0  0.55530  0.90619  0.90860  1.0000
  N   N289      1.0  0.37917  0.80920  0.19500  1.0000
  N   N290      1.0  0.62083  0.69080  0.69500  1.0000
  N   N291      1.0  0.12083  0.30920  0.80500  1.0000
  N   N292      1.0  0.87917  0.19080  0.30500  1.0000
  N   N293      1.0  0.19500  0.37917  0.80920  1.0000
  N   N294      1.0  0.69500  0.62083  0.69080  1.0000
  N   N295      1.0  0.80500  0.12083  0.30920  1.0000
  N   N296      1.0  0.30500  0.87917  0.19080  1.0000
  N   N297      1.0  0.80920  0.19500  0.37917  1.0000
  N   N298      1.0  0.69080  0.69500  0.62083  1.0000
  N   N299      1.0  0.30920  0.80500  0.12083  1.0000
  N   N300      1.0  0.19080  0.30500  0.87917  1.0000
  N   N301      1.0  0.55920  0.62917  0.55500  1.0000
  N   N302      1.0  0.44080  0.87083  0.05500  1.0000
  N   N303      1.0  0.05920  0.37083  0.94500  1.0000
  N   N304      1.0  0.94080  0.12917  0.44500  1.0000
  N   N305      1.0  0.12917  0.44500  0.94080  1.0000
  N   N306      1.0  0.37083  0.94500  0.05920  1.0000
  N   N307      1.0  0.87083  0.05500  0.44080  1.0000
  N   N308      1.0  0.62917  0.55500  0.55920  1.0000
  N   N309      1.0  0.94500  0.05920  0.37083  1.0000
  N   N310      1.0  0.44500  0.94080  0.12917  1.0000
  N   N311      1.0  0.55500  0.55920  0.62917  1.0000
  N   N312      1.0  0.05500  0.44080  0.87083  1.0000
  N   N313      1.0  0.37917  0.30920  0.69500  1.0000
  N   N314      1.0  0.62083  0.19080  0.19500  1.0000
  N   N315      1.0  0.12083  0.80920  0.30500  1.0000
  N   N316      1.0  0.87917  0.69080  0.80500  1.0000
  N   N317      1.0  0.19500  0.87917  0.30920  1.0000
  N   N318      1.0  0.69500  0.12083  0.19080  1.0000
  N   N319      1.0  0.80500  0.62083  0.80920  1.0000
  N   N320      1.0  0.30500  0.37917  0.69080  1.0000
  N   N321      1.0  0.80920  0.69500  0.87917  1.0000
  N   N322      1.0  0.69080  0.19500  0.12083  1.0000
  N   N323      1.0  0.30920  0.30500  0.62083  1.0000
  N   N324      1.0  0.19080  0.80500  0.37917  1.0000
  N   N325      1.0  0.55920  0.12917  0.05500  1.0000
  N   N326      1.0  0.44080  0.37083  0.55500  1.0000
  N   N327      1.0  0.05920  0.87083  0.44500  1.0000
  N   N328      1.0  0.94080  0.62917  0.94500  1.0000
  N   N329      1.0  0.12917  0.94500  0.44080  1.0000
  N   N330      1.0  0.37083  0.44500  0.55920  1.0000
  N   N331      1.0  0.87083  0.55500  0.94080  1.0000
  N   N332      1.0  0.62917  0.05500  0.05920  1.0000
  N   N333      1.0  0.94500  0.55920  0.87083  1.0000
  N   N334      1.0  0.44500  0.44080  0.62917  1.0000
  N   N335      1.0  0.55500  0.05920  0.12917  1.0000
  N   N336      1.0  0.05500  0.94080  0.37083  1.0000
  N   N337      1.0  0.87917  0.80920  0.69500  1.0000
  N   N338      1.0  0.12083  0.69080  0.19500  1.0000
  N   N339      1.0  0.62083  0.30920  0.30500  1.0000
  N   N340      1.0  0.37917  0.19080  0.80500  1.0000
  N   N341      1.0  0.69500  0.37917  0.30920  1.0000
  N   N342      1.0  0.19500  0.62083  0.19080  1.0000
  N   N343      1.0  0.30500  0.12083  0.80920  1.0000
  N   N344      1.0  0.80500  0.87917  0.69080  1.0000
  N   N345      1.0  0.30920  0.19500  0.87917  1.0000
  N   N346      1.0  0.19080  0.69500  0.12083  1.0000
  N   N347      1.0  0.80920  0.80500  0.62083  1.0000
  N   N348      1.0  0.69080  0.30500  0.37917  1.0000
  N   N349      1.0  0.05920  0.62917  0.05500  1.0000
  N   N350      1.0  0.94080  0.87083  0.55500  1.0000
  N   N351      1.0  0.55920  0.37083  0.44500  1.0000
  N   N352      1.0  0.44080  0.12917  0.94500  1.0000
  N   N353      1.0  0.62917  0.44500  0.44080  1.0000
  N   N354      1.0  0.87083  0.94500  0.55920  1.0000
  N   N355      1.0  0.37083  0.05500  0.94080  1.0000
  N   N356      1.0  0.12917  0.55500  0.05920  1.0000
  N   N357      1.0  0.44500  0.05920  0.87083  1.0000
  N   N358      1.0  0.94500  0.94080  0.62917  1.0000
  N   N359      1.0  0.05500  0.55920  0.12917  1.0000
  N   N360      1.0  0.55500  0.44080  0.37083  1.0000
  N   N361      1.0  0.87917  0.30920  0.19500  1.0000
  N   N362      1.0  0.12083  0.19080  0.69500  1.0000
  N   N363      1.0  0.62083  0.80920  0.80500  1.0000
  N   N364      1.0  0.37917  0.69080  0.30500  1.0000
  N   N365      1.0  0.69500  0.87917  0.80920  1.0000
  N   N366      1.0  0.19500  0.12083  0.69080  1.0000
  N   N367      1.0  0.30500  0.62083  0.30920  1.0000
  N   N368      1.0  0.80500  0.37917  0.19080  1.0000
  N   N369      1.0  0.30920  0.69500  0.37917  1.0000
  N   N370      1.0  0.19080  0.19500  0.62083  1.0000
  N   N371      1.0  0.80920  0.30500  0.12083  1.0000
  N   N372      1.0  0.69080  0.80500  0.87917  1.0000
  N   N373      1.0  0.05920  0.12917  0.55500  1.0000
  N   N374      1.0  0.94080  0.37083  0.05500  1.0000
  N   N375      1.0  0.55920  0.87083  0.94500  1.0000
  N   N376      1.0  0.44080  0.62917  0.44500  1.0000
  N   N377      1.0  0.62917  0.94500  0.94080  1.0000
  N   N378      1.0  0.87083  0.44500  0.05920  1.0000
  N   N379      1.0  0.37083  0.55500  0.44080  1.0000
  N   N380      1.0  0.12917  0.05500  0.55920  1.0000
  N   N381      1.0  0.44500  0.55920  0.37083  1.0000
  N   N382      1.0  0.94500  0.44080  0.12917  1.0000
  N   N383      1.0  0.05500  0.05920  0.62917  1.0000
  N   N384      1.0  0.55500  0.94080  0.87083  1.0000
  H   H673      1.0  0.38450  0.81950  0.21070  1.0000
  H   H674      1.0  0.61550  0.68050  0.71070  1.0000
  H   H675      1.0  0.11550  0.31950  0.78930  1.0000
  H   H676      1.0  0.88450  0.18050  0.28930  1.0000
  H   H677      1.0  0.21070  0.38450  0.81950  1.0000
  H   H678      1.0  0.71070  0.61550  0.68050  1.0000
  H   H679      1.0  0.78930  0.11550  0.31950  1.0000
  H   H680      1.0  0.28930  0.88450  0.18050  1.0000
  H   H681      1.0  0.81950  0.21070  0.38450  1.0000
  H   H682      1.0  0.68050  0.71070  0.61550  1.0000
  H   H683      1.0  0.31950  0.78930  0.11550  1.0000
  H   H684      1.0  0.18050  0.28930  0.88450  1.0000
  H   H685      1.0  0.56950  0.63450  0.53930  1.0000
  H   H686      1.0  0.43050  0.86550  0.03930  1.0000
  H   H687      1.0  0.06950  0.36550  0.96070  1.0000
  H   H688      1.0  0.93050  0.13450  0.46070  1.0000
  H   H689      1.0  0.13450  0.46070  0.93050  1.0000
  H   H690      1.0  0.36550  0.96070  0.06950  1.0000
  H   H691      1.0  0.86550  0.03930  0.43050  1.0000
  H   H692      1.0  0.63450  0.53930  0.56950  1.0000
  H   H693      1.0  0.96070  0.06950  0.36550  1.0000
  H   H694      1.0  0.46070  0.93050  0.13450  1.0000
  H   H695      1.0  0.53930  0.56950  0.63450  1.0000
  H   H696      1.0  0.03930  0.43050  0.86550  1.0000
  H   H697      1.0  0.38450  0.31950  0.71070  1.0000
  H   H698      1.0  0.61550  0.18050  0.21070  1.0000
  H   H699      1.0  0.11550  0.81950  0.28930  1.0000
  H   H700      1.0  0.88450  0.68050  0.78930  1.0000
  H   H701      1.0  0.21070  0.88450  0.31950  1.0000
  H   H702      1.0  0.71070  0.11550  0.18050  1.0000
  H   H703      1.0  0.78930  0.61550  0.81950  1.0000
  H   H704      1.0  0.28930  0.38450  0.68050  1.0000
  H   H705      1.0  0.81950  0.71070  0.88450  1.0000
  H   H706      1.0  0.68050  0.21070  0.11550  1.0000
  H   H707      1.0  0.31950  0.28930  0.61550  1.0000
  H   H708      1.0  0.18050  0.78930  0.38450  1.0000
  H   H709      1.0  0.56950  0.13450  0.03930  1.0000
  H   H710      1.0  0.43050  0.36550  0.53930  1.0000
  H   H711      1.0  0.06950  0.86550  0.46070  1.0000
  H   H712      1.0  0.93050  0.63450  0.96070  1.0000
  H   H713      1.0  0.13450  0.96070  0.43050  1.0000
  H   H714      1.0  0.36550  0.46070  0.56950  1.0000
  H   H715      1.0  0.86550  0.53930  0.93050  1.0000
  H   H716      1.0  0.63450  0.03930  0.06950  1.0000
  H   H717      1.0  0.96070  0.56950  0.86550  1.0000
  H   H718      1.0  0.46070  0.43050  0.63450  1.0000
  H   H719      1.0  0.53930  0.06950  0.13450  1.0000
  H   H720      1.0  0.03930  0.93050  0.36550  1.0000
  H   H721      1.0  0.88450  0.81950  0.71070  1.0000
  H   H722      1.0  0.11550  0.68050  0.21070  1.0000
  H   H723      1.0  0.61550  0.31950  0.28930  1.0000
  H   H724      1.0  0.38450  0.18050  0.78930  1.0000
  H   H725      1.0  0.71070  0.38450  0.31950  1.0000
  H   H726      1.0  0.21070  0.61550  0.18050  1.0000
  H   H727      1.0  0.28930  0.11550  0.81950  1.0000
  H   H728      1.0  0.78930  0.88450  0.68050  1.0000
  H   H729      1.0  0.31950  0.21070  0.88450  1.0000
  H   H730      1.0  0.18050  0.71070  0.11550  1.0000
  H   H731      1.0  0.81950  0.78930  0.61550  1.0000
  H   H732      1.0  0.68050  0.28930  0.38450  1.0000
  H   H733      1.0  0.06950  0.63450  0.03930  1.0000
  H   H734      1.0  0.93050  0.86550  0.53930  1.0000
  H   H735      1.0  0.56950  0.36550  0.46070  1.0000
  H   H736      1.0  0.43050  0.13450  0.96070  1.0000
  H   H737      1.0  0.63450  0.46070  0.43050  1.0000
  H   H738      1.0  0.86550  0.96070  0.56950  1.0000
  H   H739      1.0  0.36550  0.03930  0.93050  1.0000
  H   H740      1.0  0.13450  0.53930  0.06950  1.0000
  H   H741      1.0  0.46070  0.06950  0.86550  1.0000
  H   H742      1.0  0.96070  0.93050  0.63450  1.0000
  H   H743      1.0  0.03930  0.56950  0.13450  1.0000
  H   H744      1.0  0.53930  0.43050  0.36550  1.0000
  H   H745      1.0  0.88450  0.31950  0.21070  1.0000
  H   H746      1.0  0.11550  0.18050  0.71070  1.0000
  H   H747      1.0  0.61550  0.81950  0.78930  1.0000
  H   H748      1.0  0.38450  0.68050  0.28930  1.0000
  H   H749      1.0  0.71070  0.88450  0.81950  1.0000
  H   H750      1.0  0.21070  0.11550  0.68050  1.0000
  H   H751      1.0  0.28930  0.61550  0.31950  1.0000
  H   H752      1.0  0.78930  0.38450  0.18050  1.0000
  H   H753      1.0  0.31950  0.71070  0.38450  1.0000
  H   H754      1.0  0.18050  0.21070  0.61550  1.0000
  H   H755      1.0  0.81950  0.28930  0.11550  1.0000
  H   H756      1.0  0.68050  0.78930  0.88450  1.0000
  H   H757      1.0  0.06950  0.13450  0.53930  1.0000
  H   H758      1.0  0.93050  0.36550  0.03930  1.0000
  H   H759      1.0  0.56950  0.86550  0.96070  1.0000
  H   H760      1.0  0.43050  0.63450  0.46070  1.0000
  H   H761      1.0  0.63450  0.96070  0.93050  1.0000
  H   H762      1.0  0.86550  0.46070  0.06950  1.0000
  H   H763      1.0  0.36550  0.53930  0.43050  1.0000
  H   H764      1.0  0.13450  0.03930  0.56950  1.0000
  H   H765      1.0  0.46070  0.56950  0.36550  1.0000
  H   H766      1.0  0.96070  0.43050  0.13450  1.0000
  H   H767      1.0  0.03930  0.06950  0.63450  1.0000
  H   H768      1.0  0.53930  0.93050  0.86550  1.0000
  O   O1        1.0  0.43050  0.63156  0.12590  1.0000
  O   O2        1.0  0.56950  0.86844  0.62590  1.0000
  O   O3        1.0  0.06950  0.13156  0.87410  1.0000
  O   O4        1.0  0.93050  0.36844  0.37410  1.0000
  O   O5        1.0  0.12590  0.43050  0.63156  1.0000
  O   O6        1.0  0.62590  0.56950  0.86844  1.0000
  O   O7        1.0  0.87410  0.06950  0.13156  1.0000
  O   O8        1.0  0.37410  0.93050  0.36844  1.0000
  O   O9        1.0  0.63156  0.12590  0.43050  1.0000
  O   O10       1.0  0.86844  0.62590  0.56950  1.0000
  O   O11       1.0  0.13156  0.87410  0.06950  1.0000
  O   O12       1.0  0.36844  0.37410  0.93050  1.0000
  O   O13       1.0  0.38156  0.68050  0.62410  1.0000
  O   O14       1.0  0.61844  0.81950  0.12410  1.0000
  O   O15       1.0  0.88156  0.31950  0.87590  1.0000
  O   O16       1.0  0.11844  0.18050  0.37590  1.0000
  O   O17       1.0  0.18050  0.37590  0.11844  1.0000
  O   O18       1.0  0.31950  0.87590  0.88156  1.0000
  O   O19       1.0  0.81950  0.12410  0.61844  1.0000
  O   O20       1.0  0.68050  0.62410  0.38156  1.0000
  O   O21       1.0  0.87590  0.88156  0.31950  1.0000
  O   O22       1.0  0.37590  0.11844  0.18050  1.0000
  O   O23       1.0  0.62410  0.38156  0.68050  1.0000
  O   O24       1.0  0.12410  0.61844  0.81950  1.0000
  O   O25       1.0  0.43050  0.13156  0.62590  1.0000
  O   O26       1.0  0.56950  0.36844  0.12590  1.0000
  O   O27       1.0  0.06950  0.63156  0.37410  1.0000
  O   O28       1.0  0.93050  0.86844  0.87410  1.0000
  O   O29       1.0  0.12590  0.93050  0.13156  1.0000
  O   O30       1.0  0.62590  0.06950  0.36844  1.0000
  O   O31       1.0  0.87410  0.56950  0.63156  1.0000
  O   O32       1.0  0.37410  0.43050  0.86844  1.0000
  O   O33       1.0  0.63156  0.62590  0.93050  1.0000
  O   O34       1.0  0.86844  0.12590  0.06950  1.0000
  O   O35       1.0  0.13156  0.37410  0.56950  1.0000
  O   O36       1.0  0.36844  0.87410  0.43050  1.0000
  O   O37       1.0  0.38156  0.18050  0.12410  1.0000
  O   O38       1.0  0.61844  0.31950  0.62410  1.0000
  O   O39       1.0  0.88156  0.81950  0.37590  1.0000
  O   O40       1.0  0.11844  0.68050  0.87590  1.0000
  O   O41       1.0  0.18050  0.87590  0.61844  1.0000
  O   O42       1.0  0.31950  0.37590  0.38156  1.0000
  O   O43       1.0  0.81950  0.62410  0.11844  1.0000
  O   O44       1.0  0.68050  0.12410  0.88156  1.0000
  O   O45       1.0  0.87590  0.38156  0.81950  1.0000
  O   O46       1.0  0.37590  0.61844  0.68050  1.0000
  O   O47       1.0  0.62410  0.88156  0.18050  1.0000
  O   O48       1.0  0.12410  0.11844  0.31950  1.0000
  O   O49       1.0  0.93050  0.63156  0.62590  1.0000
  O   O50       1.0  0.06950  0.86844  0.12590  1.0000
  O   O51       1.0  0.56950  0.13156  0.37410  1.0000
  O   O52       1.0  0.43050  0.36844  0.87410  1.0000
  O   O53       1.0  0.62590  0.43050  0.13156  1.0000
  O   O54       1.0  0.12590  0.56950  0.36844  1.0000
  O   O55       1.0  0.37410  0.06950  0.63156  1.0000
  O   O56       1.0  0.87410  0.93050  0.86844  1.0000
  O   O57       1.0  0.13156  0.12590  0.93050  1.0000
  O   O58       1.0  0.36844  0.62590  0.06950  1.0000
  O   O59       1.0  0.63156  0.87410  0.56950  1.0000
  O   O60       1.0  0.86844  0.37410  0.43050  1.0000
  O   O61       1.0  0.88156  0.68050  0.12410  1.0000
  O   O62       1.0  0.11844  0.81950  0.62410  1.0000
  O   O63       1.0  0.38156  0.31950  0.37590  1.0000
  O   O64       1.0  0.61844  0.18050  0.87590  1.0000
  O   O65       1.0  0.68050  0.37590  0.61844  1.0000
  O   O66       1.0  0.81950  0.87590  0.38156  1.0000
  O   O67       1.0  0.31950  0.12410  0.11844  1.0000
  O   O68       1.0  0.18050  0.62410  0.88156  1.0000
  O   O69       1.0  0.37590  0.88156  0.81950  1.0000
  O   O70       1.0  0.87590  0.11844  0.68050  1.0000
  O   O71       1.0  0.12410  0.38156  0.18050  1.0000
  O   O72       1.0  0.62410  0.61844  0.31950  1.0000
  O   O73       1.0  0.93050  0.13156  0.12590  1.0000
  O   O74       1.0  0.06950  0.36844  0.62590  1.0000
  O   O75       1.0  0.56950  0.63156  0.87410  1.0000
  O   O76       1.0  0.43050  0.86844  0.37410  1.0000
  O   O77       1.0  0.62590  0.93050  0.63156  1.0000
  O   O78       1.0  0.12590  0.06950  0.86844  1.0000
  O   O79       1.0  0.37410  0.56950  0.13156  1.0000
  O   O80       1.0  0.87410  0.43050  0.36844  1.0000
  O   O81       1.0  0.13156  0.62590  0.43050  1.0000
  O   O82       1.0  0.36844  0.12590  0.56950  1.0000
  O   O83       1.0  0.63156  0.37410  0.06950  1.0000
  O   O84       1.0  0.86844  0.87410  0.93050  1.0000
  O   O85       1.0  0.88156  0.18050  0.62410  1.0000
  O   O86       1.0  0.11844  0.31950  0.12410  1.0000
  O   O87       1.0  0.38156  0.81950  0.87590  1.0000
  O   O88       1.0  0.61844  0.68050  0.37590  1.0000
  O   O89       1.0  0.68050  0.87590  0.11844  1.0000
  O   O90       1.0  0.81950  0.37590  0.88156  1.0000
  O   O91       1.0  0.31950  0.62410  0.61844  1.0000
  O   O92       1.0  0.18050  0.12410  0.38156  1.0000
  O   O93       1.0  0.37590  0.38156  0.31950  1.0000
  O   O94       1.0  0.87590  0.61844  0.18050  1.0000
  O   O95       1.0  0.12410  0.88156  0.68050  1.0000
  O   O96       1.0  0.62410  0.11844  0.81950  1.0000
  O   O97       1.0  0.41730  0.60320  0.16700  1.0000
  O   O98       1.0  0.58270  0.89680  0.66700  1.0000
  O   O99       1.0  0.08270  0.10320  0.83300  1.0000
  O   O100      1.0  0.91730  0.39680  0.33300  1.0000
  O   O101      1.0  0.16700  0.41730  0.60320  1.0000
  O   O102      1.0  0.66700  0.58270  0.89680  1.0000
  O   O103      1.0  0.83300  0.08270  0.10320  1.0000
  O   O104      1.0  0.33300  0.91730  0.39680  1.0000
  O   O105      1.0  0.60320  0.16700  0.41730  1.0000
  O   O106      1.0  0.89680  0.66700  0.58270  1.0000
  O   O107      1.0  0.10320  0.83300  0.08270  1.0000
  O   O108      1.0  0.39680  0.33300  0.91730  1.0000
  O   O109      1.0  0.35320  0.66730  0.58300  1.0000
  O   O110      1.0  0.64680  0.83270  0.08300  1.0000
  O   O111      1.0  0.85320  0.33270  0.91700  1.0000
  O   O112      1.0  0.14680  0.16730  0.41700  1.0000
  O   O113      1.0  0.16730  0.41700  0.14680  1.0000
  O   O114      1.0  0.33270  0.91700  0.85320  1.0000
  O   O115      1.0  0.83270  0.08300  0.64680  1.0000
  O   O116      1.0  0.66730  0.58300  0.35320  1.0000
  O   O117      1.0  0.91700  0.85320  0.33270  1.0000
  O   O118      1.0  0.41700  0.14680  0.16730  1.0000
  O   O119      1.0  0.58300  0.35320  0.66730  1.0000
  O   O120      1.0  0.08300  0.64680  0.83270  1.0000
  O   O121      1.0  0.41730  0.10320  0.66700  1.0000
  O   O122      1.0  0.58270  0.39680  0.16700  1.0000
  O   O123      1.0  0.08270  0.60320  0.33300  1.0000
  O   O124      1.0  0.91730  0.89680  0.83300  1.0000
  O   O125      1.0  0.16700  0.91730  0.10320  1.0000
  O   O126      1.0  0.66700  0.08270  0.39680  1.0000
  O   O127      1.0  0.83300  0.58270  0.60320  1.0000
  O   O128      1.0  0.33300  0.41730  0.89680  1.0000
  O   O129      1.0  0.60320  0.66700  0.91730  1.0000
  O   O130      1.0  0.89680  0.16700  0.08270  1.0000
  O   O131      1.0  0.10320  0.33300  0.58270  1.0000
  O   O132      1.0  0.39680  0.83300  0.41730  1.0000
  O   O133      1.0  0.35320  0.16730  0.08300  1.0000
  O   O134      1.0  0.64680  0.33270  0.58300  1.0000
  O   O135      1.0  0.85320  0.83270  0.41700  1.0000
  O   O136      1.0  0.14680  0.66730  0.91700  1.0000
  O   O137      1.0  0.16730  0.91700  0.64680  1.0000
  O   O138      1.0  0.33270  0.41700  0.35320  1.0000
  O   O139      1.0  0.83270  0.58300  0.14680  1.0000
  O   O140      1.0  0.66730  0.08300  0.85320  1.0000
  O   O141      1.0  0.91700  0.35320  0.83270  1.0000
  O   O142      1.0  0.41700  0.64680  0.66730  1.0000
  O   O143      1.0  0.58300  0.85320  0.16730  1.0000
  O   O144      1.0  0.08300  0.14680  0.33270  1.0000
  O   O145      1.0  0.91730  0.60320  0.66700  1.0000
  O   O146      1.0  0.08270  0.89680  0.16700  1.0000
  O   O147      1.0  0.58270  0.10320  0.33300  1.0000
  O   O148      1.0  0.41730  0.39680  0.83300  1.0000
  O   O149      1.0  0.66700  0.41730  0.10320  1.0000
  O   O150      1.0  0.16700  0.58270  0.39680  1.0000
  O   O151      1.0  0.33300  0.08270  0.60320  1.0000
  O   O152      1.0  0.83300  0.91730  0.89680  1.0000
  O   O153      1.0  0.10320  0.16700  0.91730  1.0000
  O   O154      1.0  0.39680  0.66700  0.08270  1.0000
  O   O155      1.0  0.60320  0.83300  0.58270  1.0000
  O   O156      1.0  0.89680  0.33300  0.41730  1.0000
  O   O157      1.0  0.85320  0.66730  0.08300  1.0000
  O   O158      1.0  0.14680  0.83270  0.58300  1.0000
  O   O159      1.0  0.35320  0.33270  0.41700  1.0000
  O   O160      1.0  0.64680  0.16730  0.91700  1.0000
  O   O161      1.0  0.66730  0.41700  0.64680  1.0000
  O   O162      1.0  0.83270  0.91700  0.35320  1.0000
  O   O163      1.0  0.33270  0.08300  0.14680  1.0000
  O   O164      1.0  0.16730  0.58300  0.85320  1.0000
  O   O165      1.0  0.41700  0.85320  0.83270  1.0000
  O   O166      1.0  0.91700  0.14680  0.66730  1.0000
  O   O167      1.0  0.08300  0.35320  0.16730  1.0000
  O   O168      1.0  0.58300  0.64680  0.33270  1.0000
  O   O169      1.0  0.91730  0.10320  0.16700  1.0000
  O   O170      1.0  0.08270  0.39680  0.66700  1.0000
  O   O171      1.0  0.58270  0.60320  0.83300  1.0000
  O   O172      1.0  0.41730  0.89680  0.33300  1.0000
  O   O173      1.0  0.66700  0.91730  0.60320  1.0000
  O   O174      1.0  0.16700  0.08270  0.89680  1.0000
  O   O175      1.0  0.33300  0.58270  0.10320  1.0000
  O   O176      1.0  0.83300  0.41730  0.39680  1.0000
  O   O177      1.0  0.10320  0.66700  0.41730  1.0000
  O   O178      1.0  0.39680  0.16700  0.58270  1.0000
  O   O179      1.0  0.60320  0.33300  0.08270  1.0000
  O   O180      1.0  0.89680  0.83300  0.91730  1.0000
  O   O181      1.0  0.85320  0.16730  0.58300  1.0000
  O   O182      1.0  0.14680  0.33270  0.08300  1.0000
  O   O183      1.0  0.35320  0.83270  0.91700  1.0000
  O   O184      1.0  0.64680  0.66730  0.41700  1.0000
  O   O185      1.0  0.66730  0.91700  0.14680  1.0000
  O   O186      1.0  0.83270  0.41700  0.85320  1.0000
  O   O187      1.0  0.33270  0.58300  0.64680  1.0000
  O   O188      1.0  0.16730  0.08300  0.35320  1.0000
  O   O189      1.0  0.41700  0.35320  0.33270  1.0000
  O   O190      1.0  0.91700  0.64680  0.16730  1.0000
  O   O191      1.0  0.08300  0.85320  0.66730  1.0000
  O   O192      1.0  0.58300  0.14680  0.83270  1.0000
  O   O193      1.0  0.48858  0.53290  0.20697  1.0000
  O   O194      1.0  0.51142  0.96710  0.70697  1.0000
  O   O195      1.0  0.01142  0.03290  0.79303  1.0000
  O   O196      1.0  0.98858  0.46710  0.29303  1.0000
  O   O197      1.0  0.20697  0.48858  0.53290  1.0000
  O   O198      1.0  0.70697  0.51142  0.96710  1.0000
  O   O199      1.0  0.79303  0.01142  0.03290  1.0000
  O   O200      1.0  0.29303  0.98858  0.46710  1.0000
  O   O201      1.0  0.53290  0.20697  0.48858  1.0000
  O   O202      1.0  0.96710  0.70697  0.51142  1.0000
  O   O203      1.0  0.03290  0.79303  0.01142  1.0000
  O   O204      1.0  0.46710  0.29303  0.98858  1.0000
  O   O205      1.0  0.28290  0.73858  0.54303  1.0000
  O   O206      1.0  0.71710  0.76142  0.04303  1.0000
  O   O207      1.0  0.78290  0.26142  0.95697  1.0000
  O   O208      1.0  0.21710  0.23858  0.45697  1.0000
  O   O209      1.0  0.23858  0.45697  0.21710  1.0000
  O   O210      1.0  0.26142  0.95697  0.78290  1.0000
  O   O211      1.0  0.76142  0.04303  0.71710  1.0000
  O   O212      1.0  0.73858  0.54303  0.28290  1.0000
  O   O213      1.0  0.95697  0.78290  0.26142  1.0000
  O   O214      1.0  0.45697  0.21710  0.23858  1.0000
  O   O215      1.0  0.54303  0.28290  0.73858  1.0000
  O   O216      1.0  0.04303  0.71710  0.76142  1.0000
  O   O217      1.0  0.48858  0.03290  0.70697  1.0000
  O   O218      1.0  0.51142  0.46710  0.20697  1.0000
  O   O219      1.0  0.01142  0.53290  0.29303  1.0000
  O   O220      1.0  0.98858  0.96710  0.79303  1.0000
  O   O221      1.0  0.20697  0.98858  0.03290  1.0000
  O   O222      1.0  0.70697  0.01142  0.46710  1.0000
  O   O223      1.0  0.79303  0.51142  0.53290  1.0000
  O   O224      1.0  0.29303  0.48858  0.96710  1.0000
  O   O225      1.0  0.53290  0.70697  0.98858  1.0000
  O   O226      1.0  0.96710  0.20697  0.01142  1.0000
  O   O227      1.0  0.03290  0.29303  0.51142  1.0000
  O   O228      1.0  0.46710  0.79303  0.48858  1.0000
  O   O229      1.0  0.28290  0.23858  0.04303  1.0000
  O   O230      1.0  0.71710  0.26142  0.54303  1.0000
  O   O231      1.0  0.78290  0.76142  0.45697  1.0000
  O   O232      1.0  0.21710  0.73858  0.95697  1.0000
  O   O233      1.0  0.23858  0.95697  0.71710  1.0000
  O   O234      1.0  0.26142  0.45697  0.28290  1.0000
  O   O235      1.0  0.76142  0.54303  0.21710  1.0000
  O   O236      1.0  0.73858  0.04303  0.78290  1.0000
  O   O237      1.0  0.95697  0.28290  0.76142  1.0000
  O   O238      1.0  0.45697  0.71710  0.73858  1.0000
  O   O239      1.0  0.54303  0.78290  0.23858  1.0000
  O   O240      1.0  0.04303  0.21710  0.26142  1.0000
  O   O241      1.0  0.98858  0.53290  0.70697  1.0000
  O   O242      1.0  0.01142  0.96710  0.20697  1.0000
  O   O243      1.0  0.51142  0.03290  0.29303  1.0000
  O   O244      1.0  0.48858  0.46710  0.79303  1.0000
  O   O245      1.0  0.70697  0.48858  0.03290  1.0000
  O   O246      1.0  0.20697  0.51142  0.46710  1.0000
  O   O247      1.0  0.29303  0.01142  0.53290  1.0000
  O   O248      1.0  0.79303  0.98858  0.96710  1.0000
  O   O249      1.0  0.03290  0.20697  0.98858  1.0000
  O   O250      1.0  0.46710  0.70697  0.01142  1.0000
  O   O251      1.0  0.53290  0.79303  0.51142  1.0000
  O   O252      1.0  0.96710  0.29303  0.48858  1.0000
  O   O253      1.0  0.78290  0.73858  0.04303  1.0000
  O   O254      1.0  0.21710  0.76142  0.54303  1.0000
  O   O255      1.0  0.28290  0.26142  0.45697  1.0000
  O   O256      1.0  0.71710  0.23858  0.95697  1.0000
  O   O257      1.0  0.73858  0.45697  0.71710  1.0000
  O   O258      1.0  0.76142  0.95697  0.28290  1.0000
  O   O259      1.0  0.26142  0.04303  0.21710  1.0000
  O   O260      1.0  0.23858  0.54303  0.78290  1.0000
  O   O261      1.0  0.45697  0.78290  0.76142  1.0000
  O   O262      1.0  0.95697  0.21710  0.73858  1.0000
  O   O263      1.0  0.04303  0.28290  0.23858  1.0000
  O   O264      1.0  0.54303  0.71710  0.26142  1.0000
  O   O265      1.0  0.98858  0.03290  0.20697  1.0000
  O   O266      1.0  0.01142  0.46710  0.70697  1.0000
  O   O267      1.0  0.51142  0.53290  0.79303  1.0000
  O   O268      1.0  0.48858  0.96710  0.29303  1.0000
  O   O269      1.0  0.70697  0.98858  0.53290  1.0000
  O   O270      1.0  0.20697  0.01142  0.96710  1.0000
  O   O271      1.0  0.29303  0.51142  0.03290  1.0000
  O   O272      1.0  0.79303  0.48858  0.46710  1.0000
  O   O273      1.0  0.03290  0.70697  0.48858  1.0000
  O   O274      1.0  0.46710  0.20697  0.51142  1.0000
  O   O275      1.0  0.53290  0.29303  0.01142  1.0000
  O   O276      1.0  0.96710  0.79303  0.98858  1.0000
  O   O277      1.0  0.78290  0.23858  0.54303  1.0000
  O   O278      1.0  0.21710  0.26142  0.04303  1.0000
  O   O279      1.0  0.28290  0.76142  0.95697  1.0000
  O   O280      1.0  0.71710  0.73858  0.45697  1.0000
  O   O281      1.0  0.73858  0.95697  0.21710  1.0000
  O   O282      1.0  0.76142  0.45697  0.78290  1.0000
  O   O283      1.0  0.26142  0.54303  0.71710  1.0000
  O   O284      1.0  0.23858  0.04303  0.28290  1.0000
  O   O285      1.0  0.45697  0.28290  0.26142  1.0000
  O   O286      1.0  0.95697  0.71710  0.23858  1.0000
  O   O287      1.0  0.04303  0.78290  0.73858  1.0000
  O   O288      1.0  0.54303  0.21710  0.76142  1.0000
  O   O289      1.0  0.53540  0.53850  0.19405  1.0000
  O   O290      1.0  0.46460  0.96150  0.69405  1.0000
  O   O291      1.0  0.96460  0.03850  0.80595  1.0000
  O   O292      1.0  0.03540  0.46150  0.30595  1.0000
  O   O293      1.0  0.19405  0.53540  0.53850  1.0000
  O   O294      1.0  0.69405  0.46460  0.96150  1.0000
  O   O295      1.0  0.80595  0.96460  0.03850  1.0000
  O   O296      1.0  0.30595  0.03540  0.46150  1.0000
  O   O297      1.0  0.53850  0.19405  0.53540  1.0000
  O   O298      1.0  0.96150  0.69405  0.46460  1.0000
  O   O299      1.0  0.03850  0.80595  0.96460  1.0000
  O   O300      1.0  0.46150  0.30595  0.03540  1.0000
  O   O301      1.0  0.28850  0.78540  0.55595  1.0000
  O   O302      1.0  0.71150  0.71460  0.05595  1.0000
  O   O303      1.0  0.78850  0.21460  0.94405  1.0000
  O   O304      1.0  0.21150  0.28540  0.44405  1.0000
  O   O305      1.0  0.28540  0.44405  0.21150  1.0000
  O   O306      1.0  0.21460  0.94405  0.78850  1.0000
  O   O307      1.0  0.71460  0.05595  0.71150  1.0000
  O   O308      1.0  0.78540  0.55595  0.28850  1.0000
  O   O309      1.0  0.94405  0.78850  0.21460  1.0000
  O   O310      1.0  0.44405  0.21150  0.28540  1.0000
  O   O311      1.0  0.55595  0.28850  0.78540  1.0000
  O   O312      1.0  0.05595  0.71150  0.71460  1.0000
  O   O313      1.0  0.53540  0.03850  0.69405  1.0000
  O   O314      1.0  0.46460  0.46150  0.19405  1.0000
  O   O315      1.0  0.96460  0.53850  0.30595  1.0000
  O   O316      1.0  0.03540  0.96150  0.80595  1.0000
  O   O317      1.0  0.19405  0.03540  0.03850  1.0000
  O   O318      1.0  0.69405  0.96460  0.46150  1.0000
  O   O319      1.0  0.80595  0.46460  0.53850  1.0000
  O   O320      1.0  0.30595  0.53540  0.96150  1.0000
  O   O321      1.0  0.53850  0.69405  0.03540  1.0000
  O   O322      1.0  0.96150  0.19405  0.96460  1.0000
  O   O323      1.0  0.03850  0.30595  0.46460  1.0000
  O   O324      1.0  0.46150  0.80595  0.53540  1.0000
  O   O325      1.0  0.28850  0.28540  0.05595  1.0000
  O   O326      1.0  0.71150  0.21460  0.55595  1.0000
  O   O327      1.0  0.78850  0.71460  0.44405  1.0000
  O   O328      1.0  0.21150  0.78540  0.94405  1.0000
  O   O329      1.0  0.28540  0.94405  0.71150  1.0000
  O   O330      1.0  0.21460  0.44405  0.28850  1.0000
  O   O331      1.0  0.71460  0.55595  0.21150  1.0000
  O   O332      1.0  0.78540  0.05595  0.78850  1.0000
  O   O333      1.0  0.94405  0.28850  0.71460  1.0000
  O   O334      1.0  0.44405  0.71150  0.78540  1.0000
  O   O335      1.0  0.55595  0.78850  0.28540  1.0000
  O   O336      1.0  0.05595  0.21150  0.21460  1.0000
  O   O337      1.0  0.03540  0.53850  0.69405  1.0000
  O   O338      1.0  0.96460  0.96150  0.19405  1.0000
  O   O339      1.0  0.46460  0.03850  0.30595  1.0000
  O   O340      1.0  0.53540  0.46150  0.80595  1.0000
  O   O341      1.0  0.69405  0.53540  0.03850  1.0000
  O   O342      1.0  0.19405  0.46460  0.46150  1.0000
  O   O343      1.0  0.30595  0.96460  0.53850  1.0000
  O   O344      1.0  0.80595  0.03540  0.96150  1.0000
  O   O345      1.0  0.03850  0.19405  0.03540  1.0000
  O   O346      1.0  0.46150  0.69405  0.96460  1.0000
  O   O347      1.0  0.53850  0.80595  0.46460  1.0000
  O   O348      1.0  0.96150  0.30595  0.53540  1.0000
  O   O349      1.0  0.78850  0.78540  0.05595  1.0000
  O   O350      1.0  0.21150  0.71460  0.55595  1.0000
  O   O351      1.0  0.28850  0.21460  0.44405  1.0000
  O   O352      1.0  0.71150  0.28540  0.94405  1.0000
  O   O353      1.0  0.78540  0.44405  0.71150  1.0000
  O   O354      1.0  0.71460  0.94405  0.28850  1.0000
  O   O355      1.0  0.21460  0.05595  0.21150  1.0000
  O   O356      1.0  0.28540  0.55595  0.78850  1.0000
  O   O357      1.0  0.44405  0.78850  0.71460  1.0000
  O   O358      1.0  0.94405  0.21150  0.78540  1.0000
  O   O359      1.0  0.05595  0.28850  0.28540  1.0000
  O   O360      1.0  0.55595  0.71150  0.21460  1.0000
  O   O361      1.0  0.03540  0.03850  0.19405  1.0000
  O   O362      1.0  0.96460  0.46150  0.69405  1.0000
  O   O363      1.0  0.46460  0.53850  0.80595  1.0000
  O   O364      1.0  0.53540  0.96150  0.30595  1.0000
  O   O365      1.0  0.69405  0.03540  0.53850  1.0000
  O   O366      1.0  0.19405  0.96460  0.96150  1.0000
  O   O367      1.0  0.30595  0.46460  0.03850  1.0000
  O   O368      1.0  0.80595  0.53540  0.46150  1.0000
  O   O369      1.0  0.03850  0.69405  0.53540  1.0000
  O   O370      1.0  0.46150  0.19405  0.46460  1.0000
  O   O371      1.0  0.53850  0.30595  0.96460  1.0000
  O   O372      1.0  0.96150  0.80595  0.03540  1.0000
  O   O373      1.0  0.78850  0.28540  0.55595  1.0000
  O   O374      1.0  0.21150  0.21460  0.05595  1.0000
  O   O375      1.0  0.28850  0.71460  0.94405  1.0000
  O   O376      1.0  0.71150  0.78540  0.44405  1.0000
  O   O377      1.0  0.78540  0.94405  0.21150  1.0000
  O   O378      1.0  0.71460  0.44405  0.78850  1.0000
  O   O379      1.0  0.21460  0.55595  0.71150  1.0000
  O   O380      1.0  0.28540  0.05595  0.28850  1.0000
  O   O381      1.0  0.44405  0.28850  0.21460  1.0000
  O   O382      1.0  0.94405  0.71150  0.28540  1.0000
  O   O383      1.0  0.05595  0.78850  0.78540  1.0000
  O   O384      1.0  0.55595  0.21150  0.71460  1.0000
  O   O385      1.0  0.47660  0.78680  0.23460  1.0000
  O   O386      1.0  0.52340  0.71320  0.73460  1.0000
  O   O387      1.0  0.02340  0.28680  0.76540  1.0000
  O   O388      1.0  0.97660  0.21320  0.26540  1.0000
  O   O389      1.0  0.23460  0.47660  0.78680  1.0000
  O   O390      1.0  0.73460  0.52340  0.71320  1.0000
  O   O391      1.0  0.76540  0.02340  0.28680  1.0000
  O   O392      1.0  0.26540  0.97660  0.21320  1.0000
  O   O393      1.0  0.78680  0.23460  0.47660  1.0000
  O   O394      1.0  0.71320  0.73460  0.52340  1.0000
  O   O395      1.0  0.28680  0.76540  0.02340  1.0000
  O   O396      1.0  0.21320  0.26540  0.97660  1.0000
  O   O397      1.0  0.53680  0.72660  0.51540  1.0000
  O   O398      1.0  0.46320  0.77340  0.01540  1.0000
  O   O399      1.0  0.03680  0.27340  0.98460  1.0000
  O   O400      1.0  0.96320  0.22660  0.48460  1.0000
  O   O401      1.0  0.22660  0.48460  0.96320  1.0000
  O   O402      1.0  0.27340  0.98460  0.03680  1.0000
  O   O403      1.0  0.77340  0.01540  0.46320  1.0000
  O   O404      1.0  0.72660  0.51540  0.53680  1.0000
  O   O405      1.0  0.98460  0.03680  0.27340  1.0000
  O   O406      1.0  0.48460  0.96320  0.22660  1.0000
  O   O407      1.0  0.51540  0.53680  0.72660  1.0000
  O   O408      1.0  0.01540  0.46320  0.77340  1.0000
  O   O409      1.0  0.47660  0.28680  0.73460  1.0000
  O   O410      1.0  0.52340  0.21320  0.23460  1.0000
  O   O411      1.0  0.02340  0.78680  0.26540  1.0000
  O   O412      1.0  0.97660  0.71320  0.76540  1.0000
  O   O413      1.0  0.23460  0.97660  0.28680  1.0000
  O   O414      1.0  0.73460  0.02340  0.21320  1.0000
  O   O415      1.0  0.76540  0.52340  0.78680  1.0000
  O   O416      1.0  0.26540  0.47660  0.71320  1.0000
  O   O417      1.0  0.78680  0.73460  0.97660  1.0000
  O   O418      1.0  0.71320  0.23460  0.02340  1.0000
  O   O419      1.0  0.28680  0.26540  0.52340  1.0000
  O   O420      1.0  0.21320  0.76540  0.47660  1.0000
  O   O421      1.0  0.53680  0.22660  0.01540  1.0000
  O   O422      1.0  0.46320  0.27340  0.51540  1.0000
  O   O423      1.0  0.03680  0.77340  0.48460  1.0000
  O   O424      1.0  0.96320  0.72660  0.98460  1.0000
  O   O425      1.0  0.22660  0.98460  0.46320  1.0000
  O   O426      1.0  0.27340  0.48460  0.53680  1.0000
  O   O427      1.0  0.77340  0.51540  0.96320  1.0000
  O   O428      1.0  0.72660  0.01540  0.03680  1.0000
  O   O429      1.0  0.98460  0.53680  0.77340  1.0000
  O   O430      1.0  0.48460  0.46320  0.72660  1.0000
  O   O431      1.0  0.51540  0.03680  0.22660  1.0000
  O   O432      1.0  0.01540  0.96320  0.27340  1.0000
  O   O433      1.0  0.97660  0.78680  0.73460  1.0000
  O   O434      1.0  0.02340  0.71320  0.23460  1.0000
  O   O435      1.0  0.52340  0.28680  0.26540  1.0000
  O   O436      1.0  0.47660  0.21320  0.76540  1.0000
  O   O437      1.0  0.73460  0.47660  0.28680  1.0000
  O   O438      1.0  0.23460  0.52340  0.21320  1.0000
  O   O439      1.0  0.26540  0.02340  0.78680  1.0000
  O   O440      1.0  0.76540  0.97660  0.71320  1.0000
  O   O441      1.0  0.28680  0.23460  0.97660  1.0000
  O   O442      1.0  0.21320  0.73460  0.02340  1.0000
  O   O443      1.0  0.78680  0.76540  0.52340  1.0000
  O   O444      1.0  0.71320  0.26540  0.47660  1.0000
  O   O445      1.0  0.03680  0.72660  0.01540  1.0000
  O   O446      1.0  0.96320  0.77340  0.51540  1.0000
  O   O447      1.0  0.53680  0.27340  0.48460  1.0000
  O   O448      1.0  0.46320  0.22660  0.98460  1.0000
  O   O449      1.0  0.72660  0.48460  0.46320  1.0000
  O   O450      1.0  0.77340  0.98460  0.53680  1.0000
  O   O451      1.0  0.27340  0.01540  0.96320  1.0000
  O   O452      1.0  0.22660  0.51540  0.03680  1.0000
  O   O453      1.0  0.48460  0.03680  0.77340  1.0000
  O   O454      1.0  0.98460  0.96320  0.72660  1.0000
  O   O455      1.0  0.01540  0.53680  0.22660  1.0000
  O   O456      1.0  0.51540  0.46320  0.27340  1.0000
  O   O457      1.0  0.97660  0.28680  0.23460  1.0000
  O   O458      1.0  0.02340  0.21320  0.73460  1.0000
  O   O459      1.0  0.52340  0.78680  0.76540  1.0000
  O   O460      1.0  0.47660  0.71320  0.26540  1.0000
  O   O461      1.0  0.73460  0.97660  0.78680  1.0000
  O   O462      1.0  0.23460  0.02340  0.71320  1.0000
  O   O463      1.0  0.26540  0.52340  0.28680  1.0000
  O   O464      1.0  0.76540  0.47660  0.21320  1.0000
  O   O465      1.0  0.28680  0.73460  0.47660  1.0000
  O   O466      1.0  0.21320  0.23460  0.52340  1.0000
  O   O467      1.0  0.78680  0.26540  0.02340  1.0000
  O   O468      1.0  0.71320  0.76540  0.97660  1.0000
  O   O469      1.0  0.03680  0.22660  0.51540  1.0000
  O   O470      1.0  0.96320  0.27340  0.01540  1.0000
  O   O471      1.0  0.53680  0.77340  0.98460  1.0000
  O   O472      1.0  0.46320  0.72660  0.48460  1.0000
  O   O473      1.0  0.72660  0.98460  0.96320  1.0000
  O   O474      1.0  0.77340  0.48460  0.03680  1.0000
  O   O475      1.0  0.27340  0.51540  0.46320  1.0000
  O   O476      1.0  0.22660  0.01540  0.53680  1.0000
  O   O477      1.0  0.48460  0.53680  0.27340  1.0000
  O   O478      1.0  0.98460  0.46320  0.22660  1.0000
  O   O479      1.0  0.01540  0.03680  0.72660  1.0000
  O   O480      1.0  0.51540  0.96320  0.77340  1.0000
  O   O481      1.0  0.48958  0.74550  0.21610  1.0000
  O   O482      1.0  0.51042  0.75450  0.71610  1.0000
  O   O483      1.0  0.01042  0.24550  0.78390  1.0000
  O   O484      1.0  0.98958  0.25450  0.28390  1.0000
  O   O485      1.0  0.21610  0.48958  0.74550  1.0000
  O   O486      1.0  0.71610  0.51042  0.75450  1.0000
  O   O487      1.0  0.78390  0.01042  0.24550  1.0000
  O   O488      1.0  0.28390  0.98958  0.25450  1.0000
  O   O489      1.0  0.74550  0.21610  0.48958  1.0000
  O   O490      1.0  0.75450  0.71610  0.51042  1.0000
  O   O491      1.0  0.24550  0.78390  0.01042  1.0000
  O   O492      1.0  0.25450  0.28390  0.98958  1.0000
  O   O493      1.0  0.49550  0.73958  0.53390  1.0000
  O   O494      1.0  0.50450  0.76042  0.03390  1.0000
  O   O495      1.0  0.99550  0.26042  0.96610  1.0000
  O   O496      1.0  0.00450  0.23958  0.46610  1.0000
  O   O497      1.0  0.23958  0.46610  0.00450  1.0000
  O   O498      1.0  0.26042  0.96610  0.99550  1.0000
  O   O499      1.0  0.76042  0.03390  0.50450  1.0000
  O   O500      1.0  0.73958  0.53390  0.49550  1.0000
  O   O501      1.0  0.96610  0.99550  0.26042  1.0000
  O   O502      1.0  0.46610  0.00450  0.23958  1.0000
  O   O503      1.0  0.53390  0.49550  0.73958  1.0000
  O   O504      1.0  0.03390  0.50450  0.76042  1.0000
  O   O505      1.0  0.48958  0.24550  0.71610  1.0000
  O   O506      1.0  0.51042  0.25450  0.21610  1.0000
  O   O507      1.0  0.01042  0.74550  0.28390  1.0000
  O   O508      1.0  0.98958  0.75450  0.78390  1.0000
  O   O509      1.0  0.21610  0.98958  0.24550  1.0000
  O   O510      1.0  0.71610  0.01042  0.25450  1.0000
  O   O511      1.0  0.78390  0.51042  0.74550  1.0000
  O   O512      1.0  0.28390  0.48958  0.75450  1.0000
  O   O513      1.0  0.74550  0.71610  0.98958  1.0000
  O   O514      1.0  0.75450  0.21610  0.01042  1.0000
  O   O515      1.0  0.24550  0.28390  0.51042  1.0000
  O   O516      1.0  0.25450  0.78390  0.48958  1.0000
  O   O517      1.0  0.49550  0.23958  0.03390  1.0000
  O   O518      1.0  0.50450  0.26042  0.53390  1.0000
  O   O519      1.0  0.99550  0.76042  0.46610  1.0000
  O   O520      1.0  0.00450  0.73958  0.96610  1.0000
  O   O521      1.0  0.23958  0.96610  0.50450  1.0000
  O   O522      1.0  0.26042  0.46610  0.49550  1.0000
  O   O523      1.0  0.76042  0.53390  0.00450  1.0000
  O   O524      1.0  0.73958  0.03390  0.99550  1.0000
  O   O525      1.0  0.96610  0.49550  0.76042  1.0000
  O   O526      1.0  0.46610  0.50450  0.73958  1.0000
  O   O527      1.0  0.53390  0.99550  0.23958  1.0000
  O   O528      1.0  0.03390  0.00450  0.26042  1.0000
  O   O529      1.0  0.98958  0.74550  0.71610  1.0000
  O   O530      1.0  0.01042  0.75450  0.21610  1.0000
  O   O531      1.0  0.51042  0.24550  0.28390  1.0000
  O   O532      1.0  0.48958  0.25450  0.78390  1.0000
  O   O533      1.0  0.71610  0.48958  0.24550  1.0000
  O   O534      1.0  0.21610  0.51042  0.25450  1.0000
  O   O535      1.0  0.28390  0.01042  0.74550  1.0000
  O   O536      1.0  0.78390  0.98958  0.75450  1.0000
  O   O537      1.0  0.24550  0.21610  0.98958  1.0000
  O   O538      1.0  0.25450  0.71610  0.01042  1.0000
  O   O539      1.0  0.74550  0.78390  0.51042  1.0000
  O   O540      1.0  0.75450  0.28390  0.48958  1.0000
  O   O541      1.0  0.99550  0.73958  0.03390  1.0000
  O   O542      1.0  0.00450  0.76042  0.53390  1.0000
  O   O543      1.0  0.49550  0.26042  0.46610  1.0000
  O   O544      1.0  0.50450  0.23958  0.96610  1.0000
  O   O545      1.0  0.73958  0.46610  0.50450  1.0000
  O   O546      1.0  0.76042  0.96610  0.49550  1.0000
  O   O547      1.0  0.26042  0.03390  0.00450  1.0000
  O   O548      1.0  0.23958  0.53390  0.99550  1.0000
  O   O549      1.0  0.46610  0.99550  0.76042  1.0000
  O   O550      1.0  0.96610  0.00450  0.73958  1.0000
  O   O551      1.0  0.03390  0.49550  0.23958  1.0000
  O   O552      1.0  0.53390  0.50450  0.26042  1.0000
  O   O553      1.0  0.98958  0.24550  0.21610  1.0000
  O   O554      1.0  0.01042  0.25450  0.71610  1.0000
  O   O555      1.0  0.51042  0.74550  0.78390  1.0000
  O   O556      1.0  0.48958  0.75450  0.28390  1.0000
  O   O557      1.0  0.71610  0.98958  0.74550  1.0000
  O   O558      1.0  0.21610  0.01042  0.75450  1.0000
  O   O559      1.0  0.28390  0.51042  0.24550  1.0000
  O   O560      1.0  0.78390  0.48958  0.25450  1.0000
  O   O561      1.0  0.24550  0.71610  0.48958  1.0000
  O   O562      1.0  0.25450  0.21610  0.51042  1.0000
  O   O563      1.0  0.74550  0.28390  0.01042  1.0000
  O   O564      1.0  0.75450  0.78390  0.98958  1.0000
  O   O565      1.0  0.99550  0.23958  0.53390  1.0000
  O   O566      1.0  0.00450  0.26042  0.03390  1.0000
  O   O567      1.0  0.49550  0.76042  0.96610  1.0000
  O   O568      1.0  0.50450  0.73958  0.46610  1.0000
  O   O569      1.0  0.73958  0.96610  0.00450  1.0000
  O   O570      1.0  0.76042  0.46610  0.99550  1.0000
  O   O571      1.0  0.26042  0.53390  0.50450  1.0000
  O   O572      1.0  0.23958  0.03390  0.49550  1.0000
  O   O573      1.0  0.46610  0.49550  0.26042  1.0000
  O   O574      1.0  0.96610  0.50450  0.23958  1.0000
  O   O575      1.0  0.03390  0.99550  0.73958  1.0000
  O   O576      1.0  0.53390  0.00450  0.76042  1.0000
  O   O577      1.0  0.41693  0.69113  0.15098  1.0000
  O   O578      1.0  0.58307  0.80887  0.65098  1.0000
  O   O579      1.0  0.08307  0.19113  0.84902  1.0000
  O   O580      1.0  0.91693  0.30887  0.34902  1.0000
  O   O581      1.0  0.15098  0.41693  0.69113  1.0000
  O   O582      1.0  0.65098  0.58307  0.80887  1.0000
  O   O583      1.0  0.84902  0.08307  0.19113  1.0000
  O   O584      1.0  0.34902  0.91693  0.30887  1.0000
  O   O585      1.0  0.69113  0.15098  0.41693  1.0000
  O   O586      1.0  0.80887  0.65098  0.58307  1.0000
  O   O587      1.0  0.19113  0.84902  0.08307  1.0000
  O   O588      1.0  0.30887  0.34902  0.91693  1.0000
  O   O589      1.0  0.44113  0.66693  0.59902  1.0000
  O   O590      1.0  0.55887  0.83307  0.09902  1.0000
  O   O591      1.0  0.94113  0.33307  0.90098  1.0000
  O   O592      1.0  0.05887  0.16693  0.40098  1.0000
  O   O593      1.0  0.16693  0.40098  0.05887  1.0000
  O   O594      1.0  0.33307  0.90098  0.94113  1.0000
  O   O595      1.0  0.83307  0.09902  0.55887  1.0000
  O   O596      1.0  0.66693  0.59902  0.44113  1.0000
  O   O597      1.0  0.90098  0.94113  0.33307  1.0000
  O   O598      1.0  0.40098  0.05887  0.16693  1.0000
  O   O599      1.0  0.59902  0.44113  0.66693  1.0000
  O   O600      1.0  0.09902  0.55887  0.83307  1.0000
  O   O601      1.0  0.41693  0.19113  0.65098  1.0000
  O   O602      1.0  0.58307  0.30887  0.15098  1.0000
  O   O603      1.0  0.08307  0.69113  0.34902  1.0000
  O   O604      1.0  0.91693  0.80887  0.84902  1.0000
  O   O605      1.0  0.15098  0.91693  0.19113  1.0000
  O   O606      1.0  0.65098  0.08307  0.30887  1.0000
  O   O607      1.0  0.84902  0.58307  0.69113  1.0000
  O   O608      1.0  0.34902  0.41693  0.80887  1.0000
  O   O609      1.0  0.69113  0.65098  0.91693  1.0000
  O   O610      1.0  0.80887  0.15098  0.08307  1.0000
  O   O611      1.0  0.19113  0.34902  0.58307  1.0000
  O   O612      1.0  0.30887  0.84902  0.41693  1.0000
  O   O613      1.0  0.44113  0.16693  0.09902  1.0000
  O   O614      1.0  0.55887  0.33307  0.59902  1.0000
  O   O615      1.0  0.94113  0.83307  0.40098  1.0000
  O   O616      1.0  0.05887  0.66693  0.90098  1.0000
  O   O617      1.0  0.16693  0.90098  0.55887  1.0000
  O   O618      1.0  0.33307  0.40098  0.44113  1.0000
  O   O619      1.0  0.83307  0.59902  0.05887  1.0000
  O   O620      1.0  0.66693  0.09902  0.94113  1.0000
  O   O621      1.0  0.90098  0.44113  0.83307  1.0000
  O   O622      1.0  0.40098  0.55887  0.66693  1.0000
  O   O623      1.0  0.59902  0.94113  0.16693  1.0000
  O   O624      1.0  0.09902  0.05887  0.33307  1.0000
  O   O625      1.0  0.91693  0.69113  0.65098  1.0000
  O   O626      1.0  0.08307  0.80887  0.15098  1.0000
  O   O627      1.0  0.58307  0.19113  0.34902  1.0000
  O   O628      1.0  0.41693  0.30887  0.84902  1.0000
  O   O629      1.0  0.65098  0.41693  0.19113  1.0000
  O   O630      1.0  0.15098  0.58307  0.30887  1.0000
  O   O631      1.0  0.34902  0.08307  0.69113  1.0000
  O   O632      1.0  0.84902  0.91693  0.80887  1.0000
  O   O633      1.0  0.19113  0.15098  0.91693  1.0000
  O   O634      1.0  0.30887  0.65098  0.08307  1.0000
  O   O635      1.0  0.69113  0.84902  0.58307  1.0000
  O   O636      1.0  0.80887  0.34902  0.41693  1.0000
  O   O637      1.0  0.94113  0.66693  0.09902  1.0000
  O   O638      1.0  0.05887  0.83307  0.59902  1.0000
  O   O639      1.0  0.44113  0.33307  0.40098  1.0000
  O   O640      1.0  0.55887  0.16693  0.90098  1.0000
  O   O641      1.0  0.66693  0.40098  0.55887  1.0000
  O   O642      1.0  0.83307  0.90098  0.44113  1.0000
  O   O643      1.0  0.33307  0.09902  0.05887  1.0000
  O   O644      1.0  0.16693  0.59902  0.94113  1.0000
  O   O645      1.0  0.40098  0.94113  0.83307  1.0000
  O   O646      1.0  0.90098  0.05887  0.66693  1.0000
  O   O647      1.0  0.09902  0.44113  0.16693  1.0000
  O   O648      1.0  0.59902  0.55887  0.33307  1.0000
  O   O649      1.0  0.91693  0.19113  0.15098  1.0000
  O   O650      1.0  0.08307  0.30887  0.65098  1.0000
  O   O651      1.0  0.58307  0.69113  0.84902  1.0000
  O   O652      1.0  0.41693  0.80887  0.34902  1.0000
  O   O653      1.0  0.65098  0.91693  0.69113  1.0000
  O   O654      1.0  0.15098  0.08307  0.80887  1.0000
  O   O655      1.0  0.34902  0.58307  0.19113  1.0000
  O   O656      1.0  0.84902  0.41693  0.30887  1.0000
  O   O657      1.0  0.19113  0.65098  0.41693  1.0000
  O   O658      1.0  0.30887  0.15098  0.58307  1.0000
  O   O659      1.0  0.69113  0.34902  0.08307  1.0000
  O   O660      1.0  0.80887  0.84902  0.91693  1.0000
  O   O661      1.0  0.94113  0.16693  0.59902  1.0000
  O   O662      1.0  0.05887  0.33307  0.09902  1.0000
  O   O663      1.0  0.44113  0.83307  0.90098  1.0000
  O   O664      1.0  0.55887  0.66693  0.40098  1.0000
  O   O665      1.0  0.66693  0.90098  0.05887  1.0000
  O   O666      1.0  0.83307  0.40098  0.94113  1.0000
  O   O667      1.0  0.33307  0.59902  0.55887  1.0000
  O   O668      1.0  0.16693  0.09902  0.44113  1.0000
  O   O669      1.0  0.40098  0.44113  0.33307  1.0000
  O   O670      1.0  0.90098  0.55887  0.16693  1.0000
  O   O671      1.0  0.09902  0.94113  0.66693  1.0000
  O   O672      1.0  0.59902  0.05887  0.83307  1.0000
  O   O673      1.0  0.37612  0.71366  0.13440  1.0000
  O   O674      1.0  0.62388  0.78634  0.63440  1.0000
  O   O675      1.0  0.12388  0.21366  0.86560  1.0000
  O   O676      1.0  0.87612  0.28634  0.36560  1.0000
  O   O677      1.0  0.13440  0.37612  0.71366  1.0000
  O   O678      1.0  0.63440  0.62388  0.78634  1.0000
  O   O679      1.0  0.86560  0.12388  0.21366  1.0000
  O   O680      1.0  0.36560  0.87612  0.28634  1.0000
  O   O681      1.0  0.71366  0.13440  0.37612  1.0000
  O   O682      1.0  0.78634  0.63440  0.62388  1.0000
  O   O683      1.0  0.21366  0.86560  0.12388  1.0000
  O   O684      1.0  0.28634  0.36560  0.87612  1.0000
  O   O685      1.0  0.46366  0.62612  0.61560  1.0000
  O   O686      1.0  0.53634  0.87388  0.11560  1.0000
  O   O687      1.0  0.96366  0.37388  0.88440  1.0000
  O   O688      1.0  0.03634  0.12612  0.38440  1.0000
  O   O689      1.0  0.12612  0.38440  0.03634  1.0000
  O   O690      1.0  0.37388  0.88440  0.96366  1.0000
  O   O691      1.0  0.87388  0.11560  0.53634  1.0000
  O   O692      1.0  0.62612  0.61560  0.46366  1.0000
  O   O693      1.0  0.88440  0.96366  0.37388  1.0000
  O   O694      1.0  0.38440  0.03634  0.12612  1.0000
  O   O695      1.0  0.61560  0.46366  0.62612  1.0000
  O   O696      1.0  0.11560  0.53634  0.87388  1.0000
  O   O697      1.0  0.37612  0.21366  0.63440  1.0000
  O   O698      1.0  0.62388  0.28634  0.13440  1.0000
  O   O699      1.0  0.12388  0.71366  0.36560  1.0000
  O   O700      1.0  0.87612  0.78634  0.86560  1.0000
  O   O701      1.0  0.13440  0.87612  0.21366  1.0000
  O   O702      1.0  0.63440  0.12388  0.28634  1.0000
  O   O703      1.0  0.86560  0.62388  0.71366  1.0000
  O   O704      1.0  0.36560  0.37612  0.78634  1.0000
  O   O705      1.0  0.71366  0.63440  0.87612  1.0000
  O   O706      1.0  0.78634  0.13440  0.12388  1.0000
  O   O707      1.0  0.21366  0.36560  0.62388  1.0000
  O   O708      1.0  0.28634  0.86560  0.37612  1.0000
  O   O709      1.0  0.46366  0.12612  0.11560  1.0000
  O   O710      1.0  0.53634  0.37388  0.61560  1.0000
  O   O711      1.0  0.96366  0.87388  0.38440  1.0000
  O   O712      1.0  0.03634  0.62612  0.88440  1.0000
  O   O713      1.0  0.12612  0.88440  0.53634  1.0000
  O   O714      1.0  0.37388  0.38440  0.46366  1.0000
  O   O715      1.0  0.87388  0.61560  0.03634  1.0000
  O   O716      1.0  0.62612  0.11560  0.96366  1.0000
  O   O717      1.0  0.88440  0.46366  0.87388  1.0000
  O   O718      1.0  0.38440  0.53634  0.62612  1.0000
  O   O719      1.0  0.61560  0.96366  0.12612  1.0000
  O   O720      1.0  0.11560  0.03634  0.37388  1.0000
  O   O721      1.0  0.87612  0.71366  0.63440  1.0000
  O   O722      1.0  0.12388  0.78634  0.13440  1.0000
  O   O723      1.0  0.62388  0.21366  0.36560  1.0000
  O   O724      1.0  0.37612  0.28634  0.86560  1.0000
  O   O725      1.0  0.63440  0.37612  0.21366  1.0000
  O   O726      1.0  0.13440  0.62388  0.28634  1.0000
  O   O727      1.0  0.36560  0.12388  0.71366  1.0000
  O   O728      1.0  0.86560  0.87612  0.78634  1.0000
  O   O729      1.0  0.21366  0.13440  0.87612  1.0000
  O   O730      1.0  0.28634  0.63440  0.12388  1.0000
  O   O731      1.0  0.71366  0.86560  0.62388  1.0000
  O   O732      1.0  0.78634  0.36560  0.37612  1.0000
  O   O733      1.0  0.96366  0.62612  0.11560  1.0000
  O   O734      1.0  0.03634  0.87388  0.61560  1.0000
  O   O735      1.0  0.46366  0.37388  0.38440  1.0000
  O   O736      1.0  0.53634  0.12612  0.88440  1.0000
  O   O737      1.0  0.62612  0.38440  0.53634  1.0000
  O   O738      1.0  0.87388  0.88440  0.46366  1.0000
  O   O739      1.0  0.37388  0.11560  0.03634  1.0000
  O   O740      1.0  0.12612  0.61560  0.96366  1.0000
  O   O741      1.0  0.38440  0.96366  0.87388  1.0000
  O   O742      1.0  0.88440  0.03634  0.62612  1.0000
  O   O743      1.0  0.11560  0.46366  0.12612  1.0000
  O   O744      1.0  0.61560  0.53634  0.37388  1.0000
  O   O745      1.0  0.87612  0.21366  0.13440  1.0000
  O   O746      1.0  0.12388  0.28634  0.63440  1.0000
  O   O747      1.0  0.62388  0.71366  0.86560  1.0000
  O   O748      1.0  0.37612  0.78634  0.36560  1.0000
  O   O749      1.0  0.63440  0.87612  0.71366  1.0000
  O   O750      1.0  0.13440  0.12388  0.78634  1.0000
  O   O751      1.0  0.36560  0.62388  0.21366  1.0000
  O   O752      1.0  0.86560  0.37612  0.28634  1.0000
  O   O753      1.0  0.21366  0.63440  0.37612  1.0000
  O   O754      1.0  0.28634  0.13440  0.62388  1.0000
  O   O755      1.0  0.71366  0.36560  0.12388  1.0000
  O   O756      1.0  0.78634  0.86560  0.87612  1.0000
  O   O757      1.0  0.96366  0.12612  0.61560  1.0000
  O   O758      1.0  0.03634  0.37388  0.11560  1.0000
  O   O759      1.0  0.46366  0.87388  0.88440  1.0000
  O   O760      1.0  0.53634  0.62612  0.38440  1.0000
  O   O761      1.0  0.62612  0.88440  0.03634  1.0000
  O   O762      1.0  0.87388  0.38440  0.96366  1.0000
  O   O763      1.0  0.37388  0.61560  0.53634  1.0000
  O   O764      1.0  0.12612  0.11560  0.46366  1.0000
  O   O765      1.0  0.38440  0.46366  0.37388  1.0000
  O   O766      1.0  0.88440  0.53634  0.12612  1.0000
  O   O767      1.0  0.11560  0.96366  0.62612  1.0000
  O   O768      1.0  0.61560  0.03634  0.87388  1.0000
  O   O769      1.0  0.36181  0.63819  0.13819  1.0000
  O   O770      1.0  0.63819  0.86181  0.63819  1.0000
  O   O771      1.0  0.13819  0.13819  0.86181  1.0000
  O   O772      1.0  0.86181  0.36181  0.36181  1.0000
  O   O773      1.0  0.13819  0.36181  0.63819  1.0000
  O   O774      1.0  0.63819  0.63819  0.86181  1.0000
  O   O775      1.0  0.86181  0.13819  0.13819  1.0000
  O   O776      1.0  0.36181  0.86181  0.36181  1.0000
  O   O777      1.0  0.63819  0.13819  0.36181  1.0000
  O   O778      1.0  0.86181  0.63819  0.63819  1.0000
  O   O779      1.0  0.13819  0.86181  0.13819  1.0000
  O   O780      1.0  0.36181  0.36181  0.86181  1.0000
  O   O781      1.0  0.38819  0.61181  0.61181  1.0000
  O   O782      1.0  0.61181  0.88819  0.11181  1.0000
  O   O783      1.0  0.88819  0.38819  0.88819  1.0000
  O   O784      1.0  0.11181  0.11181  0.38819  1.0000
  O   O785      1.0  0.11181  0.38819  0.11181  1.0000
  O   O786      1.0  0.38819  0.88819  0.88819  1.0000
  O   O787      1.0  0.88819  0.11181  0.61181  1.0000
  O   O788      1.0  0.61181  0.61181  0.38819  1.0000
  O   O789      1.0  0.88819  0.88819  0.38819  1.0000
  O   O790      1.0  0.38819  0.11181  0.11181  1.0000
  O   O791      1.0  0.61181  0.38819  0.61181  1.0000
  O   O792      1.0  0.11181  0.61181  0.88819  1.0000
  O   O793      1.0  0.36181  0.13819  0.63819  1.0000
  O   O794      1.0  0.63819  0.36181  0.13819  1.0000
  O   O795      1.0  0.13819  0.63819  0.36181  1.0000
  O   O796      1.0  0.86181  0.86181  0.86181  1.0000
  O   O797      1.0  0.11181  0.88819  0.61181  1.0000
  O   O798      1.0  0.38819  0.38819  0.38819  1.0000
  O   O799      1.0  0.88819  0.61181  0.11181  1.0000
  O   O800      1.0  0.61181  0.11181  0.88819  1.0000
