data_image0
_chemical_formula_structural       U3P4C2HCHCHCHCHC2HCHCHCHCHC2HCHCHCHCHC2HCHCHCHCHO18
_chemical_formula_sum              "U3 P4 C24 H20 O18"
_cell_length_a       9.7096
_cell_length_b       10.6095
_cell_length_c       14.018
_cell_angle_alpha    101.815
_cell_angle_beta     93.434
_cell_angle_gamma    117.157

_space_group_name_H-M_alt    "P 1"
_space_group_IT_number       1

loop_
  _space_group_symop_operation_xyz
  'x, y, z'

loop_
  _atom_site_type_symbol
  _atom_site_label
  _atom_site_symmetry_multiplicity
  _atom_site_fract_x
  _atom_site_fract_y
  _atom_site_fract_z
  _atom_site_occupancy
  U   U1        1.0  0.64346  0.37945  0.91539  1.0000
  U   U2        1.0  0.32901  0.83296  0.93447  1.0000
  U   U3        1.0  0.96714  0.93839  0.93497  1.0000
  P   P1        1.0  0.30780  0.18060  0.03710  1.0000
  P   P2        1.0  0.55460  0.64400  0.84240  1.0000
  P   P3        1.0  0.99590  0.59810  0.81710  1.0000
  P   P4        1.0  0.73870  0.12670  0.01060  1.0000
  C   C1        1.0  0.36100  0.21640  0.16850  1.0000
  C   C2        1.0  0.51100  0.26400  0.21430  1.0000
  H   H1        1.0  0.58900  0.27960  0.17600  1.0000
  C   C3        1.0  0.54900  0.28800  0.31350  1.0000
  H   H2        1.0  0.65210  0.32020  0.34240  1.0000
  C   C4        1.0  0.43300  0.26500  0.37200  1.0000
  H   H3        1.0  0.45660  0.27640  0.43950  1.0000
  C   C5        1.0  0.28300  0.22500  0.33000  1.0000
  H   H4        1.0  0.20690  0.21610  0.36930  1.0000
  C   C6        1.0  0.24600  0.19900  0.22750  1.0000
  H   H5        1.0  0.14370  0.16860  0.19840  1.0000
  C   C7        1.0  0.47600  0.61600  0.71560  1.0000
  C   C8        1.0  0.35900  0.47800  0.66350  1.0000
  H   H6        1.0  0.32080  0.40080  0.69350  1.0000
  C   C9        1.0  0.30100  0.45600  0.56550  1.0000
  H   H7        1.0  0.22600  0.36290  0.52880  1.0000
  C   C10       1.0  0.35000  0.56900  0.52250  1.0000
  H   H8        1.0  0.30650  0.55190  0.45730  1.0000
  C   C11       1.0  0.46400  0.70800  0.57350  1.0000
  H   H9        1.0  0.50110  0.78330  0.54230  1.0000
  C   C12       1.0  0.52400  0.73400  0.67400  1.0000
  H   H10       1.0  0.59480  0.82810  0.71150  1.0000
  C   C13       1.0  0.95700  0.60410  0.69340  1.0000
  C   C14       1.0  0.80300  0.56800  0.65450  1.0000
  H   H11       1.0  0.72520  0.54210  0.69340  1.0000
  C   C15       1.0  0.76700  0.57000  0.55400  1.0000
  H   H12       1.0  0.66520  0.54510  0.52670  1.0000
  C   C16       1.0  0.88600  0.61000  0.49890  1.0000
  H   H13       1.0  0.86550  0.61440  0.43430  1.0000
  C   C17       1.0  0.03100  0.64200  0.53760  1.0000
  H   H14       1.0  0.10910  0.66900  0.49900  1.0000
  C   C18       1.0  0.06800  0.63800  0.63100  1.0000
  H   H15       1.0  0.16960  0.65810  0.65410  1.0000
  C   C19       1.0  0.83900  0.21200  0.13760  1.0000
  C   C20       1.0  0.80500  0.12800  0.20660  1.0000
  H   H16       1.0  0.73710  0.02780  0.18520  1.0000
  C   C21       1.0  0.86900  0.19100  0.30490  1.0000
  H   H17       1.0  0.83860  0.13540  0.35040  1.0000
  C   C22       1.0  0.98100  0.34100  0.33690  1.0000
  H   H18       1.0  0.02880  0.38400  0.40300  1.0000
  C   C23       1.0  0.02100  0.42600  0.26720  1.0000
  H   H19       1.0  0.09530  0.52460  0.28650  1.0000
  C   C24       1.0  0.94600  0.35800  0.16860  1.0000
  H   H20       1.0  0.96840  0.41360  0.12290  1.0000
  O   O1        1.0  0.93580  0.89780  0.05000  1.0000
  O   O2        1.0  0.00360  0.97430  0.81900  1.0000
  O   O3        1.0  0.72800  0.74670  0.85700  1.0000
  O   O4        1.0  0.82140  0.05420  0.95220  1.0000
  O   O5        1.0  0.04000  0.74960  0.88590  1.0000
  O   O6        1.0  0.16220  0.19390  0.01620  1.0000
  O   O7        1.0  0.44630  0.28480  0.00180  1.0000
  O   O8        1.0  0.54080  0.23270  0.80730  1.0000
  O   O9        1.0  0.74730  0.52940  0.01960  1.0000
  O   O10       1.0  0.29220  0.77560  0.04270  1.0000
  O   O11       1.0  0.36230  0.88330  0.82220  1.0000
  O   O12       1.0  0.14770  0.58610  0.83410  1.0000
  O   O13       1.0  0.25800  0.01890  0.98850  1.0000
  O   O14       1.0  0.47350  0.70390  0.91400  1.0000
  O   O15       1.0  0.57120  0.01750  0.01530  1.0000
  O   O16       1.0  0.74130  0.25070  0.97200  1.0000
  O   O17       1.0  0.52410  0.49360  0.85400  1.0000
  O   O18       1.0  0.84940  0.47400  0.83360  1.0000
