data_image0
_chemical_formula_structural       U4S4O36C4H2C2H2C2H2C12H2C2H2C2H2C8
_chemical_formula_sum              "U4 S4 O36 C32 H12"
_cell_length_a       12.8625
_cell_length_b       13.1683
_cell_length_c       17.2155
_cell_angle_alpha    72.216
_cell_angle_beta     71.658
_cell_angle_gamma    71.066

_space_group_name_H-M_alt    "P 1"
_space_group_IT_number       1

loop_
  _space_group_symop_operation_xyz
  'x, y, z'

loop_
  _atom_site_type_symbol
  _atom_site_label
  _atom_site_symmetry_multiplicity
  _atom_site_fract_x
  _atom_site_fract_y
  _atom_site_fract_z
  _atom_site_occupancy
  U   U1        1.0  0.15839  0.00601  0.42030  1.0000
  U   U2        1.0  0.84161  0.99399  0.57970  1.0000
  U   U3        1.0  0.37156  0.93854  0.09197  1.0000
  U   U4        1.0  0.62845  0.06146  0.90803  1.0000
  S   S1        1.0  0.77192  0.81347  0.48440  1.0000
  S   S2        1.0  0.22808  0.18653  0.51560  1.0000
  S   S3        1.0  0.72238  0.18016  0.03543  1.0000
  S   S4        1.0  0.27762  0.81984  0.96457  1.0000
  O   O1        1.0  0.10580  0.13800  0.36320  1.0000
  O   O2        1.0  0.89420  0.86200  0.63680  1.0000
  O   O3        1.0  0.21520  0.87330  0.47540  1.0000
  O   O4        1.0  0.78480  0.12670  0.52460  1.0000
  O   O5        1.0  0.47080  0.82710  0.13580  1.0000
  O   O6        1.0  0.52920  0.17290  0.86420  1.0000
  O   O7        1.0  0.26960  0.04850  0.05080  1.0000
  O   O8        1.0  0.73040  0.95150  0.94920  1.0000
  O   O9        1.0  0.77250  0.91610  0.50400  1.0000
  O   O10       1.0  0.22750  0.08390  0.49600  1.0000
  O   O11       1.0  0.67330  0.83130  0.45560  1.0000
  O   O12       1.0  0.32670  0.16870  0.54440  1.0000
  O   O13       1.0  0.79360  0.71830  0.55160  1.0000
  O   O14       1.0  0.20640  0.28170  0.44840  1.0000
  O   O15       1.0  0.90410  0.04540  0.33760  1.0000
  O   O16       1.0  0.09590  0.95460  0.66240  1.0000
  O   O17       1.0  0.97960  0.96010  0.44920  1.0000
  O   O18       1.0  0.02040  0.03990  0.55080  1.0000
  O   O19       1.0  0.16130  0.93450  0.31110  1.0000
  O   O20       1.0  0.83870  0.06550  0.68890  1.0000
  O   O21       1.0  0.22430  0.86710  0.19740  1.0000
  O   O22       1.0  0.77570  0.13290  0.80260  1.0000
  O   O23       1.0  0.34600  0.00200  0.33450  1.0000
  O   O24       1.0  0.65400  0.99800  0.66550  1.0000
  O   O25       1.0  0.34700  0.02240  0.20090  1.0000
  O   O26       1.0  0.65300  0.97760  0.79910  1.0000
  O   O27       1.0  0.41930  0.22370  0.08320  1.0000
  O   O28       1.0  0.58070  0.77630  0.91680  1.0000
  O   O29       1.0  0.49550  0.06230  0.04350  1.0000
  O   O30       1.0  0.50450  0.93770  0.95650  1.0000
  O   O31       1.0  0.66770  0.17400  0.97330  1.0000
  O   O32       1.0  0.33230  0.82600  0.02670  1.0000
  O   O33       1.0  0.68810  0.29020  0.04750  1.0000
  O   O34       1.0  0.31190  0.70980  0.95250  1.0000
  O   O35       1.0  0.84180  0.13430  0.01410  1.0000
  O   O36       1.0  0.15820  0.86570  0.98590  1.0000
  C   C1        1.0  0.89020  0.78930  0.39850  1.0000
  C   C2        1.0  0.10980  0.21070  0.60150  1.0000
  C   C3        1.0  0.90510  0.69600  0.36960  1.0000
  C   C4        1.0  0.09490  0.30400  0.63040  1.0000
  H   H1        1.0  0.85280  0.65350  0.39360  1.0000
  H   H2        1.0  0.14720  0.34650  0.60640  1.0000
  C   C5        1.0  0.99760  0.66650  0.30540  1.0000
  C   C6        1.0  0.00240  0.33350  0.69460  1.0000
  H   H3        1.0  0.00630  0.60510  0.28570  1.0000
  H   H4        1.0  0.99370  0.39490  0.71430  1.0000
  C   C7        1.0  0.07660  0.72800  0.27060  1.0000
  C   C8        1.0  0.92340  0.27200  0.72940  1.0000
  H   H5        1.0  0.13850  0.70770  0.22760  1.0000
  H   H6        1.0  0.86150  0.29230  0.77240  1.0000
  C   C9        1.0  0.06450  0.81890  0.29900  1.0000
  C   C10       1.0  0.93550  0.18110  0.70100  1.0000
  C   C11       1.0  0.96790  0.85250  0.36280  1.0000
  C   C12       1.0  0.03210  0.14750  0.63720  1.0000
  C   C13       1.0  0.15900  0.87450  0.26640  1.0000
  C   C14       1.0  0.84100  0.12550  0.73360  1.0000
  C   C15       1.0  0.94660  0.96350  0.38200  1.0000
  C   C16       1.0  0.05340  0.03650  0.61800  1.0000
  C   C17       1.0  0.66620  0.09500  0.13040  1.0000
  C   C18       1.0  0.33380  0.90500  0.86960  1.0000
  C   C19       1.0  0.73520  0.04110  0.18690  1.0000
  C   C20       1.0  0.26480  0.95890  0.81310  1.0000
  H   H7        1.0  0.80820  0.04970  0.17310  1.0000
  H   H8        1.0  0.19180  0.95030  0.82690  1.0000
  C   C21       1.0  0.69600  0.97570  0.26250  1.0000
  C   C22       1.0  0.30400  0.02430  0.73750  1.0000
  H   H9        1.0  0.74390  0.93720  0.29840  1.0000
  H   H10       1.0  0.25610  0.06280  0.70160  1.0000
  C   C23       1.0  0.58540  0.96660  0.28590  1.0000
  C   C24       1.0  0.41460  0.03340  0.71410  1.0000
  H   H11       1.0  0.55830  0.92410  0.33810  1.0000
  H   H12       1.0  0.44170  0.07590  0.66190  1.0000
  C   C25       1.0  0.51590  0.02070  0.23130  1.0000
  C   C26       1.0  0.48410  0.97930  0.76870  1.0000
  C   C27       1.0  0.55610  0.08380  0.15170  1.0000
  C   C28       1.0  0.44390  0.91620  0.84830  1.0000
  C   C29       1.0  0.39570  0.01170  0.25690  1.0000
  C   C30       1.0  0.60430  0.98830  0.74310  1.0000
  C   C31       1.0  0.48190  0.13290  0.08920  1.0000
  C   C32       1.0  0.51810  0.86710  0.91080  1.0000
