data_image0
_chemical_formula_structural       Co4C4H2C2H2C8H2C2H2C8H2C2H2C8H2C2H2C4N8C4H2C4H2C2H2C2H2C2O4C4H2C4H2C2H2C2H2C2O4C4H2C4H2C2H2C2H2C2O4C4H2C4H2C2H2C2H2C2O4
_chemical_formula_sum              "Co4 C96 H48 N8 O16"
_cell_length_a       9.0754
_cell_length_b       14.5477
_cell_length_c       17.2021
_cell_angle_alpha    73.8877
_cell_angle_beta     85.6121
_cell_angle_gamma    81.146

_space_group_name_H-M_alt    "P 1"
_space_group_IT_number       1

loop_
  _space_group_symop_operation_xyz
  'x, y, z'

loop_
  _atom_site_type_symbol
  _atom_site_label
  _atom_site_symmetry_multiplicity
  _atom_site_fract_x
  _atom_site_fract_y
  _atom_site_fract_z
  _atom_site_occupancy
  Co  Co1       1.0  0.73479  0.09351  0.48109  1.0000
  Co  Co2       1.0  0.26521  0.90649  0.51891  1.0000
  Co  Co3       1.0  0.79658  0.70321  0.03750  1.0000
  Co  Co4       1.0  0.20342  0.29679  0.96250  1.0000
  C   C1        1.0  0.92950  0.10800  0.61030  1.0000
  C   C2        1.0  0.07050  0.89200  0.38970  1.0000
  C   C3        1.0  0.03130  0.04870  0.67050  1.0000
  C   C4        1.0  0.96870  0.95130  0.32950  1.0000
  H   H1        1.0  0.09400  0.07070  0.70120  1.0000
  H   H2        1.0  0.90600  0.92930  0.29880  1.0000
  C   C5        1.0  0.02050  0.95560  0.67490  1.0000
  C   C6        1.0  0.97950  0.04440  0.32510  1.0000
  H   H3        1.0  0.07460  0.89980  0.70910  1.0000
  H   H4        1.0  0.92540  0.10020  0.29090  1.0000
  C   C7        1.0  0.91210  0.95740  0.61830  1.0000
  C   C8        1.0  0.08790  0.04260  0.38170  1.0000
  C   C9        1.0  0.86070  0.87480  0.60970  1.0000
  C   C10       1.0  0.13930  0.12520  0.39030  1.0000
  C   C11       1.0  0.77010  0.87740  0.54810  1.0000
  C   C12       1.0  0.22990  0.12260  0.45190  1.0000
  C   C13       1.0  0.72730  0.79290  0.53440  1.0000
  C   C14       1.0  0.27270  0.20710  0.46560  1.0000
  H   H5        1.0  0.74280  0.72930  0.56940  1.0000
  H   H6        1.0  0.25720  0.27070  0.43060  1.0000
  C   C15       1.0  0.66060  0.82030  0.46250  1.0000
  C   C16       1.0  0.33940  0.17970  0.53750  1.0000
  H   H7        1.0  0.62420  0.77920  0.43630  1.0000
  H   H8        1.0  0.37580  0.22080  0.56370  1.0000
  C   C17       1.0  0.65510  0.92340  0.43300  1.0000
  C   C18       1.0  0.34490  0.07660  0.56700  1.0000
  C   C19       1.0  0.60030  0.97860  0.35830  1.0000
  C   C20       1.0  0.39970  0.02140  0.64170  1.0000
  C   C21       1.0  0.58680  0.07880  0.33490  1.0000
  C   C22       1.0  0.41320  0.92120  0.66510  1.0000
  C   C23       1.0  0.51560  0.13860  0.26240  1.0000
  C   C24       1.0  0.48440  0.86140  0.73760  1.0000
  H   H9        1.0  0.48280  0.11710  0.22020  1.0000
  H   H10       1.0  0.51720  0.88290  0.77980  1.0000
  C   C25       1.0  0.50440  0.23120  0.26600  1.0000
  C   C26       1.0  0.49560  0.76880  0.73400  1.0000
  H   H11       1.0  0.45990  0.28680  0.22730  1.0000
  H   H12       1.0  0.54010  0.71320  0.77270  1.0000
  C   C27       1.0  0.57190  0.23010  0.33880  1.0000
  C   C28       1.0  0.42810  0.76990  0.66120  1.0000
  C   C29       1.0  0.57860  0.31150  0.36450  1.0000
  C   C30       1.0  0.42140  0.68850  0.63550  1.0000
  C   C31       1.0  0.65030  0.30970  0.43350  1.0000
  C   C32       1.0  0.34970  0.69030  0.56650  1.0000
  C   C33       1.0  0.66110  0.39410  0.45970  1.0000
  C   C34       1.0  0.33890  0.60590  0.54030  1.0000
  H   H13       1.0  0.61340  0.45780  0.43660  1.0000
  H   H14       1.0  0.38660  0.54220  0.56340  1.0000
  C   C35       1.0  0.75150  0.36580  0.52290  1.0000
  C   C36       1.0  0.24850  0.63420  0.47710  1.0000
  H   H15       1.0  0.77970  0.40580  0.55280  1.0000
  H   H16       1.0  0.22030  0.59420  0.44720  1.0000
  C   C37       1.0  0.79760  0.26300  0.53690  1.0000
  C   C38       1.0  0.20240  0.73700  0.46310  1.0000
  C   C39       1.0  0.89640  0.20820  0.59570  1.0000
  C   C40       1.0  0.10360  0.79180  0.40430  1.0000
  N   N1        1.0  0.86140  0.05090  0.57547  1.0000
  N   N2        1.0  0.13860  0.94910  0.42453  1.0000
  N   N3        1.0  0.72080  0.95910  0.48638  1.0000
  N   N4        1.0  0.27920  0.04090  0.51362  1.0000
  N   N5        1.0  0.62500  0.13580  0.38108  1.0000
  N   N6        1.0  0.37500  0.86420  0.61892  1.0000
  N   N7        1.0  0.73170  0.22850  0.48264  1.0000
  N   N8        1.0  0.26830  0.77150  0.51736  1.0000
  C   C41       1.0  0.90630  0.78070  0.67150  1.0000
  C   C42       1.0  0.09370  0.21930  0.32850  1.0000
  C   C43       1.0  0.86690  0.77350  0.75240  1.0000
  C   C44       1.0  0.13310  0.22650  0.24760  1.0000
  H   H17       1.0  0.81050  0.82700  0.76730  1.0000
  H   H18       1.0  0.18950  0.17300  0.23270  1.0000
  C   C45       1.0  0.91030  0.68720  0.81250  1.0000
  C   C46       1.0  0.08970  0.31280  0.18750  1.0000
  C   C47       1.0  0.99230  0.60860  0.79070  1.0000
  C   C48       1.0  0.00770  0.39140  0.20930  1.0000
  H   H19       1.0  0.02270  0.55060  0.83110  1.0000
  H   H20       1.0  0.97730  0.44940  0.16890  1.0000
  C   C49       1.0  0.02940  0.61530  0.70990  1.0000
  C   C50       1.0  0.97060  0.38470  0.29010  1.0000
  H   H21       1.0  0.08360  0.56130  0.69480  1.0000
  H   H22       1.0  0.91640  0.43870  0.30520  1.0000
  C   C51       1.0  0.98770  0.70090  0.65040  1.0000
  C   C52       1.0  0.01230  0.29910  0.34960  1.0000
  H   H23       1.0  0.01480  0.70500  0.59520  1.0000
  H   H24       1.0  0.98520  0.29500  0.40480  1.0000
  C   C53       1.0  0.87260  0.68400  0.89900  1.0000
  C   C54       1.0  0.12740  0.31600  0.10100  1.0000
  O   O1        1.0  0.77060  0.74770  0.91582  1.0000
  O   O2        1.0  0.22940  0.25230  0.08418  1.0000
  O   O3        1.0  0.94050  0.62200  0.95543  1.0000
  O   O4        1.0  0.05950  0.37800  0.04457  1.0000
  C   C55       1.0  0.56340  0.92520  0.30080  1.0000
  C   C56       1.0  0.43660  0.07480  0.69920  1.0000
  C   C57       1.0  0.64320  0.93220  0.22760  1.0000
  C   C58       1.0  0.35680  0.06780  0.77240  1.0000
  H   H25       1.0  0.71120  0.97810  0.21070  1.0000
  H   H26       1.0  0.28880  0.02190  0.78930  1.0000
  C   C59       1.0  0.62510  0.87310  0.17850  1.0000
  C   C60       1.0  0.37490  0.12690  0.82150  1.0000
  C   C61       1.0  0.52300  0.80690  0.20320  1.0000
  C   C62       1.0  0.47700  0.19310  0.79680  1.0000
  H   H27       1.0  0.51030  0.76580  0.17060  1.0000
  H   H28       1.0  0.48970  0.23420  0.82940  1.0000
  C   C63       1.0  0.44070  0.80110  0.27470  1.0000
  C   C64       1.0  0.55930  0.19890  0.72530  1.0000
  H   H29       1.0  0.37160  0.75590  0.29120  1.0000
  H   H30       1.0  0.62840  0.24410  0.70880  1.0000
  C   C65       1.0  0.45830  0.86070  0.32260  1.0000
  C   C66       1.0  0.54170  0.13930  0.67740  1.0000
  H   H31       1.0  0.39830  0.85780  0.37070  1.0000
  H   H32       1.0  0.60170  0.14220  0.62930  1.0000
  C   C67       1.0  0.71690  0.87770  0.10210  1.0000
  C   C68       1.0  0.28310  0.12230  0.89790  1.0000
  O   O5        1.0  0.81740  0.93130  0.08480  1.0000
  O   O6        1.0  0.18260  0.06870  0.91520  1.0000
  O   O7        1.0  0.69010  0.82500  0.05788  1.0000
  O   O8        1.0  0.30990  0.17500  0.94212  1.0000
  C   C69       1.0  0.50740  0.40720  0.31340  1.0000
  C   C70       1.0  0.49260  0.59280  0.68660  1.0000
  C   C71       1.0  0.58130  0.45610  0.24370  1.0000
  C   C72       1.0  0.41870  0.54390  0.75630  1.0000
  H   H33       1.0  0.67880  0.43000  0.22940  1.0000
  H   H34       1.0  0.32120  0.57000  0.77060  1.0000
  C   C73       1.0  0.51180  0.54370  0.19450  1.0000
  C   C74       1.0  0.48820  0.45630  0.80550  1.0000
  C   C75       1.0  0.36980  0.58210  0.21540  1.0000
  C   C76       1.0  0.63020  0.41790  0.78460  1.0000
  H   H35       1.0  0.32200  0.64050  0.18130  1.0000
  H   H36       1.0  0.67800  0.35950  0.81870  1.0000
  C   C77       1.0  0.29710  0.53540  0.28610  1.0000
  C   C78       1.0  0.70290  0.46460  0.71390  1.0000
  H   H37       1.0  0.20100  0.56260  0.30120  1.0000
  H   H38       1.0  0.79900  0.43740  0.69880  1.0000
  C   C79       1.0  0.36640  0.44830  0.33470  1.0000
  C   C80       1.0  0.63360  0.55170  0.66530  1.0000
  H   H39       1.0  0.31670  0.41660  0.38300  1.0000
  H   H40       1.0  0.68330  0.58340  0.61700  1.0000
  C   C81       1.0  0.59440  0.59760  0.12130  1.0000
  C   C82       1.0  0.40560  0.40240  0.87870  1.0000
  O   O9        1.0  0.52330  0.65580  0.06352  1.0000
  O   O10       1.0  0.47670  0.34420  0.93648  1.0000
  O   O11       1.0  0.73700  0.58570  0.12071  1.0000
  O   O12       1.0  0.26300  0.41430  0.87929  1.0000
  C   C83       1.0  0.96620  0.25530  0.64840  1.0000
  C   C84       1.0  0.03380  0.74470  0.35160  1.0000
  C   C85       1.0  0.93760  0.22930  0.73190  1.0000
  C   C86       1.0  0.06240  0.77070  0.26810  1.0000
  H   H41       1.0  0.87430  0.18160  0.75460  1.0000
  H   H42       1.0  0.12570  0.81840  0.24540  1.0000
  C   C87       1.0  0.99950  0.27140  0.78250  1.0000
  C   C88       1.0  0.00050  0.72860  0.21750  1.0000
  C   C89       1.0  0.09630  0.33940  0.74920  1.0000
  C   C90       1.0  0.90370  0.66060  0.25080  1.0000
  H   H43       1.0  0.14070  0.36810  0.78320  1.0000
  H   H44       1.0  0.85930  0.63190  0.21680  1.0000
  C   C91       1.0  0.12750  0.36490  0.66640  1.0000
  C   C92       1.0  0.87250  0.63510  0.33360  1.0000
  H   H45       1.0  0.19420  0.41060  0.64400  1.0000
  H   H46       1.0  0.80580  0.58940  0.35600  1.0000
  C   C93       1.0  0.06210  0.32430  0.61580  1.0000
  C   C94       1.0  0.93790  0.67570  0.38420  1.0000
  H   H47       1.0  0.08250  0.34340  0.55910  1.0000
  H   H48       1.0  0.91750  0.65660  0.44090  1.0000
  C   C95       1.0  0.95370  0.24590  0.87150  1.0000
  C   C96       1.0  0.04630  0.75410  0.12850  1.0000
  O   O13       1.0  0.85930  0.18990  0.89637  1.0000
  O   O14       1.0  0.14070  0.81010  0.10363  1.0000
  O   O15       1.0  0.00570  0.28920  0.91716  1.0000
  O   O16       1.0  0.99430  0.71080  0.08284  1.0000
