data_image0
_chemical_formula_structural       Zn8C16H8C16H8C16H8C24O48
_chemical_formula_sum              "Zn8 C72 H24 O48"
_cell_length_a       16.004
_cell_length_b       12.588
_cell_length_c       16.646
_cell_angle_alpha    90
_cell_angle_beta     90
_cell_angle_gamma    90

_space_group_name_H-M_alt    "P 1"
_space_group_IT_number       1

loop_
  _space_group_symop_operation_xyz
  'x, y, z'

loop_
  _atom_site_type_symbol
  _atom_site_label
  _atom_site_symmetry_multiplicity
  _atom_site_fract_x
  _atom_site_fract_y
  _atom_site_fract_z
  _atom_site_occupancy
  Zn  Zn1       1.0  0.08131  0.39993  0.49947  1.0000
  Zn  Zn2       1.0  0.41869  0.60007  0.99947  1.0000
  Zn  Zn3       1.0  0.91870  0.89993  0.00053  1.0000
  Zn  Zn4       1.0  0.58130  0.10007  0.50053  1.0000
  Zn  Zn5       1.0  0.91870  0.60007  0.50053  1.0000
  Zn  Zn6       1.0  0.58130  0.39993  0.00053  1.0000
  Zn  Zn7       1.0  0.08131  0.10007  0.99947  1.0000
  Zn  Zn8       1.0  0.41869  0.89993  0.49947  1.0000
  C   C1        1.0  0.31303  0.35946  0.37160  1.0000
  C   C2        1.0  0.18697  0.64054  0.87160  1.0000
  C   C3        1.0  0.68697  0.85946  0.12840  1.0000
  C   C4        1.0  0.81303  0.14054  0.62840  1.0000
  C   C5        1.0  0.68697  0.64054  0.62840  1.0000
  C   C6        1.0  0.81303  0.35946  0.12840  1.0000
  C   C7        1.0  0.31303  0.14054  0.87160  1.0000
  C   C8        1.0  0.18697  0.85946  0.37160  1.0000
  C   C9        1.0  0.36665  0.30335  0.40870  1.0000
  C   C10       1.0  0.13335  0.69665  0.90870  1.0000
  C   C11       1.0  0.63335  0.80335  0.09130  1.0000
  C   C12       1.0  0.86665  0.19665  0.59130  1.0000
  C   C13       1.0  0.63335  0.69665  0.59130  1.0000
  C   C14       1.0  0.86665  0.30335  0.09130  1.0000
  C   C15       1.0  0.36665  0.19665  0.90870  1.0000
  C   C16       1.0  0.13335  0.80335  0.40870  1.0000
  H   H1        1.0  0.35750  0.27300  0.45890  1.0000
  H   H2        1.0  0.14250  0.72700  0.95890  1.0000
  H   H3        1.0  0.64250  0.77300  0.04110  1.0000
  H   H4        1.0  0.85750  0.22700  0.54110  1.0000
  H   H5        1.0  0.64250  0.72700  0.54110  1.0000
  H   H6        1.0  0.85750  0.27300  0.04110  1.0000
  H   H7        1.0  0.35750  0.22700  0.95890  1.0000
  H   H8        1.0  0.14250  0.77300  0.45890  1.0000
  C   C17       1.0  0.44139  0.29250  0.36490  1.0000
  C   C18       1.0  0.05861  0.70750  0.86490  1.0000
  C   C19       1.0  0.55861  0.79250  0.13510  1.0000
  C   C20       1.0  0.94139  0.20750  0.63510  1.0000
  C   C21       1.0  0.55861  0.70750  0.63510  1.0000
  C   C22       1.0  0.94139  0.29250  0.13510  1.0000
  C   C23       1.0  0.44139  0.20750  0.86490  1.0000
  C   C24       1.0  0.05861  0.79250  0.36490  1.0000
  C   C25       1.0  0.46375  0.34315  0.28130  1.0000
  C   C26       1.0  0.03625  0.65685  0.78130  1.0000
  C   C27       1.0  0.53625  0.84315  0.21870  1.0000
  C   C28       1.0  0.96375  0.15685  0.71870  1.0000
  C   C29       1.0  0.53625  0.65685  0.71870  1.0000
  C   C30       1.0  0.96375  0.34315  0.21870  1.0000
  C   C31       1.0  0.46375  0.15685  0.78130  1.0000
  C   C32       1.0  0.03625  0.84315  0.28130  1.0000
  H   H9        1.0  0.51690  0.33080  0.26070  1.0000
  H   H10       1.0  0.98310  0.66920  0.76070  1.0000
  H   H11       1.0  0.48310  0.83080  0.23930  1.0000
  H   H12       1.0  0.01690  0.16920  0.73930  1.0000
  H   H13       1.0  0.48310  0.66920  0.73930  1.0000
  H   H14       1.0  0.01690  0.33080  0.23930  1.0000
  H   H15       1.0  0.51690  0.16920  0.76070  1.0000
  H   H16       1.0  0.98310  0.83080  0.26070  1.0000
  C   C33       1.0  0.41070  0.40362  0.23700  1.0000
  C   C34       1.0  0.08930  0.59638  0.73700  1.0000
  C   C35       1.0  0.58930  0.90362  0.26300  1.0000
  C   C36       1.0  0.91070  0.09638  0.76300  1.0000
  C   C37       1.0  0.58930  0.59638  0.76300  1.0000
  C   C38       1.0  0.91070  0.40362  0.26300  1.0000
  C   C39       1.0  0.41070  0.09638  0.73700  1.0000
  C   C40       1.0  0.08930  0.90362  0.23700  1.0000
  C   C41       1.0  0.33458  0.40966  0.28440  1.0000
  C   C42       1.0  0.16542  0.59034  0.78440  1.0000
  C   C43       1.0  0.66542  0.90966  0.21560  1.0000
  C   C44       1.0  0.83458  0.09034  0.71560  1.0000
  C   C45       1.0  0.66542  0.59034  0.71560  1.0000
  C   C46       1.0  0.83458  0.40966  0.21560  1.0000
  C   C47       1.0  0.33458  0.09034  0.78440  1.0000
  C   C48       1.0  0.16542  0.90966  0.28440  1.0000
  H   H17       1.0  0.29150  0.44840  0.26110  1.0000
  H   H18       1.0  0.20850  0.55160  0.76110  1.0000
  H   H19       1.0  0.70850  0.94840  0.23890  1.0000
  H   H20       1.0  0.79150  0.05160  0.73890  1.0000
  H   H21       1.0  0.70850  0.55160  0.73890  1.0000
  H   H22       1.0  0.79150  0.44840  0.23890  1.0000
  H   H23       1.0  0.29150  0.05160  0.76110  1.0000
  H   H24       1.0  0.20850  0.94840  0.26110  1.0000
  C   C49       1.0  0.22730  0.36892  0.42020  1.0000
  C   C50       1.0  0.27270  0.63108  0.92020  1.0000
  C   C51       1.0  0.77270  0.86892  0.07980  1.0000
  C   C52       1.0  0.72730  0.13108  0.57980  1.0000
  C   C53       1.0  0.77270  0.63108  0.57980  1.0000
  C   C54       1.0  0.72730  0.36892  0.07980  1.0000
  C   C55       1.0  0.22730  0.13108  0.92020  1.0000
  C   C56       1.0  0.27270  0.86892  0.42020  1.0000
  C   C57       1.0  0.49751  0.22787  0.40590  1.0000
  C   C58       1.0  0.00249  0.77213  0.90590  1.0000
  C   C59       1.0  0.50249  0.72787  0.09410  1.0000
  C   C60       1.0  0.99751  0.27213  0.59410  1.0000
  C   C61       1.0  0.50249  0.77213  0.59410  1.0000
  C   C62       1.0  0.99751  0.22787  0.09410  1.0000
  C   C63       1.0  0.49751  0.27213  0.90590  1.0000
  C   C64       1.0  0.00249  0.72787  0.40590  1.0000
  C   C65       1.0  0.43520  0.46283  0.14970  1.0000
  C   C66       1.0  0.06480  0.53717  0.64970  1.0000
  C   C67       1.0  0.56480  0.96283  0.35030  1.0000
  C   C68       1.0  0.93520  0.03717  0.85030  1.0000
  C   C69       1.0  0.56480  0.53717  0.85030  1.0000
  C   C70       1.0  0.93520  0.46283  0.35030  1.0000
  C   C71       1.0  0.43520  0.03717  0.64970  1.0000
  C   C72       1.0  0.06480  0.96283  0.14970  1.0000
  O   O1        1.0  0.21487  0.33630  0.50374  1.0000
  O   O2        1.0  0.28513  0.66370  0.00374  1.0000
  O   O3        1.0  0.78513  0.83630  0.99626  1.0000
  O   O4        1.0  0.71487  0.16370  0.49626  1.0000
  O   O5        1.0  0.78513  0.66370  0.49626  1.0000
  O   O6        1.0  0.71487  0.33630  0.99626  1.0000
  O   O7        1.0  0.21487  0.16370  0.00374  1.0000
  O   O8        1.0  0.28513  0.83630  0.50374  1.0000
  O   O9        1.0  0.17838  0.40847  0.37316  1.0000
  O   O10       1.0  0.32162  0.59153  0.87316  1.0000
  O   O11       1.0  0.82162  0.90847  0.12684  1.0000
  O   O12       1.0  0.67838  0.09153  0.62684  1.0000
  O   O13       1.0  0.82162  0.59153  0.62684  1.0000
  O   O14       1.0  0.67838  0.40847  0.12684  1.0000
  O   O15       1.0  0.17838  0.09153  0.87316  1.0000
  O   O16       1.0  0.32162  0.90847  0.37316  1.0000
  O   O17       1.0  0.47954  0.19350  0.49104  1.0000
  O   O18       1.0  0.02046  0.80650  0.99104  1.0000
  O   O19       1.0  0.52046  0.69350  0.00896  1.0000
  O   O20       1.0  0.97954  0.30650  0.50896  1.0000
  O   O21       1.0  0.52046  0.80650  0.50896  1.0000
  O   O22       1.0  0.97954  0.19350  0.00896  1.0000
  O   O23       1.0  0.47954  0.30650  0.99104  1.0000
  O   O24       1.0  0.02046  0.69350  0.49104  1.0000
  O   O25       1.0  0.55901  0.20869  0.35820  1.0000
  O   O26       1.0  0.94099  0.79131  0.85820  1.0000
  O   O27       1.0  0.44099  0.70869  0.14180  1.0000
  O   O28       1.0  0.05901  0.29131  0.64180  1.0000
  O   O29       1.0  0.44099  0.79131  0.64180  1.0000
  O   O30       1.0  0.05901  0.20869  0.14180  1.0000
  O   O31       1.0  0.55901  0.29131  0.85820  1.0000
  O   O32       1.0  0.94099  0.70869  0.35820  1.0000
  O   O33       1.0  0.50382  0.47009  0.12543  1.0000
  O   O34       1.0  0.99618  0.52991  0.62543  1.0000
  O   O35       1.0  0.49618  0.97009  0.37457  1.0000
  O   O36       1.0  0.00382  0.02991  0.87457  1.0000
  O   O37       1.0  0.49618  0.52991  0.87457  1.0000
  O   O38       1.0  0.00382  0.47009  0.37457  1.0000
  O   O39       1.0  0.50382  0.02991  0.62543  1.0000
  O   O40       1.0  0.99618  0.97009  0.12543  1.0000
  O   O41       1.0  0.37692  0.49922  0.10539  1.0000
  O   O42       1.0  0.12308  0.50078  0.60539  1.0000
  O   O43       1.0  0.62308  0.99922  0.39461  1.0000
  O   O44       1.0  0.87692  0.00078  0.89461  1.0000
  O   O45       1.0  0.62308  0.50078  0.89461  1.0000
  O   O46       1.0  0.87692  0.49922  0.39461  1.0000
  O   O47       1.0  0.37692  0.00078  0.60539  1.0000
  O   O48       1.0  0.12308  0.99922  0.10539  1.0000
