data_image0
_chemical_formula_structural       Mn2Cl6N4C10H12
_chemical_formula_sum              "Mn2 Cl6 N4 C10 H12"
_cell_length_a       7.7525
_cell_length_b       9.595
_cell_length_c       11.261
_cell_angle_alpha    102.64
_cell_angle_beta     108.347
_cell_angle_gamma    103.543

_space_group_name_H-M_alt    "P 1"
_space_group_IT_number       1

loop_
  _space_group_symop_operation_xyz
  'x, y, z'

loop_
  _atom_site_type_symbol
  _atom_site_label
  _atom_site_symmetry_multiplicity
  _atom_site_fract_x
  _atom_site_fract_y
  _atom_site_fract_z
  _atom_site_occupancy
  Mn  Mn1       1.0  0.15249  0.94923  0.89937  1.0000
  Mn  Mn2       1.0  0.84751  0.05077  0.10063  1.0000
  Cl  Cl1       1.0  0.30918  0.08559  0.77846  1.0000
  Cl  Cl2       1.0  0.69082  0.91441  0.22154  1.0000
  Cl  Cl3       1.0  0.01389  0.85096  0.06065  1.0000
  Cl  Cl4       1.0  0.98611  0.14904  0.93935  1.0000
  Cl  Cl5       1.0  0.85359  0.78640  0.70621  1.0000
  Cl  Cl6       1.0  0.14641  0.21360  0.29379  1.0000
  N   N1        1.0  0.29330  0.76150  0.88680  1.0000
  N   N2        1.0  0.70670  0.23850  0.11320  1.0000
  N   N3        1.0  0.59040  0.90070  0.89180  1.0000
  N   N4        1.0  0.40960  0.09930  0.10820  1.0000
  C   C1        1.0  0.17810  0.62780  0.87950  1.0000
  C   C2        1.0  0.82190  0.37220  0.12050  1.0000
  C   C3        1.0  0.22360  0.50020  0.86460  1.0000
  C   C4        1.0  0.77640  0.49980  0.13540  1.0000
  C   C5        1.0  0.39630  0.50160  0.85130  1.0000
  C   C6        1.0  0.60370  0.49840  0.14870  1.0000
  C   C7        1.0  0.51590  0.63350  0.85660  1.0000
  C   C8        1.0  0.48410  0.36650  0.14340  1.0000
  C   C9        1.0  0.46170  0.76300  0.87670  1.0000
  C   C10       1.0  0.53830  0.23700  0.12330  1.0000
  H   H1        1.0  0.66030  0.88600  0.84500  1.0000
  H   H2        1.0  0.33970  0.11400  0.15500  1.0000
  H   H3        1.0  0.52750  0.96300  0.86660  1.0000
  H   H4        1.0  0.47250  0.03700  0.13340  1.0000
  H   H5        1.0  0.06510  0.63510  0.89300  1.0000
  H   H6        1.0  0.93490  0.36490  0.10700  1.0000
  H   H7        1.0  0.15180  0.41310  0.86450  1.0000
  H   H8        1.0  0.84820  0.58690  0.13550  1.0000
  H   H9        1.0  0.42250  0.42260  0.83560  1.0000
  H   H10       1.0  0.57750  0.57740  0.16440  1.0000
  H   H11       1.0  0.63180  0.64110  0.84760  1.0000
  H   H12       1.0  0.36820  0.35890  0.15240  1.0000
