data_image0
_chemical_formula_structural       Cd10Cl8O48C24H8C16H8C16H8C16
_chemical_formula_sum              "Cd10 Cl8 O48 C72 H24"
_cell_length_a       20.1824
_cell_length_b       20.1824
_cell_length_c       12.6052
_cell_angle_alpha    90
_cell_angle_beta     90
_cell_angle_gamma    90

_space_group_name_H-M_alt    "P 1"
_space_group_IT_number       1

loop_
  _space_group_symop_operation_xyz
  'x, y, z'

loop_
  _atom_site_type_symbol
  _atom_site_label
  _atom_site_symmetry_multiplicity
  _atom_site_fract_x
  _atom_site_fract_y
  _atom_site_fract_z
  _atom_site_occupancy
  Cd  Cd1       1.0  0.72762  0.19976  0.39967  1.0000
  Cd  Cd2       1.0  0.27238  0.80024  0.39967  1.0000
  Cd  Cd3       1.0  0.30024  0.22762  0.39967  1.0000
  Cd  Cd4       1.0  0.69976  0.77238  0.39967  1.0000
  Cd  Cd5       1.0  0.77238  0.69976  0.60033  1.0000
  Cd  Cd6       1.0  0.22762  0.30024  0.60033  1.0000
  Cd  Cd7       1.0  0.19976  0.72762  0.60033  1.0000
  Cd  Cd8       1.0  0.80024  0.27238  0.60033  1.0000
  Cd  Cd9       1.0  0.00000  0.00000  0.00000  1.0000
  Cd  Cd10      1.0  0.50000  0.50000  0.00000  1.0000
  Cl  Cl1       1.0  0.69335  0.15729  0.22634  1.0000
  Cl  Cl2       1.0  0.30665  0.84271  0.22634  1.0000
  Cl  Cl3       1.0  0.34271  0.19335  0.22634  1.0000
  Cl  Cl4       1.0  0.65729  0.80665  0.22634  1.0000
  Cl  Cl5       1.0  0.80665  0.65729  0.77366  1.0000
  Cl  Cl6       1.0  0.19335  0.34271  0.77366  1.0000
  Cl  Cl7       1.0  0.15729  0.69335  0.77366  1.0000
  Cl  Cl8       1.0  0.84271  0.30665  0.77366  1.0000
  O   O1        1.0  0.84007  0.20380  0.37860  1.0000
  O   O2        1.0  0.15993  0.79620  0.37860  1.0000
  O   O3        1.0  0.29620  0.34007  0.37860  1.0000
  O   O4        1.0  0.70380  0.65993  0.37860  1.0000
  O   O5        1.0  0.65993  0.70380  0.62140  1.0000
  O   O6        1.0  0.34007  0.29620  0.62140  1.0000
  O   O7        1.0  0.20380  0.84007  0.62140  1.0000
  O   O8        1.0  0.79620  0.15993  0.62140  1.0000
  O   O9        1.0  0.89251  0.25860  0.50630  1.0000
  O   O10       1.0  0.10749  0.74140  0.50630  1.0000
  O   O11       1.0  0.24140  0.39251  0.50630  1.0000
  O   O12       1.0  0.75860  0.60749  0.50630  1.0000
  O   O13       1.0  0.60749  0.75860  0.49370  1.0000
  O   O14       1.0  0.39251  0.24140  0.49370  1.0000
  O   O15       1.0  0.25860  0.89251  0.49370  1.0000
  O   O16       1.0  0.74140  0.10749  0.49370  1.0000
  O   O17       1.0  0.96690  0.08660  0.10520  1.0000
  O   O18       1.0  0.03310  0.91340  0.10520  1.0000
  O   O19       1.0  0.41340  0.46690  0.10520  1.0000
  O   O20       1.0  0.58660  0.53310  0.10520  1.0000
  O   O21       1.0  0.53310  0.58660  0.89480  1.0000
  O   O22       1.0  0.46690  0.41340  0.89480  1.0000
  O   O23       1.0  0.08660  0.96690  0.89480  1.0000
  O   O24       1.0  0.91340  0.03310  0.89480  1.0000
  O   O25       1.0  0.07300  0.07320  0.12800  1.0000
  O   O26       1.0  0.92700  0.92680  0.12800  1.0000
  O   O27       1.0  0.42680  0.57300  0.12800  1.0000
  O   O28       1.0  0.57320  0.42700  0.12800  1.0000
  O   O29       1.0  0.42700  0.57320  0.87200  1.0000
  O   O30       1.0  0.57300  0.42680  0.87200  1.0000
  O   O31       1.0  0.07320  0.07300  0.87200  1.0000
  O   O32       1.0  0.92680  0.92700  0.87200  1.0000
  O   O33       1.0  0.19307  0.22620  0.36730  1.0000
  O   O34       1.0  0.80693  0.77380  0.36730  1.0000
  O   O35       1.0  0.27380  0.69307  0.36730  1.0000
  O   O36       1.0  0.72620  0.30693  0.36730  1.0000
  O   O37       1.0  0.30693  0.72620  0.63270  1.0000
  O   O38       1.0  0.69307  0.27380  0.63270  1.0000
  O   O39       1.0  0.22620  0.19307  0.63270  1.0000
  O   O40       1.0  0.77380  0.80693  0.63270  1.0000
  O   O41       1.0  0.13847  0.27670  0.49850  1.0000
  O   O42       1.0  0.86153  0.72330  0.49850  1.0000
  O   O43       1.0  0.22330  0.63847  0.49850  1.0000
  O   O44       1.0  0.77670  0.36153  0.49850  1.0000
  O   O45       1.0  0.36153  0.77670  0.50150  1.0000
  O   O46       1.0  0.63847  0.22330  0.50150  1.0000
  O   O47       1.0  0.27670  0.13847  0.50150  1.0000
  O   O48       1.0  0.72330  0.86153  0.50150  1.0000
  C   C1        1.0  0.89020  0.22680  0.42130  1.0000
  C   C2        1.0  0.10980  0.77320  0.42130  1.0000
  C   C3        1.0  0.27320  0.39020  0.42130  1.0000
  C   C4        1.0  0.72680  0.60980  0.42130  1.0000
  C   C5        1.0  0.60980  0.72680  0.57870  1.0000
  C   C6        1.0  0.39020  0.27320  0.57870  1.0000
  C   C7        1.0  0.22680  0.89020  0.57870  1.0000
  C   C8        1.0  0.77320  0.10980  0.57870  1.0000
  C   C9        1.0  0.95650  0.21240  0.37080  1.0000
  C   C10       1.0  0.04350  0.78760  0.37080  1.0000
  C   C11       1.0  0.28760  0.45650  0.37080  1.0000
  C   C12       1.0  0.71240  0.54350  0.37080  1.0000
  C   C13       1.0  0.54350  0.71240  0.62920  1.0000
  C   C14       1.0  0.45650  0.28760  0.62920  1.0000
  C   C15       1.0  0.21240  0.95650  0.62920  1.0000
  C   C16       1.0  0.78760  0.04350  0.62920  1.0000
  C   C17       1.0  0.95840  0.17160  0.28200  1.0000
  C   C18       1.0  0.04160  0.82840  0.28200  1.0000
  C   C19       1.0  0.32840  0.45840  0.28200  1.0000
  C   C20       1.0  0.67160  0.54160  0.28200  1.0000
  C   C21       1.0  0.54160  0.67160  0.71800  1.0000
  C   C22       1.0  0.45840  0.32840  0.71800  1.0000
  C   C23       1.0  0.17160  0.95840  0.71800  1.0000
  C   C24       1.0  0.82840  0.04160  0.71800  1.0000
  H   H1        1.0  0.91900  0.15720  0.25150  1.0000
  H   H2        1.0  0.08100  0.84280  0.25150  1.0000
  H   H3        1.0  0.34280  0.41900  0.25150  1.0000
  H   H4        1.0  0.65720  0.58100  0.25150  1.0000
  H   H5        1.0  0.58100  0.65720  0.74850  1.0000
  H   H6        1.0  0.41900  0.34280  0.74850  1.0000
  H   H7        1.0  0.15720  0.91900  0.74850  1.0000
  H   H8        1.0  0.84280  0.08100  0.74850  1.0000
  C   C25       1.0  0.01860  0.15220  0.23820  1.0000
  C   C26       1.0  0.98140  0.84780  0.23820  1.0000
  C   C27       1.0  0.34780  0.51860  0.23820  1.0000
  C   C28       1.0  0.65220  0.48140  0.23820  1.0000
  C   C29       1.0  0.48140  0.65220  0.76180  1.0000
  C   C30       1.0  0.51860  0.34780  0.76180  1.0000
  C   C31       1.0  0.15220  0.01860  0.76180  1.0000
  C   C32       1.0  0.84780  0.98140  0.76180  1.0000
  C   C33       1.0  0.07670  0.17590  0.28190  1.0000
  C   C34       1.0  0.92330  0.82410  0.28190  1.0000
  C   C35       1.0  0.32410  0.57670  0.28190  1.0000
  C   C36       1.0  0.67590  0.42330  0.28190  1.0000
  C   C37       1.0  0.42330  0.67590  0.71810  1.0000
  C   C38       1.0  0.57670  0.32410  0.71810  1.0000
  C   C39       1.0  0.17590  0.07670  0.71810  1.0000
  C   C40       1.0  0.82410  0.92330  0.71810  1.0000
  H   H9        1.0  0.11700  0.16280  0.25330  1.0000
  H   H10       1.0  0.88300  0.83720  0.25330  1.0000
  H   H11       1.0  0.33720  0.61700  0.25330  1.0000
  H   H12       1.0  0.66280  0.38300  0.25330  1.0000
  H   H13       1.0  0.38300  0.66280  0.74670  1.0000
  H   H14       1.0  0.61700  0.33720  0.74670  1.0000
  H   H15       1.0  0.16280  0.11700  0.74670  1.0000
  H   H16       1.0  0.83720  0.88300  0.74670  1.0000
  C   C41       1.0  0.07600  0.21950  0.36880  1.0000
  C   C42       1.0  0.92400  0.78050  0.36880  1.0000
  C   C43       1.0  0.28050  0.57600  0.36880  1.0000
  C   C44       1.0  0.71950  0.42400  0.36880  1.0000
  C   C45       1.0  0.42400  0.71950  0.63120  1.0000
  C   C46       1.0  0.57600  0.28050  0.63120  1.0000
  C   C47       1.0  0.21950  0.07600  0.63120  1.0000
  C   C48       1.0  0.78050  0.92400  0.63120  1.0000
  C   C49       1.0  0.01440  0.23690  0.41190  1.0000
  C   C50       1.0  0.98560  0.76310  0.41190  1.0000
  C   C51       1.0  0.26310  0.51440  0.41190  1.0000
  C   C52       1.0  0.73690  0.48560  0.41190  1.0000
  C   C53       1.0  0.48560  0.73690  0.58810  1.0000
  C   C54       1.0  0.51440  0.26310  0.58810  1.0000
  C   C55       1.0  0.23690  0.01440  0.58810  1.0000
  C   C56       1.0  0.76310  0.98560  0.58810  1.0000
  H   H17       1.0  0.01290  0.26560  0.46960  1.0000
  H   H18       1.0  0.98710  0.73440  0.46960  1.0000
  H   H19       1.0  0.23440  0.51290  0.46960  1.0000
  H   H20       1.0  0.76560  0.48710  0.46960  1.0000
  H   H21       1.0  0.48710  0.76560  0.53040  1.0000
  H   H22       1.0  0.51290  0.23440  0.53040  1.0000
  H   H23       1.0  0.26560  0.01290  0.53040  1.0000
  H   H24       1.0  0.73440  0.98710  0.53040  1.0000
  C   C57       1.0  0.02010  0.10090  0.15090  1.0000
  C   C58       1.0  0.97990  0.89910  0.15090  1.0000
  C   C59       1.0  0.39910  0.52010  0.15090  1.0000
  C   C60       1.0  0.60090  0.47990  0.15090  1.0000
  C   C61       1.0  0.47990  0.60090  0.84910  1.0000
  C   C62       1.0  0.52010  0.39910  0.84910  1.0000
  C   C63       1.0  0.10090  0.02010  0.84910  1.0000
  C   C64       1.0  0.89910  0.97990  0.84910  1.0000
  C   C65       1.0  0.14090  0.24370  0.41480  1.0000
  C   C66       1.0  0.85910  0.75630  0.41480  1.0000
  C   C67       1.0  0.25630  0.64090  0.41480  1.0000
  C   C68       1.0  0.74370  0.35910  0.41480  1.0000
  C   C69       1.0  0.35910  0.74370  0.58520  1.0000
  C   C70       1.0  0.64090  0.25630  0.58520  1.0000
  C   C71       1.0  0.24370  0.14090  0.58520  1.0000
  C   C72       1.0  0.75630  0.85910  0.58520  1.0000
