data_image0
_chemical_formula_structural       Tb6O48C18H6C6H6C18H6C18H6C18H6C18H6
_chemical_formula_sum              "Tb6 O48 C96 H36"
_cell_length_a       13.825
_cell_length_b       13.825
_cell_length_c       22.984
_cell_angle_alpha    90
_cell_angle_beta     90
_cell_angle_gamma    120

_space_group_name_H-M_alt    "P 1"
_space_group_IT_number       1

loop_
  _space_group_symop_operation_xyz
  'x, y, z'

loop_
  _atom_site_type_symbol
  _atom_site_label
  _atom_site_symmetry_multiplicity
  _atom_site_fract_x
  _atom_site_fract_y
  _atom_site_fract_z
  _atom_site_occupancy
  Tb  Tb1       1.0  0.69491  0.66650  0.41030  1.0000
  Tb  Tb2       1.0  0.33350  0.02841  0.74363  1.0000
  Tb  Tb3       1.0  0.97159  0.30509  0.07697  1.0000
  Tb  Tb4       1.0  0.66650  0.69491  0.58970  1.0000
  Tb  Tb5       1.0  0.30509  0.97159  0.92303  1.0000
  Tb  Tb6       1.0  0.02841  0.33350  0.25637  1.0000
  O   O1        1.0  0.72450  0.82360  0.46270  1.0000
  O   O2        1.0  0.17640  0.90090  0.79603  1.0000
  O   O3        1.0  0.09910  0.27550  0.12937  1.0000
  O   O4        1.0  0.82360  0.72450  0.53730  1.0000
  O   O5        1.0  0.27550  0.09910  0.87063  1.0000
  O   O6        1.0  0.90090  0.17640  0.20397  1.0000
  O   O7        1.0  0.73360  0.88070  0.55410  1.0000
  O   O8        1.0  0.11930  0.85290  0.88743  1.0000
  O   O9        1.0  0.14710  0.26640  0.22077  1.0000
  O   O10       1.0  0.88070  0.73360  0.44590  1.0000
  O   O11       1.0  0.26640  0.14710  0.77923  1.0000
  O   O12       1.0  0.85290  0.11930  0.11257  1.0000
  O   O13       1.0  0.96720  0.18370  0.33430  1.0000
  O   O14       1.0  0.81630  0.78350  0.66763  1.0000
  O   O15       1.0  0.21650  0.03280  0.00097  1.0000
  O   O16       1.0  0.18370  0.96720  0.66570  1.0000
  O   O17       1.0  0.03280  0.21650  0.99903  1.0000
  O   O18       1.0  0.78350  0.81630  0.33237  1.0000
  O   O19       1.0  0.87600  0.27510  0.32650  1.0000
  O   O20       1.0  0.72490  0.60090  0.65983  1.0000
  O   O21       1.0  0.39910  0.12400  0.99317  1.0000
  O   O22       1.0  0.27510  0.87600  0.67350  1.0000
  O   O23       1.0  0.12400  0.39910  0.00683  1.0000
  O   O24       1.0  0.60090  0.72490  0.34017  1.0000
  O   O25       1.0  0.41850  0.18520  0.67367  1.0000
  O   O26       1.0  0.81480  0.23330  0.00700  1.0000
  O   O27       1.0  0.76670  0.58150  0.34034  1.0000
  O   O28       1.0  0.18520  0.41850  0.32633  1.0000
  O   O29       1.0  0.58150  0.76670  0.65966  1.0000
  O   O30       1.0  0.23330  0.81480  0.99300  1.0000
  O   O31       1.0  0.48910  0.07670  0.67530  1.0000
  O   O32       1.0  0.92330  0.41240  0.00863  1.0000
  O   O33       1.0  0.58760  0.51090  0.34197  1.0000
  O   O34       1.0  0.07670  0.48910  0.32470  1.0000
  O   O35       1.0  0.51090  0.58760  0.65803  1.0000
  O   O36       1.0  0.41240  0.92330  0.99137  1.0000
  O   O37       1.0  0.67670  0.50940  0.46310  1.0000
  O   O38       1.0  0.49060  0.16730  0.79643  1.0000
  O   O39       1.0  0.83270  0.32330  0.12977  1.0000
  O   O40       1.0  0.50940  0.67670  0.53690  1.0000
  O   O41       1.0  0.32330  0.83270  0.87023  1.0000
  O   O42       1.0  0.16730  0.49060  0.20357  1.0000
  O   O43       1.0  0.60350  0.52190  0.54760  1.0000
  O   O44       1.0  0.47810  0.08160  0.88093  1.0000
  O   O45       1.0  0.91840  0.39650  0.21427  1.0000
  O   O46       1.0  0.52190  0.60350  0.45240  1.0000
  O   O47       1.0  0.39650  0.91840  0.78573  1.0000
  O   O48       1.0  0.08160  0.47810  0.11907  1.0000
  C   C1        1.0  0.73740  0.89570  0.50080  1.0000
  C   C2        1.0  0.10430  0.84170  0.83413  1.0000
  C   C3        1.0  0.15830  0.26260  0.16747  1.0000
  C   C4        1.0  0.89570  0.73740  0.49920  1.0000
  C   C5        1.0  0.26260  0.15830  0.83253  1.0000
  C   C6        1.0  0.84170  0.10430  0.16587  1.0000
  C   C7        1.0  0.75590  0.00530  0.47840  1.0000
  C   C8        1.0  0.99470  0.75060  0.81173  1.0000
  C   C9        1.0  0.24940  0.24410  0.14507  1.0000
  C   C10       1.0  0.00530  0.75590  0.52160  1.0000
  C   C11       1.0  0.24410  0.24940  0.85493  1.0000
  C   C12       1.0  0.75060  0.99470  0.18827  1.0000
  C   C13       1.0  0.71380  0.06030  0.50960  1.0000
  C   C14       1.0  0.93970  0.65350  0.84293  1.0000
  C   C15       1.0  0.34650  0.28620  0.17627  1.0000
  C   C16       1.0  0.06030  0.71380  0.49040  1.0000
  C   C17       1.0  0.28620  0.34650  0.82373  1.0000
  C   C18       1.0  0.65350  0.93970  0.15707  1.0000
  H   H1        1.0  0.68130  0.03264  0.54572  1.0000
  H   H2        1.0  0.96736  0.64866  0.87905  1.0000
  H   H3        1.0  0.35134  0.31870  0.21239  1.0000
  H   H4        1.0  0.03264  0.68130  0.45428  1.0000
  H   H5        1.0  0.31870  0.35134  0.78761  1.0000
  H   H6        1.0  0.64866  0.96736  0.12095  1.0000
  C   C19       1.0  0.81530  0.05130  0.42670  1.0000
  C   C20       1.0  0.94870  0.76400  0.76003  1.0000
  C   C21       1.0  0.23600  0.18470  0.09337  1.0000
  C   C22       1.0  0.05130  0.81530  0.57330  1.0000
  C   C23       1.0  0.18470  0.23600  0.90663  1.0000
  C   C24       1.0  0.76400  0.94870  0.23997  1.0000
  H   H7        1.0  0.84652  0.01547  0.40633  1.0000
  H   H8        1.0  0.98453  0.83105  0.73966  1.0000
  H   H9        1.0  0.16895  0.15348  0.07300  1.0000
  H   H10       1.0  0.01547  0.84652  0.59367  1.0000
  H   H11       1.0  0.15348  0.16895  0.92700  1.0000
  H   H12       1.0  0.83105  0.98453  0.26034  1.0000
  C   C25       1.0  0.82700  0.15140  0.40640  1.0000
  C   C26       1.0  0.84860  0.67560  0.73973  1.0000
  C   C27       1.0  0.32440  0.17300  0.07307  1.0000
  C   C28       1.0  0.15140  0.82700  0.59360  1.0000
  C   C29       1.0  0.17300  0.32440  0.92693  1.0000
  C   C30       1.0  0.67560  0.84860  0.26027  1.0000
  C   C31       1.0  0.89470  0.20560  0.35140  1.0000
  C   C32       1.0  0.79440  0.68910  0.68473  1.0000
  C   C33       1.0  0.31090  0.10530  0.01807  1.0000
  C   C34       1.0  0.20560  0.89470  0.64860  1.0000
  C   C35       1.0  0.10530  0.31090  0.98193  1.0000
  C   C36       1.0  0.68910  0.79440  0.31527  1.0000
  C   C37       1.0  0.78040  0.20380  0.43660  1.0000
  C   C38       1.0  0.79620  0.57660  0.76993  1.0000
  C   C39       1.0  0.42340  0.21960  0.10327  1.0000
  C   C40       1.0  0.20380  0.78040  0.56340  1.0000
  C   C41       1.0  0.21960  0.42340  0.89673  1.0000
  C   C42       1.0  0.57660  0.79620  0.23007  1.0000
  H   H13       1.0  0.79003  0.27112  0.42258  1.0000
  H   H14       1.0  0.72888  0.51891  0.75591  1.0000
  H   H15       1.0  0.48109  0.20997  0.08925  1.0000
  H   H16       1.0  0.27112  0.79003  0.57742  1.0000
  H   H17       1.0  0.20997  0.48109  0.91075  1.0000
  H   H18       1.0  0.51891  0.72888  0.24409  1.0000
  C   C43       1.0  0.71910  0.15940  0.48780  1.0000
  C   C44       1.0  0.84060  0.55970  0.82113  1.0000
  C   C45       1.0  0.44030  0.28090  0.15447  1.0000
  C   C46       1.0  0.15940  0.71910  0.51220  1.0000
  C   C47       1.0  0.28090  0.44030  0.84553  1.0000
  C   C48       1.0  0.55970  0.84060  0.17887  1.0000
  C   C49       1.0  0.66520  0.21440  0.52050  1.0000
  C   C50       1.0  0.78560  0.45080  0.85383  1.0000
  C   C51       1.0  0.54920  0.33480  0.18717  1.0000
  C   C52       1.0  0.21440  0.66520  0.47950  1.0000
  C   C53       1.0  0.33480  0.54920  0.81283  1.0000
  C   C54       1.0  0.45080  0.78560  0.14617  1.0000
  C   C55       1.0  0.60400  0.16560  0.56980  1.0000
  C   C56       1.0  0.83440  0.43840  0.90313  1.0000
  C   C57       1.0  0.56160  0.39600  0.23647  1.0000
  C   C58       1.0  0.16560  0.60400  0.43020  1.0000
  C   C59       1.0  0.39600  0.56160  0.76353  1.0000
  C   C60       1.0  0.43840  0.83440  0.09687  1.0000
  H   H19       1.0  0.59767  0.09897  0.58288  1.0000
  H   H20       1.0  0.90103  0.49870  0.91621  1.0000
  H   H21       1.0  0.50130  0.40233  0.24955  1.0000
  H   H22       1.0  0.09897  0.59767  0.41712  1.0000
  H   H23       1.0  0.40233  0.50130  0.75045  1.0000
  H   H24       1.0  0.49870  0.90103  0.08379  1.0000
  C   C61       1.0  0.55160  0.21180  0.60060  1.0000
  C   C62       1.0  0.78820  0.33980  0.93393  1.0000
  C   C63       1.0  0.66020  0.44840  0.26727  1.0000
  C   C64       1.0  0.21180  0.55160  0.39940  1.0000
  C   C65       1.0  0.44840  0.66020  0.73273  1.0000
  C   C66       1.0  0.33980  0.78820  0.06607  1.0000
  C   C67       1.0  0.48270  0.15440  0.65280  1.0000
  C   C68       1.0  0.84560  0.32830  0.98613  1.0000
  C   C69       1.0  0.67170  0.51730  0.31947  1.0000
  C   C70       1.0  0.15440  0.48270  0.34720  1.0000
  C   C71       1.0  0.51730  0.67170  0.68053  1.0000
  C   C72       1.0  0.32830  0.84560  0.01387  1.0000
  C   C73       1.0  0.56430  0.31320  0.58180  1.0000
  C   C74       1.0  0.68680  0.25110  0.91513  1.0000
  C   C75       1.0  0.74890  0.43570  0.24847  1.0000
  C   C76       1.0  0.31320  0.56430  0.41820  1.0000
  C   C77       1.0  0.43570  0.74890  0.75153  1.0000
  C   C78       1.0  0.25110  0.68680  0.08487  1.0000
  H   H25       1.0  0.53204  0.34723  0.60289  1.0000
  H   H26       1.0  0.65277  0.18481  0.93622  1.0000
  H   H27       1.0  0.81519  0.46796  0.26956  1.0000
  H   H28       1.0  0.34723  0.53204  0.39711  1.0000
  H   H29       1.0  0.46796  0.81519  0.73044  1.0000
  H   H30       1.0  0.18481  0.65277  0.06378  1.0000
  C   C79       1.0  0.62460  0.36330  0.53210  1.0000
  C   C80       1.0  0.63670  0.26130  0.86543  1.0000
  C   C81       1.0  0.73870  0.37540  0.19877  1.0000
  C   C82       1.0  0.36330  0.62460  0.46790  1.0000
  C   C83       1.0  0.37540  0.73870  0.80123  1.0000
  C   C84       1.0  0.26130  0.63670  0.13457  1.0000
  C   C85       1.0  0.63620  0.47430  0.51250  1.0000
  C   C86       1.0  0.52570  0.16190  0.84583  1.0000
  C   C87       1.0  0.83810  0.36380  0.17917  1.0000
  C   C88       1.0  0.47430  0.63620  0.48750  1.0000
  C   C89       1.0  0.36380  0.83810  0.82083  1.0000
  C   C90       1.0  0.16190  0.52570  0.15417  1.0000
  C   C91       1.0  0.67510  0.31530  0.50120  1.0000
  C   C92       1.0  0.68470  0.35980  0.83453  1.0000
  C   C93       1.0  0.64020  0.32490  0.16787  1.0000
  C   C94       1.0  0.31530  0.67510  0.49880  1.0000
  C   C95       1.0  0.32490  0.64020  0.83213  1.0000
  C   C96       1.0  0.35980  0.68470  0.16547  1.0000
  H   H31       1.0  0.71553  0.34954  0.46769  1.0000
  H   H32       1.0  0.65046  0.36599  0.80102  1.0000
  H   H33       1.0  0.63401  0.28447  0.13436  1.0000
  H   H34       1.0  0.34954  0.71553  0.53231  1.0000
  H   H35       1.0  0.28447  0.63401  0.86564  1.0000
  H   H36       1.0  0.36599  0.65046  0.19898  1.0000
