data_image0
_chemical_formula_structural       Eu6O48C18H6C18H6C12H6C12H6C12H6C12H6C12
_chemical_formula_sum              "Eu6 O48 C96 H36"
_cell_length_a       13.8165
_cell_length_b       13.8165
_cell_length_c       22.984
_cell_angle_alpha    90
_cell_angle_beta     90
_cell_angle_gamma    120

_space_group_name_H-M_alt    "P 1"
_space_group_IT_number       1

loop_
  _space_group_symop_operation_xyz
  'x, y, z'

loop_
  _atom_site_type_symbol
  _atom_site_label
  _atom_site_symmetry_multiplicity
  _atom_site_fract_x
  _atom_site_fract_y
  _atom_site_fract_z
  _atom_site_occupancy
  Eu  Eu1       1.0  0.66626  0.69514  0.08980  1.0000
  Eu  Eu2       1.0  0.30486  0.97112  0.42313  1.0000
  Eu  Eu3       1.0  0.02888  0.33374  0.75647  1.0000
  Eu  Eu4       1.0  0.69514  0.66626  0.91020  1.0000
  Eu  Eu5       1.0  0.33374  0.02888  0.24353  1.0000
  Eu  Eu6       1.0  0.97112  0.30486  0.57687  1.0000
  O   O1        1.0  0.60370  0.52100  0.04823  1.0000
  O   O2        1.0  0.47900  0.08270  0.38156  1.0000
  O   O3        1.0  0.91730  0.39630  0.71490  1.0000
  O   O4        1.0  0.52100  0.60370  0.95177  1.0000
  O   O5        1.0  0.39630  0.91730  0.28510  1.0000
  O   O6        1.0  0.08270  0.47900  0.61844  1.0000
  O   O7        1.0  0.67650  0.50960  0.96340  1.0000
  O   O8        1.0  0.49040  0.16690  0.29673  1.0000
  O   O9        1.0  0.83310  0.32350  0.63007  1.0000
  O   O10       1.0  0.50960  0.67650  0.03660  1.0000
  O   O11       1.0  0.32350  0.83310  0.36993  1.0000
  O   O12       1.0  0.16690  0.49040  0.70327  1.0000
  O   O13       1.0  0.42020  0.18570  0.17416  1.0000
  O   O14       1.0  0.81430  0.23450  0.50749  1.0000
  O   O15       1.0  0.76550  0.57980  0.84083  1.0000
  O   O16       1.0  0.18570  0.42020  0.82584  1.0000
  O   O17       1.0  0.57980  0.76550  0.15917  1.0000
  O   O18       1.0  0.23450  0.81430  0.49251  1.0000
  O   O19       1.0  0.49090  0.07730  0.17610  1.0000
  O   O20       1.0  0.92270  0.41360  0.50943  1.0000
  O   O21       1.0  0.58640  0.50910  0.84277  1.0000
  O   O22       1.0  0.07730  0.49090  0.82390  1.0000
  O   O23       1.0  0.50910  0.58640  0.15723  1.0000
  O   O24       1.0  0.41360  0.92270  0.49057  1.0000
  O   O25       1.0  0.73170  0.87930  0.05338  1.0000
  O   O26       1.0  0.12070  0.85240  0.38671  1.0000
  O   O27       1.0  0.14760  0.26830  0.72005  1.0000
  O   O28       1.0  0.87930  0.73170  0.94662  1.0000
  O   O29       1.0  0.26830  0.14760  0.27995  1.0000
  O   O30       1.0  0.85240  0.12070  0.61329  1.0000
  O   O31       1.0  0.72580  0.82360  0.96171  1.0000
  O   O32       1.0  0.17640  0.90220  0.29504  1.0000
  O   O33       1.0  0.09780  0.27420  0.62838  1.0000
  O   O34       1.0  0.82360  0.72580  0.03829  1.0000
  O   O35       1.0  0.27420  0.09780  0.37162  1.0000
  O   O36       1.0  0.90220  0.17640  0.70496  1.0000
  O   O37       1.0  0.87860  0.27780  0.82740  1.0000
  O   O38       1.0  0.72220  0.60080  0.16073  1.0000
  O   O39       1.0  0.39920  0.12140  0.49407  1.0000
  O   O40       1.0  0.27780  0.87860  0.17260  1.0000
  O   O41       1.0  0.12140  0.39920  0.50593  1.0000
  O   O42       1.0  0.60080  0.72220  0.83927  1.0000
  O   O43       1.0  0.96720  0.18430  0.83390  1.0000
  O   O44       1.0  0.81570  0.78290  0.16723  1.0000
  O   O45       1.0  0.21710  0.03280  0.50057  1.0000
  O   O46       1.0  0.18430  0.96720  0.16610  1.0000
  O   O47       1.0  0.03280  0.21710  0.49943  1.0000
  O   O48       1.0  0.78290  0.81570  0.83277  1.0000
  C   C1        1.0  0.63580  0.47400  0.01330  1.0000
  C   C2        1.0  0.52600  0.16180  0.34663  1.0000
  C   C3        1.0  0.83820  0.36420  0.67997  1.0000
  C   C4        1.0  0.47400  0.63580  0.98670  1.0000
  C   C5        1.0  0.36420  0.83820  0.32003  1.0000
  C   C6        1.0  0.16180  0.52600  0.65337  1.0000
  C   C7        1.0  0.62570  0.36290  0.03280  1.0000
  C   C8        1.0  0.63710  0.26280  0.36613  1.0000
  C   C9        1.0  0.73720  0.37430  0.69947  1.0000
  C   C10       1.0  0.36290  0.62570  0.96720  1.0000
  C   C11       1.0  0.37430  0.73720  0.30053  1.0000
  C   C12       1.0  0.26280  0.63710  0.63387  1.0000
  C   C13       1.0  0.56420  0.31380  0.08270  1.0000
  C   C14       1.0  0.68620  0.25040  0.41603  1.0000
  C   C15       1.0  0.74960  0.43580  0.74937  1.0000
  C   C16       1.0  0.31380  0.56420  0.91730  1.0000
  C   C17       1.0  0.43580  0.74960  0.25063  1.0000
  C   C18       1.0  0.25040  0.68620  0.58397  1.0000
  H   H1        1.0  0.53074  0.34725  0.10323  1.0000
  H   H2        1.0  0.65275  0.18349  0.43656  1.0000
  H   H3        1.0  0.81651  0.46926  0.76990  1.0000
  H   H4        1.0  0.34725  0.53074  0.89677  1.0000
  H   H5        1.0  0.46926  0.81651  0.23010  1.0000
  H   H6        1.0  0.18349  0.65275  0.56344  1.0000
  C   C19       1.0  0.55370  0.21380  0.10100  1.0000
  C   C20       1.0  0.78620  0.33990  0.43433  1.0000
  C   C21       1.0  0.66010  0.44630  0.76767  1.0000
  C   C22       1.0  0.21380  0.55370  0.89900  1.0000
  C   C23       1.0  0.44630  0.66010  0.23233  1.0000
  C   C24       1.0  0.33990  0.78620  0.56567  1.0000
  C   C25       1.0  0.48380  0.15510  0.15370  1.0000
  C   C26       1.0  0.84490  0.32870  0.48703  1.0000
  C   C27       1.0  0.67130  0.51620  0.82037  1.0000
  C   C28       1.0  0.15510  0.48380  0.84630  1.0000
  C   C29       1.0  0.51620  0.67130  0.17963  1.0000
  C   C30       1.0  0.32870  0.84490  0.51297  1.0000
  C   C31       1.0  0.60410  0.16670  0.07040  1.0000
  C   C32       1.0  0.83330  0.43740  0.40373  1.0000
  C   C33       1.0  0.56260  0.39590  0.73707  1.0000
  C   C34       1.0  0.16670  0.60410  0.92960  1.0000
  C   C35       1.0  0.39590  0.56260  0.26293  1.0000
  C   C36       1.0  0.43740  0.83330  0.59627  1.0000
  H   H7        1.0  0.59704  0.09991  0.08370  1.0000
  H   H8        1.0  0.90009  0.49713  0.41703  1.0000
  H   H9        1.0  0.50287  0.40296  0.75037  1.0000
  H   H10       1.0  0.09991  0.59704  0.91630  1.0000
  H   H11       1.0  0.40296  0.50287  0.24963  1.0000
  H   H12       1.0  0.49713  0.90009  0.58297  1.0000
  C   C37       1.0  0.66550  0.21440  0.02020  1.0000
  C   C38       1.0  0.78560  0.45110  0.35353  1.0000
  C   C39       1.0  0.54890  0.33450  0.68687  1.0000
  C   C40       1.0  0.21440  0.66550  0.97980  1.0000
  C   C41       1.0  0.33450  0.54890  0.31313  1.0000
  C   C42       1.0  0.45110  0.78560  0.64647  1.0000
  C   C43       1.0  0.67580  0.31630  0.00150  1.0000
  C   C44       1.0  0.68370  0.35950  0.33483  1.0000
  C   C45       1.0  0.64050  0.32420  0.66817  1.0000
  C   C46       1.0  0.31630  0.67580  0.99850  1.0000
  C   C47       1.0  0.32420  0.64050  0.33183  1.0000
  C   C48       1.0  0.35950  0.68370  0.66517  1.0000
  H   H13       1.0  0.71626  0.35137  0.96812  1.0000
  H   H14       1.0  0.64863  0.36489  0.30145  1.0000
  H   H15       1.0  0.63511  0.28374  0.63479  1.0000
  H   H16       1.0  0.35137  0.71626  0.03188  1.0000
  H   H17       1.0  0.28374  0.63511  0.36521  1.0000
  H   H18       1.0  0.36489  0.64863  0.69855  1.0000
  C   C49       1.0  0.72010  0.15930  0.98780  1.0000
  C   C50       1.0  0.84070  0.56080  0.32113  1.0000
  C   C51       1.0  0.43920  0.27990  0.65447  1.0000
  C   C52       1.0  0.15930  0.72010  0.01220  1.0000
  C   C53       1.0  0.27990  0.43920  0.34553  1.0000
  C   C54       1.0  0.56080  0.84070  0.67887  1.0000
  C   C55       1.0  0.71380  0.06060  0.00850  1.0000
  C   C56       1.0  0.93940  0.65320  0.34183  1.0000
  C   C57       1.0  0.34680  0.28620  0.67517  1.0000
  C   C58       1.0  0.06060  0.71380  0.99150  1.0000
  C   C59       1.0  0.28620  0.34680  0.32483  1.0000
  C   C60       1.0  0.65320  0.93940  0.65817  1.0000
  H   H19       1.0  0.67992  0.03188  0.04422  1.0000
  H   H20       1.0  0.96812  0.64804  0.37755  1.0000
  H   H21       1.0  0.35196  0.32008  0.71089  1.0000
  H   H22       1.0  0.03188  0.67992  0.95578  1.0000
  H   H23       1.0  0.32008  0.35196  0.28911  1.0000
  H   H24       1.0  0.64804  0.96812  0.62245  1.0000
  C   C61       1.0  0.75620  0.00550  0.97760  1.0000
  C   C62       1.0  0.99450  0.75070  0.31093  1.0000
  C   C63       1.0  0.24930  0.24380  0.64427  1.0000
  C   C64       1.0  0.00550  0.75620  0.02240  1.0000
  C   C65       1.0  0.24380  0.24930  0.35573  1.0000
  C   C66       1.0  0.75070  0.99450  0.68907  1.0000
  C   C67       1.0  0.81540  0.05140  0.92620  1.0000
  C   C68       1.0  0.94860  0.76400  0.25953  1.0000
  C   C69       1.0  0.23600  0.18460  0.59287  1.0000
  C   C70       1.0  0.05140  0.81540  0.07380  1.0000
  C   C71       1.0  0.18460  0.23600  0.40713  1.0000
  C   C72       1.0  0.76400  0.94860  0.74047  1.0000
  H   H25       1.0  0.84675  0.01558  0.90585  1.0000
  H   H26       1.0  0.98442  0.83117  0.23918  1.0000
  H   H27       1.0  0.16883  0.15325  0.57252  1.0000
  H   H28       1.0  0.01558  0.84675  0.09415  1.0000
  H   H29       1.0  0.15325  0.16883  0.42748  1.0000
  H   H30       1.0  0.83117  0.98442  0.76082  1.0000
  C   C73       1.0  0.82700  0.15200  0.90600  1.0000
  C   C74       1.0  0.84800  0.67500  0.23933  1.0000
  C   C75       1.0  0.32500  0.17300  0.57267  1.0000
  C   C76       1.0  0.15200  0.82700  0.09400  1.0000
  C   C77       1.0  0.17300  0.32500  0.42733  1.0000
  C   C78       1.0  0.67500  0.84800  0.76067  1.0000
  C   C79       1.0  0.78030  0.20600  0.93720  1.0000
  C   C80       1.0  0.79400  0.57430  0.27053  1.0000
  C   C81       1.0  0.42570  0.21970  0.60387  1.0000
  C   C82       1.0  0.20600  0.78030  0.06280  1.0000
  C   C83       1.0  0.21970  0.42570  0.39613  1.0000
  C   C84       1.0  0.57430  0.79400  0.72947  1.0000
  H   H31       1.0  0.78978  0.27377  0.92379  1.0000
  H   H32       1.0  0.72623  0.51601  0.25712  1.0000
  H   H33       1.0  0.48399  0.21022  0.59046  1.0000
  H   H34       1.0  0.27377  0.78978  0.07621  1.0000
  H   H35       1.0  0.21022  0.48399  0.40954  1.0000
  H   H36       1.0  0.51601  0.72623  0.74288  1.0000
  C   C85       1.0  0.89580  0.20700  0.85230  1.0000
  C   C86       1.0  0.79300  0.68880  0.18563  1.0000
  C   C87       1.0  0.31120  0.10420  0.51897  1.0000
  C   C88       1.0  0.20700  0.89580  0.14770  1.0000
  C   C89       1.0  0.10420  0.31120  0.48103  1.0000
  C   C90       1.0  0.68880  0.79300  0.81437  1.0000
  C   C91       1.0  0.73650  0.89470  0.00030  1.0000
  C   C92       1.0  0.10530  0.84180  0.33363  1.0000
  C   C93       1.0  0.15820  0.26350  0.66697  1.0000
  C   C94       1.0  0.89470  0.73650  0.99970  1.0000
  C   C95       1.0  0.26350  0.15820  0.33303  1.0000
  C   C96       1.0  0.84180  0.10530  0.66637  1.0000
