data_image0
_chemical_formula_structural       C4H8C4H8C4H8C4H8C4H8C4H8C4H8C4H8C4H8C4H8C4H8C4H8C4H8C4H8C4H8C4H8C4H8C4H8C4H8C4H8B4H4B4H4B4H4B4H4B4H4B4H4B4H4B4H4B4H4B4H4B4H4B4H4B4H4B4H4B4H4B4H4B4H4B4H4B4H4B4H4B4H4B4H4B4H4B4H4B4H4B4H4B4H4B4H4B4H4B4H4B4H4B4H4B4H4K4Na8O20Pd2Sn12
_chemical_formula_sum              "C80 H292 B132 K4 Na8 O20 Pd2 Sn12"
_cell_length_a       14.9184
_cell_length_b       29.0382
_cell_length_c       16.6765
_cell_angle_alpha    90
_cell_angle_beta     96.581
_cell_angle_gamma    90

_space_group_name_H-M_alt    "P 1"
_space_group_IT_number       1

loop_
  _space_group_symop_operation_xyz
  'x, y, z'

loop_
  _atom_site_type_symbol
  _atom_site_label
  _atom_site_symmetry_multiplicity
  _atom_site_fract_x
  _atom_site_fract_y
  _atom_site_fract_z
  _atom_site_occupancy
  C   C1        1.0  0.47990  0.56670  0.80410  1.0000
  C   C2        1.0  0.02010  0.06670  0.69590  1.0000
  C   C3        1.0  0.52010  0.43330  0.19590  1.0000
  C   C4        1.0  0.97990  0.93330  0.30410  1.0000
  H   H1        1.0  0.54390  0.56230  0.80090  1.0000
  H   H2        1.0  0.95610  0.06230  0.69910  1.0000
  H   H3        1.0  0.45610  0.43770  0.19910  1.0000
  H   H4        1.0  0.04390  0.93770  0.30090  1.0000
  H   H5        1.0  0.46380  0.59770  0.78610  1.0000
  H   H6        1.0  0.03620  0.09770  0.71390  1.0000
  H   H7        1.0  0.53620  0.40230  0.21390  1.0000
  H   H8        1.0  0.96380  0.90230  0.28610  1.0000
  C   C5        1.0  0.45900  0.55970  0.88960  1.0000
  C   C6        1.0  0.04100  0.05970  0.61040  1.0000
  C   C7        1.0  0.54100  0.44030  0.11040  1.0000
  C   C8        1.0  0.95900  0.94030  0.38960  1.0000
  H   H9        1.0  0.43420  0.58770  0.91010  1.0000
  H   H10       1.0  0.06580  0.08770  0.58990  1.0000
  H   H11       1.0  0.56580  0.41230  0.08990  1.0000
  H   H12       1.0  0.93420  0.91230  0.41010  1.0000
  H   H13       1.0  0.51310  0.55140  0.92440  1.0000
  H   H14       1.0  0.98690  0.05140  0.57560  1.0000
  H   H15       1.0  0.48690  0.44860  0.07560  1.0000
  H   H16       1.0  0.01310  0.94860  0.42440  1.0000
  C   C9        1.0  0.39150  0.52160  0.88610  1.0000
  C   C10       1.0  0.10850  0.02160  0.61390  1.0000
  C   C11       1.0  0.60850  0.47840  0.11390  1.0000
  C   C12       1.0  0.89150  0.97840  0.38610  1.0000
  H   H17       1.0  0.34500  0.52790  0.92080  1.0000
  H   H18       1.0  0.15500  0.02790  0.57920  1.0000
  H   H19       1.0  0.65500  0.47210  0.07920  1.0000
  H   H20       1.0  0.84500  0.97210  0.42080  1.0000
  H   H21       1.0  0.42010  0.49250  0.90180  1.0000
  H   H22       1.0  0.07990  0.99250  0.59820  1.0000
  H   H23       1.0  0.57990  0.50750  0.09820  1.0000
  H   H24       1.0  0.92010  0.00750  0.40180  1.0000
  C   C13       1.0  0.35380  0.52120  0.80010  1.0000
  C   C14       1.0  0.14620  0.02120  0.69990  1.0000
  C   C15       1.0  0.64620  0.47880  0.19990  1.0000
  C   C16       1.0  0.85380  0.97880  0.30010  1.0000
  H   H25       1.0  0.30540  0.54350  0.79050  1.0000
  H   H26       1.0  0.19460  0.04350  0.70950  1.0000
  H   H27       1.0  0.69460  0.45650  0.20950  1.0000
  H   H28       1.0  0.80540  0.95650  0.29050  1.0000
  H   H29       1.0  0.33020  0.49100  0.78480  1.0000
  H   H30       1.0  0.16980  0.99100  0.71520  1.0000
  H   H31       1.0  0.66980  0.50900  0.21520  1.0000
  H   H32       1.0  0.83020  0.00900  0.28480  1.0000
  C   C17       1.0  0.07690  0.75510  0.25120  1.0000
  C   C18       1.0  0.42310  0.25510  0.24880  1.0000
  C   C19       1.0  0.92310  0.24490  0.74880  1.0000
  C   C20       1.0  0.57690  0.74490  0.75120  1.0000
  H   H33       1.0  0.10740  0.74840  0.20430  1.0000
  H   H34       1.0  0.39260  0.24840  0.29570  1.0000
  H   H35       1.0  0.89260  0.25160  0.79570  1.0000
  H   H36       1.0  0.60740  0.75160  0.70430  1.0000
  H   H37       1.0  0.01810  0.74050  0.24440  1.0000
  H   H38       1.0  0.48190  0.24050  0.25560  1.0000
  H   H39       1.0  0.98190  0.25950  0.75560  1.0000
  H   H40       1.0  0.51810  0.75950  0.74440  1.0000
  C   C21       1.0  0.06750  0.80590  0.26130  1.0000
  C   C22       1.0  0.43250  0.30590  0.23870  1.0000
  C   C23       1.0  0.93250  0.19410  0.73870  1.0000
  C   C24       1.0  0.56750  0.69410  0.76130  1.0000
  H   H41       1.0  0.00530  0.81530  0.24700  1.0000
  H   H42       1.0  0.49470  0.31530  0.25300  1.0000
  H   H43       1.0  0.99470  0.18470  0.75300  1.0000
  H   H44       1.0  0.50530  0.68470  0.74700  1.0000
  H   H45       1.0  0.10500  0.82230  0.22690  1.0000
  H   H46       1.0  0.39500  0.32230  0.27310  1.0000
  H   H47       1.0  0.89500  0.17770  0.77310  1.0000
  H   H48       1.0  0.60500  0.67770  0.72690  1.0000
  C   C25       1.0  0.09660  0.81630  0.34710  1.0000
  C   C26       1.0  0.40340  0.31630  0.15290  1.0000
  C   C27       1.0  0.90340  0.18370  0.65290  1.0000
  C   C28       1.0  0.59660  0.68370  0.84710  1.0000
  H   H49       1.0  0.13780  0.84220  0.35130  1.0000
  H   H50       1.0  0.36220  0.34220  0.14870  1.0000
  H   H51       1.0  0.86220  0.15780  0.64870  1.0000
  H   H52       1.0  0.63780  0.65780  0.85130  1.0000
  H   H53       1.0  0.04470  0.82430  0.37440  1.0000
  H   H54       1.0  0.45530  0.32430  0.12560  1.0000
  H   H55       1.0  0.95530  0.17570  0.62560  1.0000
  H   H56       1.0  0.54470  0.67570  0.87440  1.0000
  C   C29       1.0  0.14230  0.77470  0.38560  1.0000
  C   C30       1.0  0.35770  0.27470  0.11440  1.0000
  C   C31       1.0  0.85770  0.22530  0.61440  1.0000
  C   C32       1.0  0.64230  0.72530  0.88560  1.0000
  H   H57       1.0  0.11520  0.76590  0.43340  1.0000
  H   H58       1.0  0.38480  0.26590  0.06660  1.0000
  H   H59       1.0  0.88480  0.23410  0.56660  1.0000
  H   H60       1.0  0.61520  0.73410  0.93340  1.0000
  H   H61       1.0  0.20600  0.78070  0.40080  1.0000
  H   H62       1.0  0.29400  0.28070  0.09920  1.0000
  H   H63       1.0  0.79400  0.21930  0.59920  1.0000
  H   H64       1.0  0.70600  0.71930  0.90080  1.0000
  C   C33       1.0  0.38610  0.63650  0.35630  1.0000
  C   C34       1.0  0.11390  0.13650  0.14370  1.0000
  C   C35       1.0  0.61390  0.36350  0.64370  1.0000
  C   C36       1.0  0.88610  0.86350  0.85630  1.0000
  H   H65       1.0  0.37910  0.63620  0.41340  1.0000
  H   H66       1.0  0.12090  0.13620  0.08660  1.0000
  H   H67       1.0  0.62090  0.36380  0.58660  1.0000
  H   H68       1.0  0.87910  0.86380  0.91340  1.0000
  H   H69       1.0  0.42590  0.66160  0.34570  1.0000
  H   H70       1.0  0.07410  0.16160  0.15430  1.0000
  H   H71       1.0  0.57410  0.33840  0.65430  1.0000
  H   H72       1.0  0.92590  0.83840  0.84570  1.0000
  C   C37       1.0  0.42200  0.59270  0.33190  1.0000
  C   C38       1.0  0.07800  0.09270  0.16810  1.0000
  C   C39       1.0  0.57800  0.40730  0.66810  1.0000
  C   C40       1.0  0.92200  0.90730  0.83190  1.0000
  H   H73       1.0  0.48470  0.59660  0.32300  1.0000
  H   H74       1.0  0.01530  0.09660  0.17700  1.0000
  H   H75       1.0  0.51530  0.40340  0.67700  1.0000
  H   H76       1.0  0.98470  0.90340  0.82300  1.0000
  H   H77       1.0  0.41940  0.57030  0.37460  1.0000
  H   H78       1.0  0.08060  0.07030  0.12540  1.0000
  H   H79       1.0  0.58060  0.42970  0.62540  1.0000
  H   H80       1.0  0.91940  0.92970  0.87460  1.0000
  C   C41       1.0  0.37030  0.57590  0.25770  1.0000
  C   C42       1.0  0.12970  0.07590  0.24230  1.0000
  C   C43       1.0  0.62970  0.42410  0.74230  1.0000
  C   C44       1.0  0.87030  0.92410  0.75770  1.0000
  H   H81       1.0  0.34160  0.54660  0.26640  1.0000
  H   H82       1.0  0.15840  0.04660  0.23360  1.0000
  H   H83       1.0  0.65840  0.45340  0.73360  1.0000
  H   H84       1.0  0.84160  0.95340  0.76640  1.0000
  H   H85       1.0  0.40810  0.57260  0.21450  1.0000
  H   H86       1.0  0.09190  0.07260  0.28550  1.0000
  H   H87       1.0  0.59190  0.42740  0.78550  1.0000
  H   H88       1.0  0.90810  0.92740  0.71450  1.0000
  C   C45       1.0  0.30470  0.61190  0.24060  1.0000
  C   C46       1.0  0.19530  0.11190  0.25940  1.0000
  C   C47       1.0  0.69530  0.38810  0.75940  1.0000
  C   C48       1.0  0.80470  0.88810  0.74060  1.0000
  H   H89       1.0  0.24620  0.59810  0.22440  1.0000
  H   H90       1.0  0.25380  0.09810  0.27560  1.0000
  H   H91       1.0  0.75380  0.40190  0.77560  1.0000
  H   H92       1.0  0.74620  0.90190  0.72440  1.0000
  H   H93       1.0  0.32080  0.63010  0.19560  1.0000
  H   H94       1.0  0.17920  0.13010  0.30440  1.0000
  H   H95       1.0  0.67920  0.36990  0.80440  1.0000
  H   H96       1.0  0.82080  0.86990  0.69560  1.0000
  C   C49       1.0  0.83020  0.74470  0.32830  1.0000
  C   C50       1.0  0.66980  0.24470  0.17170  1.0000
  C   C51       1.0  0.16980  0.25530  0.67170  1.0000
  C   C52       1.0  0.33020  0.75530  0.82830  1.0000
  H   H97       1.0  0.88910  0.73250  0.32060  1.0000
  H   H98       1.0  0.61090  0.23250  0.17940  1.0000
  H   H99       1.0  0.11090  0.26750  0.67940  1.0000
  H   H100      1.0  0.38910  0.76750  0.82060  1.0000
  H   H101      1.0  0.79690  0.74910  0.27540  1.0000
  H   H102      1.0  0.70310  0.24910  0.22460  1.0000
  H   H103      1.0  0.20310  0.25090  0.72460  1.0000
  H   H104      1.0  0.29690  0.75090  0.77540  1.0000
  C   C53       1.0  0.84200  0.79040  0.37000  1.0000
  C   C54       1.0  0.65800  0.29040  0.13000  1.0000
  C   C55       1.0  0.15800  0.20960  0.63000  1.0000
  C   C56       1.0  0.34200  0.70960  0.87000  1.0000
  H   H105      1.0  0.88380  0.81020  0.34610  1.0000
  H   H106      1.0  0.61620  0.31020  0.15390  1.0000
  H   H107      1.0  0.11620  0.18980  0.65390  1.0000
  H   H108      1.0  0.38380  0.68980  0.84610  1.0000
  H   H109      1.0  0.78490  0.80620  0.37210  1.0000
  H   H110      1.0  0.71510  0.30620  0.12790  1.0000
  H   H111      1.0  0.21510  0.19380  0.62790  1.0000
  H   H112      1.0  0.28490  0.69380  0.87210  1.0000
  C   C57       1.0  0.88100  0.77180  0.45200  1.0000
  C   C58       1.0  0.61900  0.27180  0.04800  1.0000
  C   C59       1.0  0.11900  0.22820  0.54800  1.0000
  C   C60       1.0  0.38100  0.72820  0.95200  1.0000
  H   H113      1.0  0.85990  0.78930  0.49570  1.0000
  H   H114      1.0  0.64010  0.28930  0.00430  1.0000
  H   H115      1.0  0.14010  0.21070  0.50430  1.0000
  H   H116      1.0  0.35990  0.71070  0.99570  1.0000
  H   H117      1.0  0.94630  0.77190  0.45790  1.0000
  H   H118      1.0  0.55370  0.27190  0.04210  1.0000
  H   H119      1.0  0.05370  0.22810  0.54210  1.0000
  H   H120      1.0  0.44630  0.72810  0.95790  1.0000
  C   C61       1.0  0.84600  0.72570  0.44910  1.0000
  C   C62       1.0  0.65400  0.22570  0.05090  1.0000
  C   C63       1.0  0.15400  0.27430  0.55090  1.0000
  C   C64       1.0  0.34600  0.77430  0.94910  1.0000
  H   H121      1.0  0.89670  0.70460  0.45490  1.0000
  H   H122      1.0  0.60330  0.20460  0.04510  1.0000
  H   H123      1.0  0.10330  0.29540  0.54510  1.0000
  H   H124      1.0  0.39670  0.79540  0.95490  1.0000
  H   H125      1.0  0.81330  0.72140  0.49560  1.0000
  H   H126      1.0  0.68670  0.22140  0.00440  1.0000
  H   H127      1.0  0.18670  0.27860  0.50440  1.0000
  H   H128      1.0  0.31330  0.77860  0.99560  1.0000
  C   C65       1.0  0.61080  0.61090  0.17180  1.0000
  C   C66       1.0  0.88920  0.11090  0.32820  1.0000
  C   C67       1.0  0.38920  0.38910  0.82820  1.0000
  C   C68       1.0  0.11080  0.88910  0.67180  1.0000
  H   H129      1.0  0.65910  0.59070  0.15940  1.0000
  H   H130      1.0  0.84090  0.09070  0.34060  1.0000
  H   H131      1.0  0.34090  0.40930  0.84060  1.0000
  H   H132      1.0  0.15910  0.90930  0.65940  1.0000
  H   H133      1.0  0.56260  0.59310  0.19100  1.0000
  H   H134      1.0  0.93740  0.09310  0.30900  1.0000
  H   H135      1.0  0.43740  0.40690  0.80900  1.0000
  H   H136      1.0  0.06260  0.90690  0.69100  1.0000
  C   C69       1.0  0.57700  0.64300  0.10080  1.0000
  C   C70       1.0  0.92300  0.14300  0.39920  1.0000
  C   C71       1.0  0.42300  0.35700  0.89920  1.0000
  C   C72       1.0  0.07700  0.85700  0.60080  1.0000
  H   H137      1.0  0.54060  0.62620  0.05860  1.0000
  H   H138      1.0  0.95940  0.12620  0.44140  1.0000
  H   H139      1.0  0.45940  0.37380  0.94140  1.0000
  H   H140      1.0  0.04060  0.87380  0.55860  1.0000
  H   H141      1.0  0.62720  0.65730  0.07810  1.0000
  H   H142      1.0  0.87280  0.15730  0.42190  1.0000
  H   H143      1.0  0.37280  0.34270  0.92190  1.0000
  H   H144      1.0  0.12720  0.84270  0.57810  1.0000
  C   C73       1.0  0.52280  0.67750  0.13770  1.0000
  C   C74       1.0  0.97720  0.17750  0.36230  1.0000
  C   C75       1.0  0.47720  0.32250  0.86230  1.0000
  C   C76       1.0  0.02280  0.82250  0.63770  1.0000
  H   H145      1.0  0.50660  0.70330  0.10200  1.0000
  H   H146      1.0  0.99340  0.20330  0.39800  1.0000
  H   H147      1.0  0.49340  0.29670  0.89800  1.0000
  H   H148      1.0  0.00660  0.79670  0.60200  1.0000
  H   H149      1.0  0.46890  0.66430  0.15590  1.0000
  H   H150      1.0  0.03110  0.16430  0.34410  1.0000
  H   H151      1.0  0.53110  0.33570  0.84410  1.0000
  H   H152      1.0  0.96890  0.83570  0.65590  1.0000
  C   C77       1.0  0.59190  0.69040  0.20680  1.0000
  C   C78       1.0  0.90810  0.19040  0.29320  1.0000
  C   C79       1.0  0.40810  0.30960  0.79320  1.0000
  C   C80       1.0  0.09190  0.80960  0.70680  1.0000
  H   H153      1.0  0.56270  0.70130  0.25230  1.0000
  H   H154      1.0  0.93730  0.20130  0.24770  1.0000
  H   H155      1.0  0.43730  0.29870  0.74770  1.0000
  H   H156      1.0  0.06270  0.79870  0.75230  1.0000
  H   H157      1.0  0.63110  0.71460  0.19070  1.0000
  H   H158      1.0  0.86890  0.21460  0.30930  1.0000
  H   H159      1.0  0.36890  0.28540  0.80930  1.0000
  H   H160      1.0  0.13110  0.78540  0.69070  1.0000
  B   B1        1.0  0.12010  0.61090  0.67110  1.0000
  B   B2        1.0  0.37990  0.11090  0.82890  1.0000
  B   B3        1.0  0.87990  0.38910  0.32890  1.0000
  B   B4        1.0  0.62010  0.88910  0.17110  1.0000
  H   H161      1.0  0.09200  0.59170  0.71940  1.0000
  H   H162      1.0  0.40800  0.09170  0.78060  1.0000
  H   H163      1.0  0.90800  0.40830  0.28060  1.0000
  H   H164      1.0  0.59200  0.90830  0.21940  1.0000
  B   B5        1.0  0.21570  0.58780  0.61860  1.0000
  B   B6        1.0  0.28430  0.08780  0.88140  1.0000
  B   B7        1.0  0.78430  0.41220  0.38140  1.0000
  B   B8        1.0  0.71570  0.91220  0.11860  1.0000
  H   H165      1.0  0.24770  0.55430  0.63380  1.0000
  H   H166      1.0  0.25230  0.05430  0.86620  1.0000
  H   H167      1.0  0.75230  0.44570  0.36620  1.0000
  H   H168      1.0  0.74770  0.94570  0.13380  1.0000
  B   B9        1.0  0.20560  0.61390  0.51410  1.0000
  B   B10       1.0  0.29440  0.11390  0.98590  1.0000
  B   B11       1.0  0.79440  0.38610  0.48590  1.0000
  B   B12       1.0  0.70560  0.88610  0.01410  1.0000
  H   H169      1.0  0.23090  0.59660  0.46250  1.0000
  H   H170      1.0  0.26910  0.09660  0.03750  1.0000
  H   H171      1.0  0.76910  0.40340  0.53750  1.0000
  H   H172      1.0  0.73090  0.90340  0.96250  1.0000
  B   B13       1.0  0.10440  0.65290  0.50250  1.0000
  B   B14       1.0  0.39560  0.15290  0.99750  1.0000
  B   B15       1.0  0.89560  0.34710  0.49750  1.0000
  B   B16       1.0  0.60440  0.84710  0.00250  1.0000
  H   H173      1.0  0.06590  0.66050  0.44380  1.0000
  H   H174      1.0  0.43410  0.16050  0.05620  1.0000
  H   H175      1.0  0.93410  0.33950  0.55620  1.0000
  H   H176      1.0  0.56590  0.83950  0.94380  1.0000
  B   B17       1.0  0.05040  0.65060  0.59990  1.0000
  B   B18       1.0  0.44960  0.15060  0.90010  1.0000
  B   B19       1.0  0.94960  0.34940  0.40010  1.0000
  B   B20       1.0  0.55040  0.84940  0.09990  1.0000
  H   H177      1.0  0.97810  0.65670  0.60280  1.0000
  H   H178      1.0  0.52190  0.15670  0.89720  1.0000
  H   H179      1.0  0.02190  0.34330  0.39720  1.0000
  H   H180      1.0  0.47810  0.84330  0.10280  1.0000
  B   B21       1.0  0.13240  0.67160  0.67610  1.0000
  B   B22       1.0  0.36760  0.17160  0.82390  1.0000
  B   B23       1.0  0.86760  0.32840  0.32390  1.0000
  B   B24       1.0  0.63240  0.82840  0.17610  1.0000
  H   H181      1.0  0.10980  0.69050  0.72740  1.0000
  H   H182      1.0  0.39020  0.19050  0.77260  1.0000
  H   H183      1.0  0.89020  0.30950  0.27260  1.0000
  H   H184      1.0  0.60980  0.80950  0.22740  1.0000
  B   B25       1.0  0.23030  0.63520  0.68710  1.0000
  B   B26       1.0  0.26970  0.13520  0.81290  1.0000
  B   B27       1.0  0.76970  0.36480  0.31290  1.0000
  B   B28       1.0  0.73030  0.86480  0.18710  1.0000
  H   H185      1.0  0.27150  0.63070  0.74560  1.0000
  H   H186      1.0  0.22850  0.13070  0.75440  1.0000
  H   H187      1.0  0.72850  0.36930  0.25440  1.0000
  H   H188      1.0  0.77150  0.86930  0.24560  1.0000
  B   B29       1.0  0.28050  0.63640  0.59330  1.0000
  B   B30       1.0  0.21950  0.13640  0.90670  1.0000
  B   B31       1.0  0.71950  0.36360  0.40670  1.0000
  B   B32       1.0  0.78050  0.86360  0.09330  1.0000
  H   H189      1.0  0.35350  0.63250  0.59110  1.0000
  H   H190      1.0  0.14650  0.13250  0.90890  1.0000
  H   H191      1.0  0.64650  0.36750  0.40890  1.0000
  H   H192      1.0  0.85350  0.86750  0.09110  1.0000
  B   B33       1.0  0.21540  0.67410  0.52700  1.0000
  B   B34       1.0  0.28460  0.17410  0.97300  1.0000
  B   B35       1.0  0.78460  0.32590  0.47300  1.0000
  B   B36       1.0  0.71540  0.82590  0.02700  1.0000
  H   H193      1.0  0.24700  0.69470  0.48250  1.0000
  H   H194      1.0  0.25300  0.19470  0.01750  1.0000
  H   H195      1.0  0.75300  0.30530  0.51750  1.0000
  H   H196      1.0  0.74700  0.80530  0.98250  1.0000
  B   B37       1.0  0.12470  0.69580  0.57690  1.0000
  B   B38       1.0  0.37530  0.19580  0.92310  1.0000
  B   B39       1.0  0.87530  0.30420  0.42310  1.0000
  B   B40       1.0  0.62470  0.80420  0.07690  1.0000
  H   H197      1.0  0.09750  0.73060  0.56410  1.0000
  H   H198      1.0  0.40250  0.23060  0.93590  1.0000
  H   H199      1.0  0.90250  0.26940  0.43590  1.0000
  H   H200      1.0  0.59750  0.76940  0.06410  1.0000
  B   B41       1.0  0.23170  0.68750  0.63280  1.0000
  B   B42       1.0  0.26830  0.18750  0.86720  1.0000
  B   B43       1.0  0.76830  0.31250  0.36720  1.0000
  B   B44       1.0  0.73170  0.81250  0.13280  1.0000
  H   H201      1.0  0.27350  0.71660  0.65700  1.0000
  H   H202      1.0  0.22650  0.21660  0.84300  1.0000
  H   H203      1.0  0.72650  0.28340  0.34300  1.0000
  H   H204      1.0  0.77350  0.78340  0.15700  1.0000
  B   B45       1.0  0.71020  0.55060  0.45710  1.0000
  B   B46       1.0  0.78980  0.05060  0.04290  1.0000
  B   B47       1.0  0.28980  0.44940  0.54290  1.0000
  B   B48       1.0  0.21020  0.94940  0.95710  1.0000
  H   H205      1.0  0.70980  0.53910  0.39420  1.0000
  H   H206      1.0  0.79020  0.03910  0.10580  1.0000
  H   H207      1.0  0.29020  0.46090  0.60580  1.0000
  H   H208      1.0  0.20980  0.96090  0.89420  1.0000
  B   B49       1.0  0.69470  0.50970  0.54270  1.0000
  B   B50       1.0  0.80530  0.00970  0.95730  1.0000
  B   B51       1.0  0.30530  0.49030  0.45730  1.0000
  B   B52       1.0  0.19470  0.99030  0.04270  1.0000
  H   H209      1.0  0.68470  0.47250  0.53390  1.0000
  H   H210      1.0  0.81530  0.97250  0.96610  1.0000
  H   H211      1.0  0.31530  0.52750  0.46610  1.0000
  H   H212      1.0  0.18470  0.02750  0.03390  1.0000
  B   B53       1.0  0.75260  0.53590  0.63960  1.0000
  B   B54       1.0  0.74740  0.03590  0.86040  1.0000
  B   B55       1.0  0.24740  0.46410  0.36040  1.0000
  B   B56       1.0  0.25260  0.96410  0.13960  1.0000
  H   H213      1.0  0.77880  0.51510  0.69220  1.0000
  H   H214      1.0  0.72120  0.01510  0.80780  1.0000
  H   H215      1.0  0.22120  0.48490  0.30780  1.0000
  H   H216      1.0  0.27880  0.98490  0.19220  1.0000
  B   B57       1.0  0.80520  0.59170  0.61290  1.0000
  B   B58       1.0  0.69480  0.09170  0.88710  1.0000
  B   B59       1.0  0.19480  0.40830  0.38710  1.0000
  B   B60       1.0  0.30520  0.90830  0.11290  1.0000
  H   H217      1.0  0.86530  0.60600  0.64880  1.0000
  H   H218      1.0  0.63470  0.10600  0.85120  1.0000
  H   H219      1.0  0.13470  0.39400  0.35120  1.0000
  H   H220      1.0  0.36530  0.89400  0.14880  1.0000
  B   B61       1.0  0.77970  0.60130  0.50100  1.0000
  B   B62       1.0  0.72030  0.10130  0.99900  1.0000
  B   B63       1.0  0.22030  0.39870  0.49900  1.0000
  B   B64       1.0  0.27970  0.89870  0.00100  1.0000
  H   H221      1.0  0.82370  0.62170  0.46600  1.0000
  H   H222      1.0  0.67630  0.12170  0.03400  1.0000
  H   H223      1.0  0.17630  0.37830  0.53400  1.0000
  H   H224      1.0  0.32370  0.87830  0.96600  1.0000
  B   B65       1.0  0.65980  0.60350  0.47990  1.0000
  B   B66       1.0  0.84020  0.10350  0.02010  1.0000
  B   B67       1.0  0.34020  0.39650  0.52010  1.0000
  B   B68       1.0  0.15980  0.89650  0.97990  1.0000
  H   H225      1.0  0.62880  0.62510  0.43010  1.0000
  H   H226      1.0  0.87120  0.12510  0.06990  1.0000
  H   H227      1.0  0.37120  0.37490  0.56990  1.0000
  H   H228      1.0  0.12880  0.87490  0.93010  1.0000
  B   B69       1.0  0.61010  0.55030  0.50480  1.0000
  B   B70       1.0  0.88990  0.05030  0.99520  1.0000
  B   B71       1.0  0.38990  0.44970  0.49520  1.0000
  B   B72       1.0  0.11010  0.94970  0.00480  1.0000
  H   H229      1.0  0.54690  0.53770  0.47160  1.0000
  H   H230      1.0  0.95310  0.03770  0.02840  1.0000
  H   H231      1.0  0.45310  0.46230  0.52840  1.0000
  H   H232      1.0  0.04690  0.96230  0.97160  1.0000
  B   B73       1.0  0.63620  0.54140  0.61140  1.0000
  B   B74       1.0  0.86380  0.04140  0.88860  1.0000
  B   B75       1.0  0.36380  0.45860  0.38860  1.0000
  B   B76       1.0  0.13620  0.95860  0.11140  1.0000
  H   H233      1.0  0.58970  0.52290  0.64670  1.0000
  H   H234      1.0  0.91030  0.02290  0.85330  1.0000
  H   H235      1.0  0.41030  0.47710  0.35330  1.0000
  H   H236      1.0  0.08970  0.97710  0.14670  1.0000
  B   B77       1.0  0.70040  0.58950  0.65200  1.0000
  B   B78       1.0  0.79960  0.08950  0.84800  1.0000
  B   B79       1.0  0.29960  0.41050  0.34800  1.0000
  B   B80       1.0  0.20040  0.91050  0.15200  1.0000
  H   H237      1.0  0.69520  0.60230  0.71340  1.0000
  H   H238      1.0  0.80480  0.10230  0.78660  1.0000
  H   H239      1.0  0.30480  0.39770  0.28660  1.0000
  H   H240      1.0  0.19520  0.89770  0.21340  1.0000
  B   B81       1.0  0.71590  0.62860  0.57040  1.0000
  B   B82       1.0  0.78410  0.12860  0.92960  1.0000
  B   B83       1.0  0.28410  0.37140  0.42960  1.0000
  B   B84       1.0  0.21590  0.87140  0.07040  1.0000
  H   H241      1.0  0.72110  0.66610  0.57890  1.0000
  H   H242      1.0  0.77890  0.16610  0.92110  1.0000
  H   H243      1.0  0.27890  0.33390  0.42110  1.0000
  H   H244      1.0  0.22110  0.83390  0.07890  1.0000
  B   B85       1.0  0.61180  0.59840  0.57160  1.0000
  B   B86       1.0  0.88820  0.09840  0.92840  1.0000
  B   B87       1.0  0.38820  0.40160  0.42840  1.0000
  B   B88       1.0  0.11180  0.90160  0.07160  1.0000
  H   H245      1.0  0.54950  0.61680  0.58130  1.0000
  H   H246      1.0  0.95050  0.11680  0.91870  1.0000
  H   H247      1.0  0.45050  0.38320  0.41870  1.0000
  H   H248      1.0  0.04950  0.88320  0.08130  1.0000
  B   B89       1.0  0.14400  0.43200  0.73400  1.0000
  B   B90       1.0  0.35600  0.93200  0.76600  1.0000
  B   B91       1.0  0.85600  0.56800  0.26600  1.0000
  B   B92       1.0  0.64400  0.06800  0.23400  1.0000
  H   H249      1.0  0.20940  0.43180  0.70940  1.0000
  H   H250      1.0  0.29060  0.93180  0.79060  1.0000
  H   H251      1.0  0.79060  0.56820  0.29060  1.0000
  H   H252      1.0  0.70940  0.06820  0.20940  1.0000
  B   B93       1.0  0.09740  0.48450  0.78040  1.0000
  B   B94       1.0  0.40260  0.98450  0.71960  1.0000
  B   B95       1.0  0.90260  0.51550  0.21960  1.0000
  B   B96       1.0  0.59740  0.01550  0.28040  1.0000
  H   H253      1.0  0.13360  0.51760  0.78520  1.0000
  H   H254      1.0  0.36640  0.01760  0.71480  1.0000
  H   H255      1.0  0.86640  0.48240  0.21480  1.0000
  H   H256      1.0  0.63360  0.98240  0.28520  1.0000
  B   B97       1.0  0.97080  0.48020  0.76700  1.0000
  B   B98       1.0  0.52920  0.98020  0.73300  1.0000
  B   B99       1.0  0.02920  0.51980  0.23300  1.0000
  B   B100      1.0  0.47080  0.01980  0.26700  1.0000
  H   H257      1.0  0.92690  0.51080  0.76320  1.0000
  H   H258      1.0  0.57310  0.01080  0.73680  1.0000
  H   H259      1.0  0.07310  0.48920  0.23680  1.0000
  H   H260      1.0  0.42690  0.98920  0.26320  1.0000
  B   B101      1.0  0.93800  0.42480  0.71330  1.0000
  B   B102      1.0  0.56200  0.92480  0.78670  1.0000
  B   B103      1.0  0.06200  0.57520  0.28670  1.0000
  B   B104      1.0  0.43800  0.07520  0.21330  1.0000
  H   H261      1.0  0.87330  0.42010  0.67540  1.0000
  H   H262      1.0  0.62670  0.92010  0.82460  1.0000
  H   H263      1.0  0.12670  0.57990  0.32460  1.0000
  H   H264      1.0  0.37330  0.07990  0.17540  1.0000
  B   B105      1.0  0.04600  0.39470  0.69320  1.0000
  B   B106      1.0  0.45400  0.89470  0.80680  1.0000
  B   B107      1.0  0.95400  0.60530  0.30680  1.0000
  B   B108      1.0  0.54600  0.10530  0.19320  1.0000
  H   H265      1.0  0.05010  0.37070  0.64270  1.0000
  H   H266      1.0  0.44990  0.87070  0.85730  1.0000
  H   H267      1.0  0.94990  0.62930  0.35730  1.0000
  H   H268      1.0  0.55010  0.12930  0.14270  1.0000
  B   B109      1.0  0.10690  0.38340  0.78900  1.0000
  B   B110      1.0  0.39310  0.88340  0.71100  1.0000
  B   B111      1.0  0.89310  0.61660  0.21100  1.0000
  B   B112      1.0  0.60690  0.11660  0.28900  1.0000
  H   H269      1.0  0.14970  0.35250  0.79780  1.0000
  H   H270      1.0  0.35030  0.85250  0.70220  1.0000
  H   H271      1.0  0.85030  0.64750  0.20220  1.0000
  H   H272      1.0  0.64970  0.14750  0.29780  1.0000
  B   B113      1.0  0.13760  0.43700  0.84010  1.0000
  B   B114      1.0  0.36240  0.93700  0.65990  1.0000
  B   B115      1.0  0.86240  0.56300  0.15990  1.0000
  B   B116      1.0  0.63760  0.06300  0.34010  1.0000
  H   H273      1.0  0.20000  0.44050  0.88170  1.0000
  H   H274      1.0  0.30000  0.94050  0.61830  1.0000
  H   H275      1.0  0.80000  0.55950  0.11830  1.0000
  H   H276      1.0  0.70000  0.05950  0.38170  1.0000
  B   B117      1.0  0.03530  0.46510  0.85810  1.0000
  B   B118      1.0  0.46470  0.96510  0.64190  1.0000
  B   B119      1.0  0.96470  0.53490  0.14190  1.0000
  B   B120      1.0  0.53530  0.03490  0.35810  1.0000
  H   H277      1.0  0.03200  0.48690  0.91170  1.0000
  H   H278      1.0  0.46800  0.98690  0.58830  1.0000
  H   H279      1.0  0.96800  0.51310  0.08830  1.0000
  H   H280      1.0  0.53200  0.01310  0.41170  1.0000
  B   B121      1.0  0.94250  0.42970  0.81880  1.0000
  B   B122      1.0  0.55750  0.92970  0.68120  1.0000
  B   B123      1.0  0.05750  0.57030  0.18120  1.0000
  B   B124      1.0  0.44250  0.07030  0.31880  1.0000
  H   H281      1.0  0.87940  0.42860  0.84710  1.0000
  H   H282      1.0  0.62060  0.92860  0.65290  1.0000
  H   H283      1.0  0.12060  0.57140  0.15290  1.0000
  H   H284      1.0  0.37940  0.07140  0.34710  1.0000
  B   B125      1.0  0.98480  0.38020  0.77570  1.0000
  B   B126      1.0  0.51520  0.88020  0.72430  1.0000
  B   B127      1.0  0.01520  0.61980  0.22430  1.0000
  B   B128      1.0  0.48480  0.11980  0.27570  1.0000
  H   H285      1.0  0.94880  0.34710  0.77530  1.0000
  H   H286      1.0  0.55120  0.84710  0.72470  1.0000
  H   H287      1.0  0.05120  0.65290  0.22470  1.0000
  H   H288      1.0  0.44880  0.15290  0.27530  1.0000
  B   B129      1.0  0.04210  0.40360  0.86550  1.0000
  B   B130      1.0  0.45790  0.90360  0.63450  1.0000
  B   B131      1.0  0.95790  0.59640  0.13450  1.0000
  B   B132      1.0  0.54210  0.09640  0.36550  1.0000
  H   H289      1.0  0.04360  0.38550  0.92360  1.0000
  H   H290      1.0  0.45640  0.88550  0.57640  1.0000
  H   H291      1.0  0.95640  0.61450  0.07640  1.0000
  H   H292      1.0  0.54360  0.11450  0.42360  1.0000
  K   K1        1.0  0.41775  0.54701  0.59873  1.0000
  K   K2        1.0  0.08225  0.04701  0.90127  1.0000
  K   K3        1.0  0.58225  0.45299  0.40127  1.0000
  K   K4        1.0  0.91775  0.95299  0.09873  1.0000
  Na  Na1       1.0  0.16260  0.66089  0.34580  1.0000
  Na  Na2       1.0  0.33740  0.16089  0.15420  1.0000
  Na  Na3       1.0  0.83740  0.33911  0.65420  1.0000
  Na  Na4       1.0  0.66260  0.83911  0.84580  1.0000
  Na  Na5       1.0  0.75450  0.63883  0.33460  1.0000
  Na  Na6       1.0  0.74550  0.13883  0.16540  1.0000
  Na  Na7       1.0  0.24550  0.36117  0.66540  1.0000
  Na  Na8       1.0  0.25450  0.86117  0.83460  1.0000
  O   O1        1.0  0.42750  0.53310  0.75370  1.0000
  O   O2        1.0  0.07250  0.03310  0.74630  1.0000
  O   O3        1.0  0.57250  0.46690  0.24630  1.0000
  O   O4        1.0  0.92750  0.96690  0.25370  1.0000
  O   O5        1.0  0.13020  0.73850  0.32480  1.0000
  O   O6        1.0  0.36980  0.23850  0.17520  1.0000
  O   O7        1.0  0.86980  0.26150  0.67520  1.0000
  O   O8        1.0  0.63020  0.76150  0.82480  1.0000
  O   O9        1.0  0.29790  0.64150  0.30760  1.0000
  O   O10       1.0  0.20210  0.14150  0.19240  1.0000
  O   O11       1.0  0.70210  0.35850  0.69240  1.0000
  O   O12       1.0  0.79790  0.85850  0.80760  1.0000
  O   O13       1.0  0.78310  0.71170  0.37300  1.0000
  O   O14       1.0  0.71690  0.21170  0.12700  1.0000
  O   O15       1.0  0.21690  0.28830  0.62700  1.0000
  O   O16       1.0  0.28310  0.78830  0.87300  1.0000
  O   O17       1.0  0.64340  0.64890  0.22830  1.0000
  O   O18       1.0  0.85660  0.14890  0.27170  1.0000
  O   O19       1.0  0.35660  0.35110  0.77170  1.0000
  O   O20       1.0  0.14340  0.85110  0.72830  1.0000
  Pd  Pd1       1.0  0.00000  0.50000  0.50000  1.0000
  Pd  Pd2       1.0  0.50000  0.00000  0.00000  1.0000
  Sn  Sn1       1.0  0.07454  0.57857  0.54599  1.0000
  Sn  Sn2       1.0  0.42546  0.07857  0.95401  1.0000
  Sn  Sn3       1.0  0.92546  0.42143  0.45401  1.0000
  Sn  Sn4       1.0  0.57454  0.92143  0.04599  1.0000
  Sn  Sn5       1.0  0.84425  0.53009  0.53533  1.0000
  Sn  Sn6       1.0  0.65575  0.03009  0.96467  1.0000
  Sn  Sn7       1.0  0.15575  0.46991  0.46467  1.0000
  Sn  Sn8       1.0  0.34425  0.96991  0.03533  1.0000
  Sn  Sn9       1.0  0.03583  0.47003  0.64798  1.0000
  Sn  Sn10      1.0  0.46417  0.97003  0.85202  1.0000
  Sn  Sn11      1.0  0.96417  0.52997  0.35202  1.0000
  Sn  Sn12      1.0  0.53583  0.02997  0.14798  1.0000
