data_image0
_chemical_formula_structural       C6H2F2C2H2C6H2C2H2Cl4In2O8
_chemical_formula_sum              "C16 H8 F2 Cl4 In2 O8"
_cell_length_a       6.9807
_cell_length_b       8.3911
_cell_length_c       16.7281
_cell_angle_alpha    76.835
_cell_angle_beta     89.407
_cell_angle_gamma    68.085

_space_group_name_H-M_alt    "P 1"
_space_group_IT_number       1

loop_
  _space_group_symop_operation_xyz
  'x, y, z'

loop_
  _atom_site_type_symbol
  _atom_site_label
  _atom_site_symmetry_multiplicity
  _atom_site_fract_x
  _atom_site_fract_y
  _atom_site_fract_z
  _atom_site_occupancy
  C   C1        1.0  0.32300  0.37390  0.38430  1.0000
  C   C2        1.0  0.67700  0.62610  0.61570  1.0000
  C   C3        1.0  0.41540  0.43910  0.44450  1.0000
  C   C4        1.0  0.58460  0.56090  0.55550  1.0000
  C   C5        1.0  0.29750  0.50850  0.50480  1.0000
  C   C6        1.0  0.70250  0.49150  0.49520  1.0000
  H   H1        1.0  0.15900  0.51470  0.50760  1.0000
  H   H2        1.0  0.84100  0.48530  0.49240  1.0000
  F   F1        1.0  0.88680  0.26520  0.28610  1.0000
  F   F2        1.0  0.11320  0.73480  0.71390  1.0000
  C   C7        1.0  0.38160  0.56930  0.56120  1.0000
  C   C8        1.0  0.61840  0.43070  0.43880  1.0000
  H   H3        1.0  0.30170  0.61560  0.60290  1.0000
  H   H4        1.0  0.69830  0.38440  0.39710  1.0000
  C   C9        1.0  0.35090  0.13080  0.14390  1.0000
  C   C10       1.0  0.64910  0.86920  0.85610  1.0000
  C   C11       1.0  0.42780  0.06490  0.06850  1.0000
  C   C12       1.0  0.57220  0.93510  0.93150  1.0000
  C   C13       1.0  0.29300  0.04560  0.01430  1.0000
  C   C14       1.0  0.70700  0.95440  0.98570  1.0000
  H   H5        1.0  0.15090  0.07680  0.02420  1.0000
  H   H6        1.0  0.84910  0.92320  0.97580  1.0000
  C   C15       1.0  0.36480  0.98120  0.94570  1.0000
  C   C16       1.0  0.63520  0.01880  0.05430  1.0000
  H   H7        1.0  0.27200  0.96870  0.90870  1.0000
  H   H8        1.0  0.72800  0.03130  0.09130  1.0000
  Cl  Cl1       1.0  0.33440  0.95197  0.36208  1.0000
  Cl  Cl2       1.0  0.66560  0.04803  0.63792  1.0000
  Cl  Cl3       1.0  0.07040  0.55141  0.17914  1.0000
  Cl  Cl4       1.0  0.92960  0.44859  0.82086  1.0000
  In  In1       1.0  0.18710  0.25309  0.27242  1.0000
  In  In2       1.0  0.81290  0.74691  0.72758  1.0000
  O   O1        1.0  0.14240  0.37720  0.38780  1.0000
  O   O2        1.0  0.85760  0.62280  0.61220  1.0000
  O   O3        1.0  0.43480  0.31370  0.32910  1.0000
  O   O4        1.0  0.56520  0.68630  0.67090  1.0000
  O   O5        1.0  0.16760  0.14660  0.16210  1.0000
  O   O6        1.0  0.83240  0.85340  0.83790  1.0000
  O   O7        1.0  0.46450  0.16770  0.18720  1.0000
  O   O8        1.0  0.53550  0.83230  0.81280  1.0000
