data_image0
_chemical_formula_structural       C12H4C4H4C8H4C4H4C12H4C4H4C8H4C4H4C12H4C4H4C8H4C4H4C12H4C4H4C8H4C4H4C12H4C4H4C8H4C4H4In6O40Br4
_chemical_formula_sum              "C140 H80 In6 O40 Br4"
_cell_length_a       9.3894
_cell_length_b       15.536
_cell_length_c       34.201
_cell_angle_alpha    90
_cell_angle_beta     90
_cell_angle_gamma    90

_space_group_name_H-M_alt    "P 1"
_space_group_IT_number       1

loop_
  _space_group_symop_operation_xyz
  'x, y, z'

loop_
  _atom_site_type_symbol
  _atom_site_label
  _atom_site_symmetry_multiplicity
  _atom_site_fract_x
  _atom_site_fract_y
  _atom_site_fract_z
  _atom_site_occupancy
  C   C1        1.0  0.09400  0.87540  0.31700  1.0000
  C   C2        1.0  0.90600  0.12460  0.81700  1.0000
  C   C3        1.0  0.09400  0.12460  0.68300  1.0000
  C   C4        1.0  0.90600  0.87540  0.18300  1.0000
  C   C5        1.0  0.14700  0.83740  0.35280  1.0000
  C   C6        1.0  0.85300  0.16260  0.85280  1.0000
  C   C7        1.0  0.14700  0.16260  0.64720  1.0000
  C   C8        1.0  0.85300  0.83740  0.14720  1.0000
  C   C9        1.0  0.13500  0.74940  0.36000  1.0000
  C   C10       1.0  0.86500  0.25060  0.86000  1.0000
  C   C11       1.0  0.13500  0.25060  0.64000  1.0000
  C   C12       1.0  0.86500  0.74940  0.14000  1.0000
  H   H1        1.0  0.07790  0.71410  0.34370  1.0000
  H   H2        1.0  0.92210  0.28590  0.84370  1.0000
  H   H3        1.0  0.07790  0.28590  0.65630  1.0000
  H   H4        1.0  0.92210  0.71410  0.15630  1.0000
  C   C13       1.0  0.21300  0.71200  0.39340  1.0000
  C   C14       1.0  0.78700  0.28800  0.89340  1.0000
  C   C15       1.0  0.21300  0.28800  0.60660  1.0000
  C   C16       1.0  0.78700  0.71200  0.10660  1.0000
  H   H5        1.0  0.22200  0.65150  0.39630  1.0000
  H   H6        1.0  0.77800  0.34850  0.89630  1.0000
  H   H7        1.0  0.22200  0.34850  0.60370  1.0000
  H   H8        1.0  0.77800  0.65150  0.10370  1.0000
  C   C17       1.0  0.27300  0.76850  0.42070  1.0000
  C   C18       1.0  0.72700  0.23150  0.92070  1.0000
  C   C19       1.0  0.27300  0.23150  0.57930  1.0000
  C   C20       1.0  0.72700  0.76850  0.07930  1.0000
  C   C21       1.0  0.28300  0.85310  0.41390  1.0000
  C   C22       1.0  0.71700  0.14690  0.91390  1.0000
  C   C23       1.0  0.28300  0.14690  0.58610  1.0000
  C   C24       1.0  0.71700  0.85310  0.08610  1.0000
  H   H9        1.0  0.33530  0.88800  0.43150  1.0000
  H   H10       1.0  0.66470  0.11200  0.93150  1.0000
  H   H11       1.0  0.33530  0.11200  0.56850  1.0000
  H   H12       1.0  0.66470  0.88800  0.06850  1.0000
  C   C25       1.0  0.21700  0.89200  0.38110  1.0000
  C   C26       1.0  0.78300  0.10800  0.88110  1.0000
  C   C27       1.0  0.21700  0.10800  0.61890  1.0000
  C   C28       1.0  0.78300  0.89200  0.11890  1.0000
  H   H13       1.0  0.21780  0.95270  0.37790  1.0000
  H   H14       1.0  0.78220  0.04730  0.87790  1.0000
  H   H15       1.0  0.21780  0.04730  0.62210  1.0000
  H   H16       1.0  0.78220  0.95270  0.12210  1.0000
  C   C29       1.0  0.55590  0.63120  0.55680  1.0000
  C   C30       1.0  0.44410  0.36880  0.05680  1.0000
  C   C31       1.0  0.55590  0.36880  0.44320  1.0000
  C   C32       1.0  0.44410  0.63120  0.94320  1.0000
  C   C33       1.0  0.48500  0.66360  0.52210  1.0000
  C   C34       1.0  0.51500  0.33640  0.02210  1.0000
  C   C35       1.0  0.48500  0.33640  0.47790  1.0000
  C   C36       1.0  0.51500  0.66360  0.97790  1.0000
  C   C37       1.0  0.49300  0.62350  0.48540  1.0000
  C   C38       1.0  0.50700  0.37650  0.98540  1.0000
  C   C39       1.0  0.49300  0.37650  0.51460  1.0000
  C   C40       1.0  0.50700  0.62350  0.01460  1.0000
  H   H17       1.0  0.54610  0.57180  0.48340  1.0000
  H   H18       1.0  0.45390  0.42820  0.98340  1.0000
  H   H19       1.0  0.54610  0.42820  0.51660  1.0000
  H   H20       1.0  0.45390  0.57180  0.01660  1.0000
  C   C41       1.0  0.43000  0.65280  0.45330  1.0000
  C   C42       1.0  0.57000  0.34720  0.95330  1.0000
  C   C43       1.0  0.43000  0.34720  0.54670  1.0000
  C   C44       1.0  0.57000  0.65280  0.04670  1.0000
  H   H21       1.0  0.43770  0.62150  0.42950  1.0000
  H   H22       1.0  0.56230  0.37850  0.92950  1.0000
  H   H23       1.0  0.43770  0.37850  0.57050  1.0000
  H   H24       1.0  0.56230  0.62150  0.07050  1.0000
  C   C45       1.0  0.35200  0.72940  0.45440  1.0000
  C   C46       1.0  0.64800  0.27060  0.95440  1.0000
  C   C47       1.0  0.35200  0.27060  0.54560  1.0000
  C   C48       1.0  0.64800  0.72940  0.04560  1.0000
  C   C49       1.0  0.34000  0.77270  0.49140  1.0000
  C   C50       1.0  0.66000  0.22730  0.99140  1.0000
  C   C51       1.0  0.34000  0.22730  0.50860  1.0000
  C   C52       1.0  0.66000  0.77270  0.00860  1.0000
  H   H25       1.0  0.28570  0.82390  0.49380  1.0000
  H   H26       1.0  0.71430  0.17610  0.99380  1.0000
  H   H27       1.0  0.28570  0.17610  0.50620  1.0000
  H   H28       1.0  0.71430  0.82390  0.00620  1.0000
  C   C53       1.0  0.41000  0.73870  0.52360  1.0000
  C   C54       1.0  0.59000  0.26130  0.02360  1.0000
  C   C55       1.0  0.41000  0.26130  0.47640  1.0000
  C   C56       1.0  0.59000  0.73870  0.97640  1.0000
  H   H29       1.0  0.40580  0.76900  0.54760  1.0000
  H   H30       1.0  0.59420  0.23100  0.04760  1.0000
  H   H31       1.0  0.40580  0.23100  0.45240  1.0000
  H   H32       1.0  0.59420  0.76900  0.95240  1.0000
  C   C57       1.0  0.24140  0.00630  0.22350  1.0000
  C   C58       1.0  0.75860  0.99370  0.72350  1.0000
  C   C59       1.0  0.24140  0.99370  0.77650  1.0000
  C   C60       1.0  0.75860  0.00630  0.27650  1.0000
  C   C61       1.0  0.36220  0.05390  0.20830  1.0000
  C   C62       1.0  0.63780  0.94610  0.70830  1.0000
  C   C63       1.0  0.36220  0.94610  0.79170  1.0000
  C   C64       1.0  0.63780  0.05390  0.29170  1.0000
  C   C65       1.0  0.35600  0.14460  0.20240  1.0000
  C   C66       1.0  0.64400  0.85540  0.70240  1.0000
  C   C67       1.0  0.35600  0.85540  0.79760  1.0000
  C   C68       1.0  0.64400  0.14460  0.29760  1.0000
  H   H33       1.0  0.26650  0.17140  0.20740  1.0000
  H   H34       1.0  0.73350  0.82860  0.70740  1.0000
  H   H35       1.0  0.26650  0.82860  0.79260  1.0000
  H   H36       1.0  0.73350  0.17140  0.29260  1.0000
  C   C69       1.0  0.47200  0.20140  0.18930  1.0000
  C   C70       1.0  0.52800  0.79860  0.68930  1.0000
  C   C71       1.0  0.47200  0.79860  0.81070  1.0000
  C   C72       1.0  0.52800  0.20140  0.31070  1.0000
  H   H37       1.0  0.46450  0.26180  0.18550  1.0000
  H   H38       1.0  0.53550  0.73820  0.68550  1.0000
  H   H39       1.0  0.46450  0.73820  0.81450  1.0000
  H   H40       1.0  0.53550  0.26180  0.31450  1.0000
  C   C73       1.0  0.60460  0.14940  0.18280  1.0000
  C   C74       1.0  0.39540  0.85060  0.68280  1.0000
  C   C75       1.0  0.60460  0.85060  0.81720  1.0000
  C   C76       1.0  0.39540  0.14940  0.31720  1.0000
  C   C77       1.0  0.61520  0.06480  0.18930  1.0000
  C   C78       1.0  0.38480  0.93520  0.68930  1.0000
  C   C79       1.0  0.61520  0.93520  0.81070  1.0000
  C   C80       1.0  0.38480  0.06480  0.31070  1.0000
  H   H41       1.0  0.70400  0.03650  0.18570  1.0000
  H   H42       1.0  0.29600  0.96350  0.68570  1.0000
  H   H43       1.0  0.70400  0.96350  0.81430  1.0000
  H   H44       1.0  0.29600  0.03650  0.31430  1.0000
  C   C81       1.0  0.49000  0.01490  0.20210  1.0000
  C   C82       1.0  0.51000  0.98510  0.70210  1.0000
  C   C83       1.0  0.49000  0.98510  0.79790  1.0000
  C   C84       1.0  0.51000  0.01490  0.29790  1.0000
  H   H45       1.0  0.49830  0.95460  0.20610  1.0000
  H   H46       1.0  0.50170  0.04540  0.70610  1.0000
  H   H47       1.0  0.49830  0.04540  0.79390  1.0000
  H   H48       1.0  0.50170  0.95460  0.29390  1.0000
  C   C85       1.0  0.11610  0.33830  0.13160  1.0000
  C   C86       1.0  0.88390  0.66170  0.63160  1.0000
  C   C87       1.0  0.11610  0.66170  0.86840  1.0000
  C   C88       1.0  0.88390  0.33830  0.36840  1.0000
  C   C89       1.0  0.98590  0.29670  0.14440  1.0000
  C   C90       1.0  0.01410  0.70330  0.64440  1.0000
  C   C91       1.0  0.98590  0.70330  0.85560  1.0000
  C   C92       1.0  0.01410  0.29670  0.35560  1.0000
  C   C93       1.0  0.84710  0.30260  0.12590  1.0000
  C   C94       1.0  0.15290  0.69740  0.62590  1.0000
  C   C95       1.0  0.84710  0.69740  0.87410  1.0000
  C   C96       1.0  0.15290  0.30260  0.37410  1.0000
  H   H49       1.0  0.83460  0.34330  0.10550  1.0000
  H   H50       1.0  0.16540  0.65670  0.60550  1.0000
  H   H51       1.0  0.83460  0.65670  0.89450  1.0000
  H   H52       1.0  0.16540  0.34330  0.39450  1.0000
  C   C97       1.0  0.73100  0.25130  0.13660  1.0000
  C   C98       1.0  0.26900  0.74870  0.63660  1.0000
  C   C99       1.0  0.73100  0.74870  0.86340  1.0000
  C   C100      1.0  0.26900  0.25130  0.36340  1.0000
  H   H53       1.0  0.64800  0.25240  0.12060  1.0000
  H   H54       1.0  0.35200  0.74760  0.62060  1.0000
  H   H55       1.0  0.64800  0.74760  0.87940  1.0000
  H   H56       1.0  0.35200  0.25240  0.37940  1.0000
  C   C101      1.0  0.73140  0.19860  0.16960  1.0000
  C   C102      1.0  0.26860  0.80140  0.66960  1.0000
  C   C103      1.0  0.73140  0.80140  0.83040  1.0000
  C   C104      1.0  0.26860  0.19860  0.33040  1.0000
  C   C105      1.0  0.86210  0.19290  0.19030  1.0000
  C   C106      1.0  0.13790  0.80710  0.69030  1.0000
  C   C107      1.0  0.86210  0.80710  0.80970  1.0000
  C   C108      1.0  0.13790  0.19290  0.30970  1.0000
  H   H57       1.0  0.87130  0.15630  0.21240  1.0000
  H   H58       1.0  0.12870  0.84370  0.71240  1.0000
  H   H59       1.0  0.87130  0.84370  0.78760  1.0000
  H   H60       1.0  0.12870  0.15630  0.28760  1.0000
  C   C109      1.0  0.97120  0.24000  0.17790  1.0000
  C   C110      1.0  0.02880  0.76000  0.67790  1.0000
  C   C111      1.0  0.97120  0.76000  0.82210  1.0000
  C   C112      1.0  0.02880  0.24000  0.32210  1.0000
  H   H61       1.0  0.05390  0.23600  0.19380  1.0000
  H   H62       1.0  0.94610  0.76400  0.69380  1.0000
  H   H63       1.0  0.05390  0.76400  0.80620  1.0000
  H   H64       1.0  0.94610  0.23600  0.30620  1.0000
  C   C113      1.0  0.57430  0.46690  0.15960  1.0000
  C   C114      1.0  0.42570  0.53310  0.65960  1.0000
  C   C115      1.0  0.57430  0.53310  0.84040  1.0000
  C   C116      1.0  0.42570  0.46690  0.34040  1.0000
  C   C117      1.0  0.69650  0.46410  0.18550  1.0000
  C   C118      1.0  0.30350  0.53590  0.68550  1.0000
  C   C119      1.0  0.69650  0.53590  0.81450  1.0000
  C   C120      1.0  0.30350  0.46410  0.31450  1.0000
  C   C121      1.0  0.83360  0.49880  0.17420  1.0000
  C   C122      1.0  0.16640  0.50120  0.67420  1.0000
  C   C123      1.0  0.83360  0.50120  0.82580  1.0000
  C   C124      1.0  0.16640  0.49880  0.32580  1.0000
  H   H65       1.0  0.84490  0.52180  0.14860  1.0000
  H   H66       1.0  0.15510  0.47820  0.64860  1.0000
  H   H67       1.0  0.84490  0.47820  0.85140  1.0000
  H   H68       1.0  0.15510  0.52180  0.35140  1.0000
  C   C125      1.0  0.94690  0.49930  0.19900  1.0000
  C   C126      1.0  0.05310  0.50070  0.69900  1.0000
  C   C127      1.0  0.94690  0.50070  0.80100  1.0000
  C   C128      1.0  0.05310  0.49930  0.30100  1.0000
  H   H69       1.0  0.03400  0.52430  0.19070  1.0000
  H   H70       1.0  0.96600  0.47570  0.69070  1.0000
  H   H71       1.0  0.03400  0.47570  0.80930  1.0000
  H   H72       1.0  0.96600  0.52430  0.30930  1.0000
  C   C129      1.0  0.93850  0.46430  0.23650  1.0000
  C   C130      1.0  0.06150  0.53570  0.73650  1.0000
  C   C131      1.0  0.93850  0.53570  0.76350  1.0000
  C   C132      1.0  0.06150  0.46430  0.26350  1.0000
  C   C133      1.0  0.80810  0.43660  0.24970  1.0000
  C   C134      1.0  0.19190  0.56340  0.74970  1.0000
  C   C135      1.0  0.80810  0.56340  0.75030  1.0000
  C   C136      1.0  0.19190  0.43660  0.25030  1.0000
  H   H73       1.0  0.79590  0.42130  0.27640  1.0000
  H   H74       1.0  0.20410  0.57870  0.77640  1.0000
  H   H75       1.0  0.79590  0.57870  0.72360  1.0000
  H   H76       1.0  0.20410  0.42130  0.22360  1.0000
  C   C137      1.0  0.69270  0.43110  0.22360  1.0000
  C   C138      1.0  0.30730  0.56890  0.72360  1.0000
  C   C139      1.0  0.69270  0.56890  0.77640  1.0000
  C   C140      1.0  0.30730  0.43110  0.27640  1.0000
  H   H77       1.0  0.60800  0.40360  0.23230  1.0000
  H   H78       1.0  0.39200  0.59640  0.73230  1.0000
  H   H79       1.0  0.60800  0.59640  0.76770  1.0000
  H   H80       1.0  0.39200  0.40360  0.26770  1.0000
  In  In1       1.0  0.00000  0.93856  0.25000  1.0000
  In  In2       1.0  0.00000  0.06144  0.75000  1.0000
  In  In3       1.0  0.33435  0.43698  0.12050  1.0000
  In  In4       1.0  0.66565  0.56302  0.62050  1.0000
  In  In5       1.0  0.33435  0.56302  0.87950  1.0000
  In  In6       1.0  0.66565  0.43698  0.37950  1.0000
  O   O1        1.0  0.08490  0.95650  0.31290  1.0000
  O   O2        1.0  0.91510  0.04350  0.81290  1.0000
  O   O3        1.0  0.08490  0.04350  0.68710  1.0000
  O   O4        1.0  0.91510  0.95650  0.18710  1.0000
  O   O5        1.0  0.04640  0.82590  0.29060  1.0000
  O   O6        1.0  0.95360  0.17410  0.79060  1.0000
  O   O7        1.0  0.04640  0.17410  0.70940  1.0000
  O   O8        1.0  0.95360  0.82590  0.20940  1.0000
  O   O9        1.0  0.62000  0.55840  0.55550  1.0000
  O   O10       1.0  0.38000  0.44160  0.05550  1.0000
  O   O11       1.0  0.62000  0.44160  0.44450  1.0000
  O   O12       1.0  0.38000  0.55840  0.94450  1.0000
  O   O13       1.0  0.55490  0.66960  0.58860  1.0000
  O   O14       1.0  0.44510  0.33040  0.08860  1.0000
  O   O15       1.0  0.55490  0.33040  0.41140  1.0000
  O   O16       1.0  0.44510  0.66960  0.91140  1.0000
  O   O17       1.0  0.23390  0.94170  0.22570  1.0000
  O   O18       1.0  0.76610  0.05830  0.72570  1.0000
  O   O19       1.0  0.23390  0.05830  0.77430  1.0000
  O   O20       1.0  0.76610  0.94170  0.27430  1.0000
  O   O21       1.0  0.13160  0.04990  0.23260  1.0000
  O   O22       1.0  0.86840  0.95010  0.73260  1.0000
  O   O23       1.0  0.13160  0.95010  0.76740  1.0000
  O   O24       1.0  0.86840  0.04990  0.26740  1.0000
  O   O25       1.0  0.10320  0.37830  0.09980  1.0000
  O   O26       1.0  0.89680  0.62170  0.59980  1.0000
  O   O27       1.0  0.10320  0.62170  0.90020  1.0000
  O   O28       1.0  0.89680  0.37830  0.40020  1.0000
  O   O29       1.0  0.20140  0.35150  0.15650  1.0000
  O   O30       1.0  0.79860  0.64850  0.65650  1.0000
  O   O31       1.0  0.20140  0.64850  0.84350  1.0000
  O   O32       1.0  0.79860  0.35150  0.34350  1.0000
  O   O33       1.0  0.57720  0.49260  0.12730  1.0000
  O   O34       1.0  0.42280  0.50740  0.62730  1.0000
  O   O35       1.0  0.57720  0.50740  0.87270  1.0000
  O   O36       1.0  0.42280  0.49260  0.37270  1.0000
  O   O37       1.0  0.46440  0.42520  0.17260  1.0000
  O   O38       1.0  0.53560  0.57480  0.67260  1.0000
  O   O39       1.0  0.46440  0.57480  0.82740  1.0000
  O   O40       1.0  0.53560  0.42520  0.32740  1.0000
  Br  Br1       1.0  0.22444  0.58507  0.12604  1.0000
  Br  Br2       1.0  0.77556  0.41493  0.62604  1.0000
  Br  Br3       1.0  0.22444  0.41493  0.87396  1.0000
  Br  Br4       1.0  0.77556  0.58507  0.37396  1.0000
