data_image0
_chemical_formula_structural       Ag4C32H8C8H8C8H8C16H8O16
_chemical_formula_sum              "Ag4 C64 H32 O16"
_cell_length_a       14.4293
_cell_length_b       10.8416
_cell_length_c       16.3967
_cell_angle_alpha    90
_cell_angle_beta     91.171
_cell_angle_gamma    90

_space_group_name_H-M_alt    "P 1"
_space_group_IT_number       1

loop_
  _space_group_symop_operation_xyz
  'x, y, z'

loop_
  _atom_site_type_symbol
  _atom_site_label
  _atom_site_symmetry_multiplicity
  _atom_site_fract_x
  _atom_site_fract_y
  _atom_site_fract_z
  _atom_site_occupancy
  Ag  Ag1       1.0  0.00000  0.14609  0.25000  1.0000
  Ag  Ag2       1.0  0.50000  0.64609  0.25000  1.0000
  Ag  Ag3       1.0  0.00000  0.85391  0.75000  1.0000
  Ag  Ag4       1.0  0.50000  0.35391  0.75000  1.0000
  C   C1        1.0  0.10050  0.21350  0.11910  1.0000
  C   C2        1.0  0.89950  0.21350  0.38090  1.0000
  C   C3        1.0  0.60050  0.71350  0.11910  1.0000
  C   C4        1.0  0.39950  0.71350  0.38090  1.0000
  C   C5        1.0  0.89950  0.78650  0.88090  1.0000
  C   C6        1.0  0.10050  0.78650  0.61910  1.0000
  C   C7        1.0  0.39950  0.28650  0.88090  1.0000
  C   C8        1.0  0.60050  0.28650  0.61910  1.0000
  C   C9        1.0  0.17820  0.23390  0.05680  1.0000
  C   C10       1.0  0.82180  0.23390  0.44320  1.0000
  C   C11       1.0  0.67820  0.73390  0.05680  1.0000
  C   C12       1.0  0.32180  0.73390  0.44320  1.0000
  C   C13       1.0  0.82180  0.76610  0.94320  1.0000
  C   C14       1.0  0.17820  0.76610  0.55680  1.0000
  C   C15       1.0  0.32180  0.26610  0.94320  1.0000
  C   C16       1.0  0.67820  0.26610  0.55680  1.0000
  C   C17       1.0  0.16200  0.20630  0.97400  1.0000
  C   C18       1.0  0.83800  0.20630  0.52600  1.0000
  C   C19       1.0  0.66200  0.70630  0.97400  1.0000
  C   C20       1.0  0.33800  0.70630  0.52600  1.0000
  C   C21       1.0  0.83800  0.79370  0.02600  1.0000
  C   C22       1.0  0.16200  0.79370  0.47400  1.0000
  C   C23       1.0  0.33800  0.29370  0.02600  1.0000
  C   C24       1.0  0.66200  0.29370  0.47400  1.0000
  C   C25       1.0  0.07460  0.15950  0.94530  1.0000
  C   C26       1.0  0.92540  0.15950  0.55470  1.0000
  C   C27       1.0  0.57460  0.65950  0.94530  1.0000
  C   C28       1.0  0.42540  0.65950  0.55470  1.0000
  C   C29       1.0  0.92540  0.84050  0.05470  1.0000
  C   C30       1.0  0.07460  0.84050  0.44530  1.0000
  C   C31       1.0  0.42540  0.34050  0.05470  1.0000
  C   C32       1.0  0.57460  0.34050  0.44530  1.0000
  H   H1        1.0  0.02650  0.14880  0.98150  1.0000
  H   H2        1.0  0.97350  0.14880  0.51850  1.0000
  H   H3        1.0  0.52650  0.64880  0.98150  1.0000
  H   H4        1.0  0.47350  0.64880  0.51850  1.0000
  H   H5        1.0  0.97350  0.85120  0.01850  1.0000
  H   H6        1.0  0.02650  0.85120  0.48150  1.0000
  H   H7        1.0  0.47350  0.35120  0.01850  1.0000
  H   H8        1.0  0.52650  0.35120  0.48150  1.0000
  C   C33       1.0  0.06160  0.13030  0.86480  1.0000
  C   C34       1.0  0.93840  0.13030  0.63520  1.0000
  C   C35       1.0  0.56160  0.63030  0.86480  1.0000
  C   C36       1.0  0.43840  0.63030  0.63520  1.0000
  C   C37       1.0  0.93840  0.86970  0.13520  1.0000
  C   C38       1.0  0.06160  0.86970  0.36480  1.0000
  C   C39       1.0  0.43840  0.36970  0.13520  1.0000
  C   C40       1.0  0.56160  0.36970  0.36480  1.0000
  H   H9        1.0  0.00440  0.10040  0.84660  1.0000
  H   H10       1.0  0.99560  0.10040  0.65340  1.0000
  H   H11       1.0  0.50440  0.60040  0.84660  1.0000
  H   H12       1.0  0.49560  0.60040  0.65340  1.0000
  H   H13       1.0  0.99560  0.89960  0.15340  1.0000
  H   H14       1.0  0.00440  0.89960  0.34660  1.0000
  H   H15       1.0  0.49560  0.39960  0.15340  1.0000
  H   H16       1.0  0.50440  0.39960  0.34660  1.0000
  C   C41       1.0  0.13240  0.14480  0.80970  1.0000
  C   C42       1.0  0.86760  0.14480  0.69030  1.0000
  C   C43       1.0  0.63240  0.64480  0.80970  1.0000
  C   C44       1.0  0.36760  0.64480  0.69030  1.0000
  C   C45       1.0  0.86760  0.85520  0.19030  1.0000
  C   C46       1.0  0.13240  0.85520  0.30970  1.0000
  C   C47       1.0  0.36760  0.35520  0.19030  1.0000
  C   C48       1.0  0.63240  0.35520  0.30970  1.0000
  H   H17       1.0  0.12180  0.12420  0.75530  1.0000
  H   H18       1.0  0.87820  0.12420  0.74470  1.0000
  H   H19       1.0  0.62180  0.62420  0.75530  1.0000
  H   H20       1.0  0.37820  0.62420  0.74470  1.0000
  H   H21       1.0  0.87820  0.87580  0.24470  1.0000
  H   H22       1.0  0.12180  0.87580  0.25530  1.0000
  H   H23       1.0  0.37820  0.37580  0.24470  1.0000
  H   H24       1.0  0.62180  0.37580  0.25530  1.0000
  C   C49       1.0  0.26510  0.27770  0.08330  1.0000
  C   C50       1.0  0.73490  0.27770  0.41670  1.0000
  C   C51       1.0  0.76510  0.77770  0.08330  1.0000
  C   C52       1.0  0.23490  0.77770  0.41670  1.0000
  C   C53       1.0  0.73490  0.72230  0.91670  1.0000
  C   C54       1.0  0.26510  0.72230  0.58330  1.0000
  C   C55       1.0  0.23490  0.22230  0.91670  1.0000
  C   C56       1.0  0.76510  0.22230  0.58330  1.0000
  C   C57       1.0  0.21640  0.18810  0.83330  1.0000
  C   C58       1.0  0.78360  0.18810  0.66670  1.0000
  C   C59       1.0  0.71640  0.68810  0.83330  1.0000
  C   C60       1.0  0.28360  0.68810  0.66670  1.0000
  C   C61       1.0  0.78360  0.81190  0.16670  1.0000
  C   C62       1.0  0.21640  0.81190  0.33330  1.0000
  C   C63       1.0  0.28360  0.31190  0.16670  1.0000
  C   C64       1.0  0.71640  0.31190  0.33330  1.0000
  H   H25       1.0  0.26280  0.19590  0.79510  1.0000
  H   H26       1.0  0.73720  0.19590  0.70490  1.0000
  H   H27       1.0  0.76280  0.69590  0.79510  1.0000
  H   H28       1.0  0.23720  0.69590  0.70490  1.0000
  H   H29       1.0  0.73720  0.80410  0.20490  1.0000
  H   H30       1.0  0.26280  0.80410  0.29510  1.0000
  H   H31       1.0  0.23720  0.30410  0.20490  1.0000
  H   H32       1.0  0.76280  0.30410  0.29510  1.0000
  O   O1        1.0  0.03330  0.28060  0.11480  1.0000
  O   O2        1.0  0.96670  0.28060  0.38520  1.0000
  O   O3        1.0  0.53330  0.78060  0.11480  1.0000
  O   O4        1.0  0.46670  0.78060  0.38520  1.0000
  O   O5        1.0  0.96670  0.71940  0.88520  1.0000
  O   O6        1.0  0.03330  0.71940  0.61480  1.0000
  O   O7        1.0  0.46670  0.21940  0.88520  1.0000
  O   O8        1.0  0.53330  0.21940  0.61480  1.0000
  O   O9        1.0  0.11500  0.12920  0.16860  1.0000
  O   O10       1.0  0.88500  0.12920  0.33140  1.0000
  O   O11       1.0  0.61500  0.62920  0.16860  1.0000
  O   O12       1.0  0.38500  0.62920  0.33140  1.0000
  O   O13       1.0  0.88500  0.87080  0.83140  1.0000
  O   O14       1.0  0.11500  0.87080  0.66860  1.0000
  O   O15       1.0  0.38500  0.37080  0.83140  1.0000
  O   O16       1.0  0.61500  0.37080  0.66860  1.0000
