data_image0
_chemical_formula_structural       C24H8C8H8C8H8C40H8C8H8C24H8C8H8C8H8Co12O64
_chemical_formula_sum              "C128 H64 Co12 O64"
_cell_length_a       32.997
_cell_length_b       9.7187
_cell_length_c       18.392
_cell_angle_alpha    90
_cell_angle_beta     92.25
_cell_angle_gamma    90

_space_group_name_H-M_alt    "P 1"
_space_group_IT_number       1

loop_
  _space_group_symop_operation_xyz
  'x, y, z'

loop_
  _atom_site_type_symbol
  _atom_site_label
  _atom_site_symmetry_multiplicity
  _atom_site_fract_x
  _atom_site_fract_y
  _atom_site_fract_z
  _atom_site_occupancy
  C   C1        1.0  0.19313  0.15430  0.37421  1.0000
  C   C2        1.0  0.80687  0.15430  0.12579  1.0000
  C   C3        1.0  0.69313  0.65430  0.37421  1.0000
  C   C4        1.0  0.30687  0.65430  0.12579  1.0000
  C   C5        1.0  0.80687  0.84570  0.62579  1.0000
  C   C6        1.0  0.19313  0.84570  0.87421  1.0000
  C   C7        1.0  0.30687  0.34570  0.62579  1.0000
  C   C8        1.0  0.69313  0.34570  0.87421  1.0000
  C   C9        1.0  0.19053  0.07710  0.30302  1.0000
  C   C10       1.0  0.80947  0.07710  0.19698  1.0000
  C   C11       1.0  0.69053  0.57710  0.30302  1.0000
  C   C12       1.0  0.30947  0.57710  0.19698  1.0000
  C   C13       1.0  0.80947  0.92290  0.69698  1.0000
  C   C14       1.0  0.19053  0.92290  0.80302  1.0000
  C   C15       1.0  0.30947  0.42290  0.69698  1.0000
  C   C16       1.0  0.69053  0.42290  0.80302  1.0000
  C   C17       1.0  0.15384  0.02660  0.27549  1.0000
  C   C18       1.0  0.84616  0.02660  0.22451  1.0000
  C   C19       1.0  0.65384  0.52660  0.27549  1.0000
  C   C20       1.0  0.34616  0.52660  0.22451  1.0000
  C   C21       1.0  0.84616  0.97340  0.72451  1.0000
  C   C22       1.0  0.15384  0.97340  0.77549  1.0000
  C   C23       1.0  0.34616  0.47340  0.72451  1.0000
  C   C24       1.0  0.65384  0.47340  0.77549  1.0000
  H   H1        1.0  0.13000  0.03770  0.30210  1.0000
  H   H2        1.0  0.87000  0.03770  0.19790  1.0000
  H   H3        1.0  0.63000  0.53770  0.30210  1.0000
  H   H4        1.0  0.37000  0.53770  0.19790  1.0000
  H   H5        1.0  0.87000  0.96230  0.69790  1.0000
  H   H6        1.0  0.13000  0.96230  0.80210  1.0000
  H   H7        1.0  0.37000  0.46230  0.69790  1.0000
  H   H8        1.0  0.63000  0.46230  0.80210  1.0000
  C   C25       1.0  0.22539  0.06120  0.26368  1.0000
  C   C26       1.0  0.77461  0.06120  0.23632  1.0000
  C   C27       1.0  0.72539  0.56120  0.26368  1.0000
  C   C28       1.0  0.27461  0.56120  0.23632  1.0000
  C   C29       1.0  0.77461  0.93880  0.73632  1.0000
  C   C30       1.0  0.22539  0.93880  0.76368  1.0000
  C   C31       1.0  0.27461  0.43880  0.73632  1.0000
  C   C32       1.0  0.72539  0.43880  0.76368  1.0000
  H   H9        1.0  0.25050  0.09660  0.28230  1.0000
  H   H10       1.0  0.74950  0.09660  0.21770  1.0000
  H   H11       1.0  0.75050  0.59660  0.28230  1.0000
  H   H12       1.0  0.24950  0.59660  0.21770  1.0000
  H   H13       1.0  0.74950  0.90340  0.71770  1.0000
  H   H14       1.0  0.25050  0.90340  0.78230  1.0000
  H   H15       1.0  0.24950  0.40340  0.71770  1.0000
  H   H16       1.0  0.75050  0.40340  0.78230  1.0000
  C   C33       1.0  0.22340  0.99270  0.19642  1.0000
  C   C34       1.0  0.77660  0.99270  0.30358  1.0000
  C   C35       1.0  0.72340  0.49270  0.19642  1.0000
  C   C36       1.0  0.27660  0.49270  0.30358  1.0000
  C   C37       1.0  0.77660  0.00730  0.80358  1.0000
  C   C38       1.0  0.22340  0.00730  0.69642  1.0000
  C   C39       1.0  0.27660  0.50730  0.80358  1.0000
  C   C40       1.0  0.72340  0.50730  0.69642  1.0000
  H   H17       1.0  0.24720  0.98120  0.16950  1.0000
  H   H18       1.0  0.75280  0.98120  0.33050  1.0000
  H   H19       1.0  0.74720  0.48120  0.16950  1.0000
  H   H20       1.0  0.25280  0.48120  0.33050  1.0000
  H   H21       1.0  0.75280  0.01880  0.83050  1.0000
  H   H22       1.0  0.24720  0.01880  0.66950  1.0000
  H   H23       1.0  0.25280  0.51880  0.83050  1.0000
  H   H24       1.0  0.74720  0.51880  0.66950  1.0000
  C   C41       1.0  0.18639  0.94190  0.16954  1.0000
  C   C42       1.0  0.81361  0.94190  0.33046  1.0000
  C   C43       1.0  0.68639  0.44190  0.16954  1.0000
  C   C44       1.0  0.31361  0.44190  0.33046  1.0000
  C   C45       1.0  0.81361  0.05810  0.83046  1.0000
  C   C46       1.0  0.18639  0.05810  0.66954  1.0000
  C   C47       1.0  0.31361  0.55810  0.83046  1.0000
  C   C48       1.0  0.68639  0.55810  0.66954  1.0000
  C   C49       1.0  0.18474  0.86920  0.09787  1.0000
  C   C50       1.0  0.81526  0.86920  0.40213  1.0000
  C   C51       1.0  0.68474  0.36920  0.09787  1.0000
  C   C52       1.0  0.31526  0.36920  0.40213  1.0000
  C   C53       1.0  0.81526  0.13080  0.90213  1.0000
  C   C54       1.0  0.18474  0.13080  0.59787  1.0000
  C   C55       1.0  0.31526  0.63080  0.90213  1.0000
  C   C56       1.0  0.68474  0.63080  0.59787  1.0000
  C   C57       1.0  0.29653  0.00830  0.04097  1.0000
  C   C58       1.0  0.70347  0.00830  0.45903  1.0000
  C   C59       1.0  0.79653  0.50830  0.04097  1.0000
  C   C60       1.0  0.20347  0.50830  0.45903  1.0000
  C   C61       1.0  0.70347  0.99170  0.95903  1.0000
  C   C62       1.0  0.29653  0.99170  0.54097  1.0000
  C   C63       1.0  0.20347  0.49170  0.95903  1.0000
  C   C64       1.0  0.79653  0.49170  0.54097  1.0000
  C   C65       1.0  0.27161  0.13390  0.01948  1.0000
  C   C66       1.0  0.72839  0.13390  0.48052  1.0000
  C   C67       1.0  0.77161  0.63390  0.01948  1.0000
  C   C68       1.0  0.22839  0.63390  0.48052  1.0000
  C   C69       1.0  0.72839  0.86610  0.98052  1.0000
  C   C70       1.0  0.27161  0.86610  0.51948  1.0000
  C   C71       1.0  0.22839  0.36610  0.98052  1.0000
  C   C72       1.0  0.77161  0.36610  0.51948  1.0000
  C   C73       1.0  0.25276  0.14180  0.95145  1.0000
  C   C74       1.0  0.74724  0.14180  0.54855  1.0000
  C   C75       1.0  0.75276  0.64180  0.95145  1.0000
  C   C76       1.0  0.24724  0.64180  0.54855  1.0000
  C   C77       1.0  0.74724  0.85820  0.04855  1.0000
  C   C78       1.0  0.25276  0.85820  0.45145  1.0000
  C   C79       1.0  0.24724  0.35820  0.04855  1.0000
  C   C80       1.0  0.75276  0.35820  0.45145  1.0000
  H   H25       1.0  0.25500  0.06750  0.91830  1.0000
  H   H26       1.0  0.74500  0.06750  0.58170  1.0000
  H   H27       1.0  0.75500  0.56750  0.91830  1.0000
  H   H28       1.0  0.24500  0.56750  0.58170  1.0000
  H   H29       1.0  0.74500  0.93250  0.08170  1.0000
  H   H30       1.0  0.25500  0.93250  0.41830  1.0000
  H   H31       1.0  0.24500  0.43250  0.08170  1.0000
  H   H32       1.0  0.75500  0.43250  0.41830  1.0000
  C   C81       1.0  0.26939  0.24270  0.06890  1.0000
  C   C82       1.0  0.73061  0.24270  0.43110  1.0000
  C   C83       1.0  0.76939  0.74270  0.06890  1.0000
  C   C84       1.0  0.23061  0.74270  0.43110  1.0000
  C   C85       1.0  0.73061  0.75730  0.93110  1.0000
  C   C86       1.0  0.26939  0.75730  0.56890  1.0000
  C   C87       1.0  0.23061  0.25730  0.93110  1.0000
  C   C88       1.0  0.76939  0.25730  0.56890  1.0000
  H   H33       1.0  0.28280  0.23740  0.11540  1.0000
  H   H34       1.0  0.71720  0.23740  0.38460  1.0000
  H   H35       1.0  0.78280  0.73740  0.11540  1.0000
  H   H36       1.0  0.21720  0.73740  0.38460  1.0000
  H   H37       1.0  0.71720  0.76260  0.88460  1.0000
  H   H38       1.0  0.28280  0.76260  0.61540  1.0000
  H   H39       1.0  0.21720  0.26260  0.88460  1.0000
  H   H40       1.0  0.78280  0.26260  0.61540  1.0000
  C   C89       1.0  0.42062  0.87700  0.01240  1.0000
  C   C90       1.0  0.57938  0.87700  0.48760  1.0000
  C   C91       1.0  0.92062  0.37700  0.01240  1.0000
  C   C92       1.0  0.07938  0.37700  0.48760  1.0000
  C   C93       1.0  0.57938  0.12300  0.98760  1.0000
  C   C94       1.0  0.42062  0.12300  0.51240  1.0000
  C   C95       1.0  0.07938  0.62300  0.98760  1.0000
  C   C96       1.0  0.92062  0.62300  0.51240  1.0000
  C   C97       1.0  0.46229  0.94160  0.00500  1.0000
  C   C98       1.0  0.53771  0.94160  0.49500  1.0000
  C   C99       1.0  0.96229  0.44160  0.00500  1.0000
  C   C100      1.0  0.03771  0.44160  0.49500  1.0000
  C   C101      1.0  0.53771  0.05840  0.99500  1.0000
  C   C102      1.0  0.46229  0.05840  0.50500  1.0000
  C   C103      1.0  0.03771  0.55840  0.99500  1.0000
  C   C104      1.0  0.96229  0.55840  0.50500  1.0000
  C   C105      1.0  0.46562  0.07690  0.99270  1.0000
  C   C106      1.0  0.53438  0.07690  0.50730  1.0000
  C   C107      1.0  0.96562  0.57690  0.99270  1.0000
  C   C108      1.0  0.03438  0.57690  0.50730  1.0000
  C   C109      1.0  0.53438  0.92310  0.00730  1.0000
  C   C110      1.0  0.46562  0.92310  0.49270  1.0000
  C   C111      1.0  0.03438  0.42310  0.00730  1.0000
  C   C112      1.0  0.96562  0.42310  0.49270  1.0000
  H   H41       1.0  0.44200  0.13280  0.98850  1.0000
  H   H42       1.0  0.55800  0.13280  0.51150  1.0000
  H   H43       1.0  0.94200  0.63280  0.98850  1.0000
  H   H44       1.0  0.05800  0.63280  0.51150  1.0000
  H   H45       1.0  0.55800  0.86720  0.01150  1.0000
  H   H46       1.0  0.44200  0.86720  0.48850  1.0000
  H   H47       1.0  0.05800  0.36720  0.01150  1.0000
  H   H48       1.0  0.94200  0.36720  0.48850  1.0000
  C   C113      1.0  0.49533  0.86380  0.01380  1.0000
  C   C114      1.0  0.50467  0.86380  0.48620  1.0000
  C   C115      1.0  0.99533  0.36380  0.01380  1.0000
  C   C116      1.0  0.00467  0.36380  0.48620  1.0000
  C   C117      1.0  0.50467  0.13620  0.98620  1.0000
  C   C118      1.0  0.49533  0.13620  0.51380  1.0000
  C   C119      1.0  0.00467  0.63620  0.98620  1.0000
  C   C120      1.0  0.99533  0.63620  0.51380  1.0000
  H   H49       1.0  0.49280  0.76860  0.02460  1.0000
  H   H50       1.0  0.50720  0.76860  0.47540  1.0000
  H   H51       1.0  0.99280  0.26860  0.02460  1.0000
  H   H52       1.0  0.00720  0.26860  0.47540  1.0000
  H   H53       1.0  0.50720  0.23140  0.97540  1.0000
  H   H54       1.0  0.49280  0.23140  0.52460  1.0000
  H   H55       1.0  0.00720  0.73140  0.97540  1.0000
  H   H56       1.0  0.99280  0.73140  0.52460  1.0000
  C   C121      1.0  0.15209  0.96010  0.20934  1.0000
  C   C122      1.0  0.84791  0.96010  0.29066  1.0000
  C   C123      1.0  0.65209  0.46010  0.20934  1.0000
  C   C124      1.0  0.34791  0.46010  0.29066  1.0000
  C   C125      1.0  0.84791  0.03990  0.79066  1.0000
  C   C126      1.0  0.15209  0.03990  0.70934  1.0000
  C   C127      1.0  0.34791  0.53990  0.79066  1.0000
  C   C128      1.0  0.65209  0.53990  0.70934  1.0000
  H   H57       1.0  0.12680  0.92590  0.19060  1.0000
  H   H58       1.0  0.87320  0.92590  0.30940  1.0000
  H   H59       1.0  0.62680  0.42590  0.19060  1.0000
  H   H60       1.0  0.37320  0.42590  0.30940  1.0000
  H   H61       1.0  0.87320  0.07410  0.80940  1.0000
  H   H62       1.0  0.12680  0.07410  0.69060  1.0000
  H   H63       1.0  0.37320  0.57410  0.80940  1.0000
  H   H64       1.0  0.62680  0.57410  0.69060  1.0000
  Co  Co1       1.0  0.15229  0.69968  0.98709  1.0000
  Co  Co2       1.0  0.84771  0.69968  0.51291  1.0000
  Co  Co3       1.0  0.65229  0.19968  0.98709  1.0000
  Co  Co4       1.0  0.34771  0.19968  0.51291  1.0000
  Co  Co5       1.0  0.84771  0.30032  0.01291  1.0000
  Co  Co6       1.0  0.15229  0.30032  0.48709  1.0000
  Co  Co7       1.0  0.34771  0.80032  0.01291  1.0000
  Co  Co8       1.0  0.65229  0.80032  0.48709  1.0000
  Co  Co9       1.0  0.25000  0.75000  0.00000  1.0000
  Co  Co10      1.0  0.75000  0.75000  0.50000  1.0000
  Co  Co11      1.0  0.75000  0.25000  0.00000  1.0000
  Co  Co12      1.0  0.25000  0.25000  0.50000  1.0000
  O   O1        1.0  0.21434  0.88250  0.05675  1.0000
  O   O2        1.0  0.78566  0.88250  0.44325  1.0000
  O   O3        1.0  0.71434  0.38250  0.05675  1.0000
  O   O4        1.0  0.28566  0.38250  0.44325  1.0000
  O   O5        1.0  0.78566  0.11750  0.94325  1.0000
  O   O6        1.0  0.21434  0.11750  0.55675  1.0000
  O   O7        1.0  0.28566  0.61750  0.94325  1.0000
  O   O8        1.0  0.71434  0.61750  0.55675  1.0000
  O   O9        1.0  0.15282  0.80200  0.08172  1.0000
  O   O10       1.0  0.84718  0.80200  0.41828  1.0000
  O   O11       1.0  0.65282  0.30200  0.08172  1.0000
  O   O12       1.0  0.34718  0.30200  0.41828  1.0000
  O   O13       1.0  0.84718  0.19800  0.91828  1.0000
  O   O14       1.0  0.15282  0.19800  0.58172  1.0000
  O   O15       1.0  0.34718  0.69800  0.91828  1.0000
  O   O16       1.0  0.65282  0.69800  0.58172  1.0000
  O   O17       1.0  0.22735  0.18440  0.40013  1.0000
  O   O18       1.0  0.77265  0.18440  0.09987  1.0000
  O   O19       1.0  0.72735  0.68440  0.40013  1.0000
  O   O20       1.0  0.27265  0.68440  0.09987  1.0000
  O   O21       1.0  0.77265  0.81560  0.59987  1.0000
  O   O22       1.0  0.22735  0.81560  0.90013  1.0000
  O   O23       1.0  0.27265  0.31560  0.59987  1.0000
  O   O24       1.0  0.72735  0.31560  0.90013  1.0000
  O   O25       1.0  0.15941  0.18060  0.40293  1.0000
  O   O26       1.0  0.84059  0.18060  0.09707  1.0000
  O   O27       1.0  0.65941  0.68060  0.40293  1.0000
  O   O28       1.0  0.34059  0.68060  0.09707  1.0000
  O   O29       1.0  0.84059  0.81940  0.59707  1.0000
  O   O30       1.0  0.15941  0.81940  0.90293  1.0000
  O   O31       1.0  0.34059  0.31940  0.59707  1.0000
  O   O32       1.0  0.65941  0.31940  0.90293  1.0000
  O   O33       1.0  0.39012  0.94990  0.00420  1.0000
  O   O34       1.0  0.60988  0.94990  0.49580  1.0000
  O   O35       1.0  0.89012  0.44990  0.00420  1.0000
  O   O36       1.0  0.10988  0.44990  0.49580  1.0000
  O   O37       1.0  0.60988  0.05010  0.99580  1.0000
  O   O38       1.0  0.39012  0.05010  0.50420  1.0000
  O   O39       1.0  0.10988  0.55010  0.99580  1.0000
  O   O40       1.0  0.89012  0.55010  0.50420  1.0000
  O   O41       1.0  0.41729  0.75720  0.02860  1.0000
  O   O42       1.0  0.58271  0.75720  0.47140  1.0000
  O   O43       1.0  0.91729  0.25720  0.02860  1.0000
  O   O44       1.0  0.08271  0.25720  0.47140  1.0000
  O   O45       1.0  0.58271  0.24280  0.97140  1.0000
  O   O46       1.0  0.41729  0.24280  0.52860  1.0000
  O   O47       1.0  0.08271  0.74280  0.97140  1.0000
  O   O48       1.0  0.91729  0.74280  0.52860  1.0000
  O   O49       1.0  0.29609  0.90700  0.99508  1.0000
  O   O50       1.0  0.70391  0.90700  0.50492  1.0000
  O   O51       1.0  0.79609  0.40700  0.99508  1.0000
  O   O52       1.0  0.20391  0.40700  0.50492  1.0000
  O   O53       1.0  0.70391  0.09300  0.00492  1.0000
  O   O54       1.0  0.29609  0.09300  0.49508  1.0000
  O   O55       1.0  0.20391  0.59300  0.00492  1.0000
  O   O56       1.0  0.79609  0.59300  0.49508  1.0000
  O   O57       1.0  0.31721  0.00740  0.09853  1.0000
  O   O58       1.0  0.68279  0.00740  0.40147  1.0000
  O   O59       1.0  0.81721  0.50740  0.09853  1.0000
  O   O60       1.0  0.18279  0.50740  0.40147  1.0000
  O   O61       1.0  0.68279  0.99260  0.90147  1.0000
  O   O62       1.0  0.31721  0.99260  0.59853  1.0000
  O   O63       1.0  0.18279  0.49260  0.90147  1.0000
  O   O64       1.0  0.81721  0.49260  0.59853  1.0000
