data_image0
_chemical_formula_structural       C8H4C4H4C8H4C4H4C12H4C4H4C8H4C4H4C16H4C4H4C8H4C4H4C8H4C4H4C8H4C4H4C16H4C4H4C8H4C4H4C8H4C4H4C8H4C4H4C16H4C4H4C8H4C4H4C8H4C4H4C8H4C4H4C4Co12O64
_chemical_formula_sum              "C224 H128 Co12 O64"
_cell_length_a       22.55
_cell_length_b       14.187
_cell_length_c       25.681
_cell_angle_alpha    90
_cell_angle_beta     92.096
_cell_angle_gamma    90

_space_group_name_H-M_alt    "P 1"
_space_group_IT_number       1

loop_
  _space_group_symop_operation_xyz
  'x, y, z'

loop_
  _atom_site_type_symbol
  _atom_site_label
  _atom_site_symmetry_multiplicity
  _atom_site_fract_x
  _atom_site_fract_y
  _atom_site_fract_z
  _atom_site_occupancy
  C   C1        1.0  0.97200  0.70415  0.06176  1.0000
  C   C2        1.0  0.02800  0.70415  0.43824  1.0000
  C   C3        1.0  0.02800  0.29585  0.93824  1.0000
  C   C4        1.0  0.97200  0.29585  0.56176  1.0000
  C   C5        1.0  0.86905  0.68924  0.02323  1.0000
  C   C6        1.0  0.13095  0.68924  0.47677  1.0000
  C   C7        1.0  0.13095  0.31076  0.97677  1.0000
  C   C8        1.0  0.86905  0.31076  0.52323  1.0000
  H   H1        1.0  0.88400  0.66470  0.99280  1.0000
  H   H2        1.0  0.11600  0.66470  0.50720  1.0000
  H   H3        1.0  0.11600  0.33530  0.00720  1.0000
  H   H4        1.0  0.88400  0.33530  0.49280  1.0000
  C   C9        1.0  0.80840  0.70414  0.02673  1.0000
  C   C10       1.0  0.19160  0.70414  0.47327  1.0000
  C   C11       1.0  0.19160  0.29586  0.97327  1.0000
  C   C12       1.0  0.80840  0.29586  0.52673  1.0000
  H   H5        1.0  0.78280  0.68960  0.99860  1.0000
  H   H6        1.0  0.21720  0.68960  0.50140  1.0000
  H   H7        1.0  0.21720  0.31040  0.00140  1.0000
  H   H8        1.0  0.78280  0.31040  0.49860  1.0000
  C   C13       1.0  0.78599  0.74076  0.07220  1.0000
  C   C14       1.0  0.21401  0.74076  0.42780  1.0000
  C   C15       1.0  0.21401  0.25924  0.92780  1.0000
  C   C16       1.0  0.78599  0.25924  0.57220  1.0000
  C   C17       1.0  0.82422  0.76247  0.11417  1.0000
  C   C18       1.0  0.17578  0.76247  0.38583  1.0000
  C   C19       1.0  0.17578  0.23753  0.88583  1.0000
  C   C20       1.0  0.82422  0.23753  0.61417  1.0000
  H   H9        1.0  0.80920  0.78700  0.14460  1.0000
  H   H10       1.0  0.19080  0.78700  0.35540  1.0000
  H   H11       1.0  0.19080  0.21300  0.85540  1.0000
  H   H12       1.0  0.80920  0.21300  0.64460  1.0000
  C   C21       1.0  0.88487  0.74758  0.11067  1.0000
  C   C22       1.0  0.11513  0.74758  0.38933  1.0000
  C   C23       1.0  0.11513  0.25242  0.88933  1.0000
  C   C24       1.0  0.88487  0.25242  0.61067  1.0000
  H   H13       1.0  0.91040  0.76210  0.13880  1.0000
  H   H14       1.0  0.08960  0.76210  0.36120  1.0000
  H   H15       1.0  0.08960  0.23790  0.86120  1.0000
  H   H16       1.0  0.91040  0.23790  0.63880  1.0000
  C   C25       1.0  0.90728  0.71096  0.06520  1.0000
  C   C26       1.0  0.09272  0.71096  0.43480  1.0000
  C   C27       1.0  0.09272  0.28904  0.93480  1.0000
  C   C28       1.0  0.90728  0.28904  0.56520  1.0000
  C   C29       1.0  0.59628  0.78991  0.06733  1.0000
  C   C30       1.0  0.40372  0.78991  0.43267  1.0000
  C   C31       1.0  0.40372  0.21009  0.93267  1.0000
  C   C32       1.0  0.59628  0.21009  0.56733  1.0000
  C   C33       1.0  0.62942  0.80818  0.02388  1.0000
  C   C34       1.0  0.37058  0.80818  0.47612  1.0000
  C   C35       1.0  0.37058  0.19182  0.97612  1.0000
  C   C36       1.0  0.62942  0.19182  0.52388  1.0000
  H   H17       1.0  0.61090  0.83130  0.99360  1.0000
  H   H18       1.0  0.38910  0.83130  0.50640  1.0000
  H   H19       1.0  0.38910  0.16870  0.00640  1.0000
  H   H20       1.0  0.61090  0.16870  0.49360  1.0000
  C   C37       1.0  0.69024  0.79185  0.02574  1.0000
  C   C38       1.0  0.30976  0.79185  0.47426  1.0000
  C   C39       1.0  0.30976  0.20815  0.97426  1.0000
  C   C40       1.0  0.69024  0.20815  0.52574  1.0000
  H   H21       1.0  0.71240  0.80410  0.99670  1.0000
  H   H22       1.0  0.28760  0.80410  0.50330  1.0000
  H   H23       1.0  0.28760  0.19590  0.00330  1.0000
  H   H24       1.0  0.71240  0.19590  0.49670  1.0000
  C   C41       1.0  0.71792  0.75726  0.07106  1.0000
  C   C42       1.0  0.28208  0.75726  0.42894  1.0000
  C   C43       1.0  0.28208  0.24274  0.92894  1.0000
  C   C44       1.0  0.71792  0.24274  0.57106  1.0000
  C   C45       1.0  0.68478  0.73899  0.11452  1.0000
  C   C46       1.0  0.31522  0.73899  0.38548  1.0000
  C   C47       1.0  0.31522  0.26101  0.88548  1.0000
  C   C48       1.0  0.68478  0.26101  0.61452  1.0000
  H   H25       1.0  0.70330  0.71580  0.14480  1.0000
  H   H26       1.0  0.29670  0.71580  0.35520  1.0000
  H   H27       1.0  0.29670  0.28420  0.85520  1.0000
  H   H28       1.0  0.70330  0.28420  0.64480  1.0000
  C   C49       1.0  0.62396  0.75532  0.11266  1.0000
  C   C50       1.0  0.37604  0.75532  0.38734  1.0000
  C   C51       1.0  0.37604  0.24468  0.88734  1.0000
  C   C52       1.0  0.62396  0.24468  0.61266  1.0000
  H   H29       1.0  0.60180  0.74310  0.14170  1.0000
  H   H30       1.0  0.39820  0.74310  0.35830  1.0000
  H   H31       1.0  0.39820  0.25690  0.85830  1.0000
  H   H32       1.0  0.60180  0.25690  0.64170  1.0000
  C   C53       1.0  0.52816  0.78816  0.06587  1.0000
  C   C54       1.0  0.47184  0.78816  0.43414  1.0000
  C   C55       1.0  0.47184  0.21184  0.93414  1.0000
  C   C56       1.0  0.52816  0.21184  0.56587  1.0000
  C   C57       1.0  0.15458  0.17436  0.51629  1.0000
  C   C58       1.0  0.84542  0.17436  0.98371  1.0000
  C   C59       1.0  0.84542  0.82564  0.48371  1.0000
  C   C60       1.0  0.15458  0.82564  0.01629  1.0000
  C   C61       1.0  0.15491  0.12342  0.46408  1.0000
  C   C62       1.0  0.84509  0.12342  0.03592  1.0000
  C   C63       1.0  0.84509  0.87658  0.53592  1.0000
  C   C64       1.0  0.15491  0.87658  0.96408  1.0000
  C   C65       1.0  0.20276  0.06642  0.45238  1.0000
  C   C66       1.0  0.79724  0.06642  0.04762  1.0000
  C   C67       1.0  0.79724  0.93358  0.54762  1.0000
  C   C68       1.0  0.20276  0.93358  0.95238  1.0000
  H   H33       1.0  0.23480  0.06070  0.47600  1.0000
  H   H34       1.0  0.76520  0.06070  0.02400  1.0000
  H   H35       1.0  0.76520  0.93930  0.52400  1.0000
  H   H36       1.0  0.23480  0.93930  0.97600  1.0000
  C   C69       1.0  0.20271  0.01791  0.40535  1.0000
  C   C70       1.0  0.79729  0.01791  0.09465  1.0000
  C   C71       1.0  0.79729  0.98209  0.59465  1.0000
  C   C72       1.0  0.20271  0.98209  0.90535  1.0000
  H   H37       1.0  0.23470  0.97980  0.39750  1.0000
  H   H38       1.0  0.76530  0.97980  0.10250  1.0000
  H   H39       1.0  0.76530  0.02020  0.60250  1.0000
  H   H40       1.0  0.23470  0.02020  0.89750  1.0000
  C   C73       1.0  0.15482  0.02640  0.37003  1.0000
  C   C74       1.0  0.84518  0.02640  0.12997  1.0000
  C   C75       1.0  0.84518  0.97360  0.62997  1.0000
  C   C76       1.0  0.15482  0.97360  0.87003  1.0000
  C   C77       1.0  0.10697  0.08340  0.38173  1.0000
  C   C78       1.0  0.89303  0.08340  0.11827  1.0000
  C   C79       1.0  0.89303  0.91660  0.61827  1.0000
  C   C80       1.0  0.10697  0.91660  0.88173  1.0000
  H   H41       1.0  0.07490  0.08910  0.35810  1.0000
  H   H42       1.0  0.92510  0.08910  0.14190  1.0000
  H   H43       1.0  0.92510  0.91090  0.64190  1.0000
  H   H44       1.0  0.07490  0.91090  0.85810  1.0000
  C   C81       1.0  0.10702  0.13191  0.42876  1.0000
  C   C82       1.0  0.89298  0.13191  0.07124  1.0000
  C   C83       1.0  0.89298  0.86809  0.57124  1.0000
  C   C84       1.0  0.10702  0.86809  0.92876  1.0000
  H   H45       1.0  0.07500  0.17010  0.43660  1.0000
  H   H46       1.0  0.92500  0.17010  0.06340  1.0000
  H   H47       1.0  0.92500  0.82990  0.56340  1.0000
  H   H48       1.0  0.07500  0.82990  0.93660  1.0000
  C   C85       1.0  0.15609  0.97075  0.32163  1.0000
  C   C86       1.0  0.84391  0.97075  0.17837  1.0000
  C   C87       1.0  0.84391  0.02925  0.67837  1.0000
  C   C88       1.0  0.15609  0.02925  0.82163  1.0000
  C   C89       1.0  0.20974  0.96160  0.29364  1.0000
  C   C90       1.0  0.79026  0.96160  0.20636  1.0000
  C   C91       1.0  0.79026  0.03840  0.70636  1.0000
  C   C92       1.0  0.20974  0.03840  0.79364  1.0000
  H   H49       1.0  0.24400  0.98930  0.30790  1.0000
  H   H50       1.0  0.75600  0.98930  0.19210  1.0000
  H   H51       1.0  0.75600  0.01070  0.69210  1.0000
  H   H52       1.0  0.24400  0.01070  0.80790  1.0000
  C   C93       1.0  0.21375  0.91577  0.24823  1.0000
  C   C94       1.0  0.78625  0.91577  0.25177  1.0000
  C   C95       1.0  0.78625  0.08423  0.75177  1.0000
  C   C96       1.0  0.21375  0.08423  0.74823  1.0000
  H   H53       1.0  0.25000  0.90990  0.23250  1.0000
  H   H54       1.0  0.75000  0.90990  0.26750  1.0000
  H   H55       1.0  0.75000  0.09010  0.76750  1.0000
  H   H56       1.0  0.25000  0.09010  0.73250  1.0000
  C   C97       1.0  0.15999  0.87543  0.22416  1.0000
  C   C98       1.0  0.84001  0.87543  0.27584  1.0000
  C   C99       1.0  0.84001  0.12457  0.77584  1.0000
  C   C100      1.0  0.15999  0.12457  0.72416  1.0000
  C   C101      1.0  0.10639  0.89025  0.24828  1.0000
  C   C102      1.0  0.89361  0.89025  0.25172  1.0000
  C   C103      1.0  0.89361  0.10975  0.75172  1.0000
  C   C104      1.0  0.10639  0.10975  0.74828  1.0000
  H   H57       1.0  0.07170  0.86720  0.23220  1.0000
  H   H58       1.0  0.92830  0.86720  0.26780  1.0000
  H   H59       1.0  0.92830  0.13280  0.76780  1.0000
  H   H60       1.0  0.07170  0.13280  0.73220  1.0000
  C   C105      1.0  0.10247  0.93963  0.29694  1.0000
  C   C106      1.0  0.89753  0.93963  0.20306  1.0000
  C   C107      1.0  0.89753  0.06037  0.70306  1.0000
  C   C108      1.0  0.10247  0.06037  0.79694  1.0000
  H   H61       1.0  0.06600  0.95070  0.31160  1.0000
  H   H62       1.0  0.93400  0.95070  0.18840  1.0000
  H   H63       1.0  0.93400  0.04930  0.68840  1.0000
  H   H64       1.0  0.06600  0.04930  0.81160  1.0000
  C   C109      1.0  0.16109  0.82141  0.17327  1.0000
  C   C110      1.0  0.83891  0.82141  0.32673  1.0000
  C   C111      1.0  0.83891  0.17859  0.82673  1.0000
  C   C112      1.0  0.16109  0.17859  0.67327  1.0000
  C   C113      1.0  0.35077  0.92823  0.10454  1.0000
  C   C114      1.0  0.64923  0.92823  0.39546  1.0000
  C   C115      1.0  0.64923  0.07177  0.89546  1.0000
  C   C116      1.0  0.35077  0.07177  0.60454  1.0000
  C   C117      1.0  0.32182  0.02492  0.11173  1.0000
  C   C118      1.0  0.67818  0.02492  0.38827  1.0000
  C   C119      1.0  0.67818  0.97508  0.88827  1.0000
  C   C120      1.0  0.32182  0.97508  0.61173  1.0000
  C   C121      1.0  0.35569  0.10433  0.12387  1.0000
  C   C122      1.0  0.64431  0.10433  0.37613  1.0000
  C   C123      1.0  0.64431  0.89567  0.87613  1.0000
  C   C124      1.0  0.35569  0.89567  0.62387  1.0000
  H   H65       1.0  0.39640  0.09870  0.12990  1.0000
  H   H66       1.0  0.60360  0.09870  0.37010  1.0000
  H   H67       1.0  0.60360  0.90130  0.87010  1.0000
  H   H68       1.0  0.39640  0.90130  0.62990  1.0000
  C   C125      1.0  0.32864  0.19209  0.12693  1.0000
  C   C126      1.0  0.67136  0.19209  0.37307  1.0000
  C   C127      1.0  0.67136  0.80791  0.87307  1.0000
  C   C128      1.0  0.32864  0.80791  0.62693  1.0000
  H   H69       1.0  0.35130  0.24520  0.13510  1.0000
  H   H70       1.0  0.64870  0.24520  0.36490  1.0000
  H   H71       1.0  0.64870  0.75480  0.86490  1.0000
  H   H72       1.0  0.35130  0.75480  0.63510  1.0000
  C   C129      1.0  0.26772  0.20045  0.11785  1.0000
  C   C130      1.0  0.73228  0.20045  0.38215  1.0000
  C   C131      1.0  0.73228  0.79955  0.88215  1.0000
  C   C132      1.0  0.26772  0.79955  0.61785  1.0000
  C   C133      1.0  0.23385  0.12105  0.10571  1.0000
  C   C134      1.0  0.76615  0.12105  0.39429  1.0000
  C   C135      1.0  0.76615  0.87895  0.89429  1.0000
  C   C136      1.0  0.23385  0.87895  0.60571  1.0000
  H   H73       1.0  0.19310  0.12660  0.09960  1.0000
  H   H74       1.0  0.80690  0.12660  0.40040  1.0000
  H   H75       1.0  0.80690  0.87340  0.90040  1.0000
  H   H76       1.0  0.19310  0.87340  0.59960  1.0000
  C   C137      1.0  0.26090  0.03329  0.10265  1.0000
  C   C138      1.0  0.73910  0.03329  0.39735  1.0000
  C   C139      1.0  0.73910  0.96671  0.89735  1.0000
  C   C140      1.0  0.26090  0.96671  0.60265  1.0000
  H   H77       1.0  0.23820  0.98020  0.09450  1.0000
  H   H78       1.0  0.76180  0.98020  0.40550  1.0000
  H   H79       1.0  0.76180  0.01980  0.90550  1.0000
  H   H80       1.0  0.23820  0.01980  0.59450  1.0000
  C   C141      1.0  0.24005  0.29872  0.11611  1.0000
  C   C142      1.0  0.75995  0.29872  0.38389  1.0000
  C   C143      1.0  0.75995  0.70128  0.88389  1.0000
  C   C144      1.0  0.24005  0.70128  0.61611  1.0000
  C   C145      1.0  0.27230  0.37603  0.10184  1.0000
  C   C146      1.0  0.72770  0.37603  0.39816  1.0000
  C   C147      1.0  0.72770  0.62397  0.89816  1.0000
  C   C148      1.0  0.27230  0.62397  0.60184  1.0000
  H   H81       1.0  0.31230  0.36850  0.09530  1.0000
  H   H82       1.0  0.68770  0.36850  0.40470  1.0000
  H   H83       1.0  0.68770  0.63150  0.90470  1.0000
  H   H84       1.0  0.31230  0.63150  0.59530  1.0000
  C   C149      1.0  0.24656  0.46706  0.09671  1.0000
  C   C150      1.0  0.75344  0.46706  0.40329  1.0000
  C   C151      1.0  0.75344  0.53294  0.90329  1.0000
  C   C152      1.0  0.24656  0.53294  0.59671  1.0000
  H   H85       1.0  0.26870  0.51850  0.08620  1.0000
  H   H86       1.0  0.73130  0.51850  0.41380  1.0000
  H   H87       1.0  0.73130  0.48150  0.91380  1.0000
  H   H88       1.0  0.26870  0.48150  0.58620  1.0000
  C   C153      1.0  0.18902  0.47622  0.10765  1.0000
  C   C154      1.0  0.81098  0.47622  0.39235  1.0000
  C   C155      1.0  0.81098  0.52378  0.89235  1.0000
  C   C156      1.0  0.18902  0.52378  0.60765  1.0000
  C   C157      1.0  0.15825  0.39701  0.12280  1.0000
  C   C158      1.0  0.84175  0.39701  0.37720  1.0000
  C   C159      1.0  0.84175  0.60299  0.87720  1.0000
  C   C160      1.0  0.15825  0.60299  0.62280  1.0000
  H   H89       1.0  0.11850  0.40440  0.13030  1.0000
  H   H90       1.0  0.88150  0.40440  0.36970  1.0000
  H   H91       1.0  0.88150  0.59560  0.86970  1.0000
  H   H92       1.0  0.11850  0.59560  0.63030  1.0000
  C   C161      1.0  0.18196  0.30894  0.12748  1.0000
  C   C162      1.0  0.81804  0.30894  0.37252  1.0000
  C   C163      1.0  0.81804  0.69106  0.87252  1.0000
  C   C164      1.0  0.18196  0.69106  0.62748  1.0000
  H   H93       1.0  0.15940  0.25800  0.13800  1.0000
  H   H94       1.0  0.84060  0.25800  0.36200  1.0000
  H   H95       1.0  0.84060  0.74200  0.86200  1.0000
  H   H96       1.0  0.15940  0.74200  0.63800  1.0000
  C   C165      1.0  0.15766  0.56978  0.10168  1.0000
  C   C166      1.0  0.84234  0.56978  0.39832  1.0000
  C   C167      1.0  0.84234  0.43022  0.89832  1.0000
  C   C168      1.0  0.15766  0.43022  0.60168  1.0000
  C   C169      1.0  0.35467  0.33015  0.67124  1.0000
  C   C170      1.0  0.64533  0.33015  0.82876  1.0000
  C   C171      1.0  0.64533  0.66985  0.32876  1.0000
  C   C172      1.0  0.35467  0.66985  0.17124  1.0000
  C   C173      1.0  0.35488  0.38349  0.72315  1.0000
  C   C174      1.0  0.64512  0.38349  0.77685  1.0000
  C   C175      1.0  0.64512  0.61651  0.27685  1.0000
  C   C176      1.0  0.35488  0.61651  0.22315  1.0000
  C   C177      1.0  0.40547  0.39120  0.75545  1.0000
  C   C178      1.0  0.59453  0.39120  0.74455  1.0000
  C   C179      1.0  0.59453  0.60880  0.24455  1.0000
  C   C180      1.0  0.40547  0.60880  0.25545  1.0000
  H   H97       1.0  0.44090  0.36410  0.74560  1.0000
  H   H98       1.0  0.55910  0.36410  0.75440  1.0000
  H   H99       1.0  0.55910  0.63590  0.25440  1.0000
  H   H100      1.0  0.44090  0.63590  0.24560  1.0000
  C   C181      1.0  0.40309  0.43939  0.80245  1.0000
  C   C182      1.0  0.59691  0.43939  0.69755  1.0000
  C   C183      1.0  0.59691  0.56061  0.19755  1.0000
  C   C184      1.0  0.40309  0.56061  0.30245  1.0000
  H   H101      1.0  0.43690  0.44460  0.82410  1.0000
  H   H102      1.0  0.56310  0.44460  0.67590  1.0000
  H   H103      1.0  0.56310  0.55540  0.17590  1.0000
  H   H104      1.0  0.43690  0.55540  0.32410  1.0000
  C   C185      1.0  0.35012  0.47988  0.81716  1.0000
  C   C186      1.0  0.64988  0.47988  0.68284  1.0000
  C   C187      1.0  0.64988  0.52012  0.18284  1.0000
  C   C188      1.0  0.35012  0.52012  0.31716  1.0000
  C   C189      1.0  0.29953  0.47216  0.78486  1.0000
  C   C190      1.0  0.70047  0.47216  0.71514  1.0000
  C   C191      1.0  0.70047  0.52784  0.21514  1.0000
  C   C192      1.0  0.29953  0.52784  0.28486  1.0000
  H   H105      1.0  0.26410  0.49920  0.79470  1.0000
  H   H106      1.0  0.73590  0.49920  0.70530  1.0000
  H   H107      1.0  0.73590  0.50080  0.20530  1.0000
  H   H108      1.0  0.26410  0.50080  0.29470  1.0000
  C   C193      1.0  0.30191  0.42397  0.73786  1.0000
  C   C194      1.0  0.69809  0.42397  0.76214  1.0000
  C   C195      1.0  0.69809  0.57603  0.26214  1.0000
  C   C196      1.0  0.30191  0.57603  0.23786  1.0000
  H   H109      1.0  0.26810  0.41880  0.71620  1.0000
  H   H110      1.0  0.73190  0.41880  0.78380  1.0000
  H   H111      1.0  0.73190  0.58120  0.28380  1.0000
  H   H112      1.0  0.26810  0.58120  0.21620  1.0000
  C   C197      1.0  0.34825  0.53461  0.86713  1.0000
  C   C198      1.0  0.65175  0.53461  0.63287  1.0000
  C   C199      1.0  0.65175  0.46539  0.13287  1.0000
  C   C200      1.0  0.34825  0.46539  0.36713  1.0000
  C   C201      1.0  0.29765  0.53120  0.89676  1.0000
  C   C202      1.0  0.70235  0.53120  0.60324  1.0000
  C   C203      1.0  0.70235  0.46880  0.10324  1.0000
  C   C204      1.0  0.29765  0.46880  0.39676  1.0000
  H   H113      1.0  0.26410  0.49840  0.88490  1.0000
  H   H114      1.0  0.73590  0.49840  0.61510  1.0000
  H   H115      1.0  0.73590  0.50160  0.11510  1.0000
  H   H116      1.0  0.26410  0.50160  0.38490  1.0000
  C   C205      1.0  0.29861  0.57743  0.94383  1.0000
  C   C206      1.0  0.70139  0.57743  0.55617  1.0000
  C   C207      1.0  0.70139  0.42257  0.05617  1.0000
  C   C208      1.0  0.29861  0.42257  0.44383  1.0000
  H   H117      1.0  0.26530  0.57310  0.96410  1.0000
  H   H118      1.0  0.73470  0.57310  0.53590  1.0000
  H   H119      1.0  0.73470  0.42690  0.03590  1.0000
  H   H120      1.0  0.26530  0.42690  0.46410  1.0000
  C   C209      1.0  0.34600  0.62971  0.96265  1.0000
  C   C210      1.0  0.65400  0.62971  0.53735  1.0000
  C   C211      1.0  0.65400  0.37029  0.03735  1.0000
  C   C212      1.0  0.34600  0.37029  0.46265  1.0000
  C   C213      1.0  0.39181  0.63519  0.93102  1.0000
  C   C214      1.0  0.60819  0.63519  0.56898  1.0000
  C   C215      1.0  0.60819  0.36481  0.06898  1.0000
  C   C216      1.0  0.39181  0.36481  0.43102  1.0000
  H   H121      1.0  0.42400  0.67220  0.94170  1.0000
  H   H122      1.0  0.57600  0.67220  0.55830  1.0000
  H   H123      1.0  0.57600  0.32780  0.05830  1.0000
  H   H124      1.0  0.42400  0.32780  0.44170  1.0000
  C   C217      1.0  0.39461  0.58886  0.88271  1.0000
  C   C218      1.0  0.60539  0.58886  0.61729  1.0000
  C   C219      1.0  0.60539  0.41114  0.11729  1.0000
  C   C220      1.0  0.39461  0.41114  0.38271  1.0000
  H   H125      1.0  0.42750  0.59550  0.86220  1.0000
  H   H126      1.0  0.57250  0.59550  0.63780  1.0000
  H   H127      1.0  0.57250  0.40450  0.13780  1.0000
  H   H128      1.0  0.42750  0.40450  0.36220  1.0000
  C   C221      1.0  0.34208  0.68458  0.01303  1.0000
  C   C222      1.0  0.65792  0.68458  0.48697  1.0000
  C   C223      1.0  0.65792  0.31542  0.98697  1.0000
  C   C224      1.0  0.34208  0.31542  0.51303  1.0000
  Co  Co1       1.0  0.09162  0.71676  0.09276  1.0000
  Co  Co2       1.0  0.90838  0.71676  0.40724  1.0000
  Co  Co3       1.0  0.90838  0.28324  0.90724  1.0000
  Co  Co4       1.0  0.09162  0.28324  0.59276  1.0000
  Co  Co5       1.0  0.41471  0.78278  0.09561  1.0000
  Co  Co6       1.0  0.58529  0.78278  0.40439  1.0000
  Co  Co7       1.0  0.58529  0.21722  0.90439  1.0000
  Co  Co8       1.0  0.41471  0.21722  0.59561  1.0000
  Co  Co9       1.0  0.25303  0.74987  0.09527  1.0000
  Co  Co10      1.0  0.74697  0.74987  0.40473  1.0000
  Co  Co11      1.0  0.74697  0.25013  0.90473  1.0000
  Co  Co12      1.0  0.25303  0.25013  0.59527  1.0000
  O   O1        1.0  0.32063  0.85677  0.09742  1.0000
  O   O2        1.0  0.67937  0.85677  0.40258  1.0000
  O   O3        1.0  0.67937  0.14323  0.90258  1.0000
  O   O4        1.0  0.32063  0.14323  0.59742  1.0000
  O   O5        1.0  0.40573  0.92537  0.10757  1.0000
  O   O6        1.0  0.59427  0.92537  0.39243  1.0000
  O   O7        1.0  0.59427  0.07463  0.89243  1.0000
  O   O8        1.0  0.40573  0.07463  0.60757  1.0000
  O   O9        1.0  0.18577  0.64041  0.09111  1.0000
  O   O10       1.0  0.81423  0.64041  0.40889  1.0000
  O   O11       1.0  0.81423  0.35959  0.90889  1.0000
  O   O12       1.0  0.18577  0.35959  0.59111  1.0000
  O   O13       1.0  0.10296  0.57589  0.10428  1.0000
  O   O14       1.0  0.89704  0.57589  0.39572  1.0000
  O   O15       1.0  0.89704  0.42411  0.89572  1.0000
  O   O16       1.0  0.10296  0.42411  0.60428  1.0000
  O   O17       1.0  0.20888  0.80370  0.15796  1.0000
  O   O18       1.0  0.79112  0.80370  0.34204  1.0000
  O   O19       1.0  0.79112  0.19630  0.84204  1.0000
  O   O20       1.0  0.20888  0.19630  0.65796  1.0000
  O   O21       1.0  0.11213  0.79207  0.15662  1.0000
  O   O22       1.0  0.88787  0.79207  0.34338  1.0000
  O   O23       1.0  0.88787  0.20793  0.84338  1.0000
  O   O24       1.0  0.11213  0.20793  0.65662  1.0000
  O   O25       1.0  0.19810  0.16327  0.54699  1.0000
  O   O26       1.0  0.80190  0.16327  0.95301  1.0000
  O   O27       1.0  0.80190  0.83673  0.45301  1.0000
  O   O28       1.0  0.19810  0.83673  0.04699  1.0000
  O   O29       1.0  0.10930  0.22051  0.52549  1.0000
  O   O30       1.0  0.89070  0.22051  0.97451  1.0000
  O   O31       1.0  0.89070  0.77949  0.47451  1.0000
  O   O32       1.0  0.10930  0.77949  0.02549  1.0000
  O   O33       1.0  0.00431  0.73339  0.09706  1.0000
  O   O34       1.0  0.99569  0.73339  0.40294  1.0000
  O   O35       1.0  0.99569  0.26661  0.90294  1.0000
  O   O36       1.0  0.00431  0.26661  0.59706  1.0000
  O   O37       1.0  0.99161  0.65596  0.02412  1.0000
  O   O38       1.0  0.00839  0.65596  0.47588  1.0000
  O   O39       1.0  0.00839  0.34404  0.97588  1.0000
  O   O40       1.0  0.99161  0.34404  0.52412  1.0000
  O   O41       1.0  0.39945  0.28882  0.66131  1.0000
  O   O42       1.0  0.60055  0.28882  0.83869  1.0000
  O   O43       1.0  0.60055  0.71118  0.33869  1.0000
  O   O44       1.0  0.39945  0.71118  0.16131  1.0000
  O   O45       1.0  0.30786  0.33614  0.64340  1.0000
  O   O46       1.0  0.69214  0.33614  0.85660  1.0000
  O   O47       1.0  0.69214  0.66386  0.35660  1.0000
  O   O48       1.0  0.30786  0.66386  0.14340  1.0000
  O   O49       1.0  0.39170  0.72084  0.02705  1.0000
  O   O50       1.0  0.60830  0.72084  0.47295  1.0000
  O   O51       1.0  0.60830  0.27916  0.97295  1.0000
  O   O52       1.0  0.39170  0.27916  0.52705  1.0000
  O   O53       1.0  0.29627  0.68909  0.03330  1.0000
  O   O54       1.0  0.70373  0.68909  0.46670  1.0000
  O   O55       1.0  0.70373  0.31091  0.96670  1.0000
  O   O56       1.0  0.29627  0.31091  0.53330  1.0000
  O   O57       1.0  0.50093  0.76600  0.09720  1.0000
  O   O58       1.0  0.49907  0.76600  0.40280  1.0000
  O   O59       1.0  0.49907  0.23400  0.90280  1.0000
  O   O60       1.0  0.50093  0.23400  0.59720  1.0000
  O   O61       1.0  0.50805  0.85150  0.02768  1.0000
  O   O62       1.0  0.49195  0.85150  0.47232  1.0000
  O   O63       1.0  0.49195  0.14850  0.97232  1.0000
  O   O64       1.0  0.50805  0.14850  0.52768  1.0000
