data_image0
_chemical_formula_structural       C4H4C8H4C4H4C4H4C16H4C20H4C4H4C4H4Co6O32
_chemical_formula_sum              "C64 H32 Co6 O32"
_cell_length_a       11.586
_cell_length_b       14.543
_cell_length_c       13.117
_cell_angle_alpha    90
_cell_angle_beta     119.57
_cell_angle_gamma    90

_space_group_name_H-M_alt    "P 1"
_space_group_IT_number       1

loop_
  _space_group_symop_operation_xyz
  'x, y, z'

loop_
  _atom_site_type_symbol
  _atom_site_label
  _atom_site_symmetry_multiplicity
  _atom_site_fract_x
  _atom_site_fract_y
  _atom_site_fract_z
  _atom_site_occupancy
  C   C1        1.0  0.90910  0.33652  0.27216  1.0000
  C   C2        1.0  0.09090  0.83652  0.22784  1.0000
  C   C3        1.0  0.09090  0.66348  0.72784  1.0000
  C   C4        1.0  0.90910  0.16348  0.77216  1.0000
  H   H1        1.0  0.98910  0.33480  0.27170  1.0000
  H   H2        1.0  0.01090  0.83480  0.22830  1.0000
  H   H3        1.0  0.01090  0.66520  0.72830  1.0000
  H   H4        1.0  0.98910  0.16520  0.77170  1.0000
  C   C5        1.0  0.84260  0.47116  0.13606  1.0000
  C   C6        1.0  0.15740  0.97116  0.36394  1.0000
  C   C7        1.0  0.15740  0.52884  0.86394  1.0000
  C   C8        1.0  0.84260  0.02884  0.63606  1.0000
  C   C9        1.0  0.69760  0.40696  0.21169  1.0000
  C   C10       1.0  0.30240  0.90696  0.28831  1.0000
  C   C11       1.0  0.30240  0.59304  0.78831  1.0000
  C   C12       1.0  0.69760  0.09304  0.71169  1.0000
  H   H5        1.0  0.63470  0.45170  0.16900  1.0000
  H   H6        1.0  0.36530  0.95170  0.33100  1.0000
  H   H7        1.0  0.36530  0.54830  0.83100  1.0000
  H   H8        1.0  0.63470  0.04830  0.66900  1.0000
  C   C13       1.0  0.44280  0.90051  0.81570  1.0000
  C   C14       1.0  0.55720  0.40051  0.68430  1.0000
  C   C15       1.0  0.55720  0.09949  0.18430  1.0000
  C   C16       1.0  0.44280  0.59949  0.31570  1.0000
  H   H9        1.0  0.49350  0.90120  0.77850  1.0000
  H   H10       1.0  0.50650  0.40120  0.72150  1.0000
  H   H11       1.0  0.50650  0.09880  0.22150  1.0000
  H   H12       1.0  0.49350  0.59880  0.27850  1.0000
  C   C17       1.0  0.76550  0.27613  0.33982  1.0000
  C   C18       1.0  0.23450  0.77613  0.16018  1.0000
  C   C19       1.0  0.23450  0.72387  0.66018  1.0000
  C   C20       1.0  0.76550  0.22387  0.83982  1.0000
  H   H13       1.0  0.74820  0.23310  0.38300  1.0000
  H   H14       1.0  0.25180  0.73310  0.11700  1.0000
  H   H15       1.0  0.25180  0.76690  0.61700  1.0000
  H   H16       1.0  0.74820  0.26690  0.88300  1.0000
  C   C21       1.0  0.81540  0.40338  0.20815  1.0000
  C   C22       1.0  0.18460  0.90338  0.29185  1.0000
  C   C23       1.0  0.18460  0.59662  0.79185  1.0000
  C   C24       1.0  0.81540  0.09662  0.70815  1.0000
  C   C25       1.0  0.30590  0.02504  0.68065  1.0000
  C   C26       1.0  0.69410  0.52504  0.81935  1.0000
  C   C27       1.0  0.69410  0.97496  0.31935  1.0000
  C   C28       1.0  0.30590  0.47496  0.18065  1.0000
  C   C29       1.0  0.88360  0.27209  0.33699  1.0000
  C   C30       1.0  0.11640  0.77209  0.16301  1.0000
  C   C31       1.0  0.11640  0.72791  0.66301  1.0000
  C   C32       1.0  0.88360  0.22791  0.83699  1.0000
  C   C33       1.0  0.67340  0.34429  0.27840  1.0000
  C   C34       1.0  0.32660  0.84429  0.22160  1.0000
  C   C35       1.0  0.32660  0.65571  0.72160  1.0000
  C   C36       1.0  0.67340  0.15571  0.77840  1.0000
  H   H17       1.0  0.59540  0.34790  0.28200  1.0000
  H   H18       1.0  0.40460  0.84790  0.21800  1.0000
  H   H19       1.0  0.40460  0.65210  0.71800  1.0000
  H   H20       1.0  0.59540  0.15210  0.78200  1.0000
  C   C37       1.0  0.57740  0.76697  0.93460  1.0000
  C   C38       1.0  0.42260  0.26697  0.56540  1.0000
  C   C39       1.0  0.42260  0.23303  0.06540  1.0000
  C   C40       1.0  0.57740  0.73303  0.43460  1.0000
  C   C41       1.0  0.98310  0.19782  0.40286  1.0000
  C   C42       1.0  0.01690  0.69782  0.09714  1.0000
  C   C43       1.0  0.01690  0.80218  0.59714  1.0000
  C   C44       1.0  0.98310  0.30218  0.90286  1.0000
  C   C45       1.0  0.33730  0.96141  0.78000  1.0000
  C   C46       1.0  0.66270  0.46141  0.72000  1.0000
  C   C47       1.0  0.66270  0.03859  0.22000  1.0000
  C   C48       1.0  0.33730  0.53859  0.28000  1.0000
  C   C49       1.0  0.47340  0.83870  0.90610  1.0000
  C   C50       1.0  0.52660  0.33870  0.59390  1.0000
  C   C51       1.0  0.52660  0.16130  0.09390  1.0000
  C   C52       1.0  0.47340  0.66130  0.40610  1.0000
  C   C53       1.0  0.29450  0.90110  0.92760  1.0000
  C   C54       1.0  0.70550  0.40110  0.57240  1.0000
  C   C55       1.0  0.70550  0.09890  0.07240  1.0000
  C   C56       1.0  0.29450  0.59890  0.42760  1.0000
  H   H21       1.0  0.24560  0.90190  0.96640  1.0000
  H   H22       1.0  0.75440  0.40190  0.53360  1.0000
  H   H23       1.0  0.75440  0.09810  0.03360  1.0000
  H   H24       1.0  0.24560  0.59810  0.46640  1.0000
  C   C57       1.0  0.26240  0.96045  0.83560  1.0000
  C   C58       1.0  0.73760  0.46045  0.66440  1.0000
  C   C59       1.0  0.73760  0.03955  0.16440  1.0000
  C   C60       1.0  0.26240  0.53955  0.33560  1.0000
  H   H25       1.0  0.19030  0.99990  0.81090  1.0000
  H   H26       1.0  0.80970  0.49990  0.68910  1.0000
  H   H27       1.0  0.80970  0.00010  0.18910  1.0000
  H   H28       1.0  0.19030  0.50010  0.31090  1.0000
  C   C61       1.0  0.39970  0.83998  0.96270  1.0000
  C   C62       1.0  0.60030  0.33998  0.53730  1.0000
  C   C63       1.0  0.60030  0.16002  0.03730  1.0000
  C   C64       1.0  0.39970  0.66002  0.46270  1.0000
  H   H29       1.0  0.42050  0.79980  0.02460  1.0000
  H   H30       1.0  0.57950  0.29980  0.47540  1.0000
  H   H31       1.0  0.57950  0.20020  0.97540  1.0000
  H   H32       1.0  0.42050  0.70020  0.52460  1.0000
  Co  Co1       1.0  0.26245  0.13607  0.51884  1.0000
  Co  Co2       1.0  0.73755  0.63607  0.98116  1.0000
  Co  Co3       1.0  0.73755  0.86393  0.48116  1.0000
  Co  Co4       1.0  0.26245  0.36393  0.01884  1.0000
  Co  Co5       1.0  0.00000  0.00000  0.50000  1.0000
  Co  Co6       1.0  0.00000  0.50000  0.00000  1.0000
  O   O1        1.0  0.10250  0.21626  0.43430  1.0000
  O   O2        1.0  0.89750  0.71626  0.06570  1.0000
  O   O3        1.0  0.89750  0.78374  0.56570  1.0000
  O   O4        1.0  0.10250  0.28374  0.93430  1.0000
  O   O5        1.0  0.93974  0.12532  0.42216  1.0000
  O   O6        1.0  0.06026  0.62532  0.07784  1.0000
  O   O7        1.0  0.06026  0.87468  0.57784  1.0000
  O   O8        1.0  0.93974  0.37468  0.92216  1.0000
  O   O9        1.0  0.19003  0.05814  0.62019  1.0000
  O   O10       1.0  0.80997  0.55814  0.87981  1.0000
  O   O11       1.0  0.80997  0.94186  0.37981  1.0000
  O   O12       1.0  0.19003  0.44186  0.12019  1.0000
  O   O13       1.0  0.39445  0.04817  0.65792  1.0000
  O   O14       1.0  0.60555  0.54817  0.84208  1.0000
  O   O15       1.0  0.60555  0.95183  0.34208  1.0000
  O   O16       1.0  0.39445  0.45183  0.15792  1.0000
  O   O17       1.0  0.93099  0.45327  0.11207  1.0000
  O   O18       1.0  0.06901  0.95327  0.38793  1.0000
  O   O19       1.0  0.06901  0.54673  0.88793  1.0000
  O   O20       1.0  0.93099  0.04673  0.61207  1.0000
  O   O21       1.0  0.77316  0.54374  0.10759  1.0000
  O   O22       1.0  0.22684  0.04374  0.39241  1.0000
  O   O23       1.0  0.22684  0.45626  0.89241  1.0000
  O   O24       1.0  0.77316  0.95626  0.60759  1.0000
  O   O25       1.0  0.62965  0.75756  0.87086  1.0000
  O   O26       1.0  0.37035  0.25756  0.62914  1.0000
  O   O27       1.0  0.37035  0.24244  0.12914  1.0000
  O   O28       1.0  0.62965  0.74244  0.37086  1.0000
  O   O29       1.0  0.60975  0.71361  0.02025  1.0000
  O   O30       1.0  0.39025  0.21361  0.47975  1.0000
  O   O31       1.0  0.39025  0.28639  0.97975  1.0000
  O   O32       1.0  0.60975  0.78639  0.52025  1.0000
