data_image0
_chemical_formula_structural       C24H8C8H8C8H8C40H8C8H8C24H8C8H8C8H8Co12O64
_chemical_formula_sum              "C128 H64 Co12 O64"
_cell_length_a       32.997
_cell_length_b       9.7187
_cell_length_c       18.392
_cell_angle_alpha    90
_cell_angle_beta     92.25
_cell_angle_gamma    90

_space_group_name_H-M_alt    "P 1"
_space_group_IT_number       1

loop_
  _space_group_symop_operation_xyz
  'x, y, z'

loop_
  _atom_site_type_symbol
  _atom_site_label
  _atom_site_symmetry_multiplicity
  _atom_site_fract_x
  _atom_site_fract_y
  _atom_site_fract_z
  _atom_site_occupancy
  C   C1        1.0  0.19304  0.15454  0.37435  1.0000
  C   C2        1.0  0.80696  0.15454  0.12565  1.0000
  C   C3        1.0  0.69304  0.65454  0.37435  1.0000
  C   C4        1.0  0.30696  0.65454  0.12565  1.0000
  C   C5        1.0  0.80696  0.84546  0.62565  1.0000
  C   C6        1.0  0.19304  0.84546  0.87435  1.0000
  C   C7        1.0  0.30696  0.34546  0.62565  1.0000
  C   C8        1.0  0.69304  0.34546  0.87435  1.0000
  C   C9        1.0  0.19054  0.07787  0.30278  1.0000
  C   C10       1.0  0.80946  0.07787  0.19722  1.0000
  C   C11       1.0  0.69054  0.57787  0.30278  1.0000
  C   C12       1.0  0.30946  0.57787  0.19722  1.0000
  C   C13       1.0  0.80946  0.92213  0.69722  1.0000
  C   C14       1.0  0.19054  0.92213  0.80278  1.0000
  C   C15       1.0  0.30946  0.42213  0.69722  1.0000
  C   C16       1.0  0.69054  0.42213  0.80278  1.0000
  C   C17       1.0  0.15369  0.02643  0.27543  1.0000
  C   C18       1.0  0.84631  0.02643  0.22457  1.0000
  C   C19       1.0  0.65369  0.52643  0.27543  1.0000
  C   C20       1.0  0.34631  0.52643  0.22457  1.0000
  C   C21       1.0  0.84631  0.97357  0.72457  1.0000
  C   C22       1.0  0.15369  0.97357  0.77543  1.0000
  C   C23       1.0  0.34631  0.47357  0.72457  1.0000
  C   C24       1.0  0.65369  0.47357  0.77543  1.0000
  H   H1        1.0  0.12980  0.03710  0.30210  1.0000
  H   H2        1.0  0.87020  0.03710  0.19790  1.0000
  H   H3        1.0  0.62980  0.53710  0.30210  1.0000
  H   H4        1.0  0.37020  0.53710  0.19790  1.0000
  H   H5        1.0  0.87020  0.96290  0.69790  1.0000
  H   H6        1.0  0.12980  0.96290  0.80210  1.0000
  H   H7        1.0  0.37020  0.46290  0.69790  1.0000
  H   H8        1.0  0.62980  0.46290  0.80210  1.0000
  C   C25       1.0  0.22541  0.06220  0.26375  1.0000
  C   C26       1.0  0.77459  0.06220  0.23625  1.0000
  C   C27       1.0  0.72541  0.56220  0.26375  1.0000
  C   C28       1.0  0.27459  0.56220  0.23625  1.0000
  C   C29       1.0  0.77459  0.93780  0.73625  1.0000
  C   C30       1.0  0.22541  0.93780  0.76375  1.0000
  C   C31       1.0  0.27459  0.43780  0.73625  1.0000
  C   C32       1.0  0.72541  0.43780  0.76375  1.0000
  H   H9        1.0  0.25050  0.09790  0.28240  1.0000
  H   H10       1.0  0.74950  0.09790  0.21760  1.0000
  H   H11       1.0  0.75050  0.59790  0.28240  1.0000
  H   H12       1.0  0.24950  0.59790  0.21760  1.0000
  H   H13       1.0  0.74950  0.90210  0.71760  1.0000
  H   H14       1.0  0.25050  0.90210  0.78240  1.0000
  H   H15       1.0  0.24950  0.40210  0.71760  1.0000
  H   H16       1.0  0.75050  0.40210  0.78240  1.0000
  C   C33       1.0  0.22341  0.99309  0.19633  1.0000
  C   C34       1.0  0.77659  0.99309  0.30367  1.0000
  C   C35       1.0  0.72341  0.49309  0.19633  1.0000
  C   C36       1.0  0.27659  0.49309  0.30367  1.0000
  C   C37       1.0  0.77659  0.00691  0.80367  1.0000
  C   C38       1.0  0.22341  0.00691  0.69633  1.0000
  C   C39       1.0  0.27659  0.50691  0.80367  1.0000
  C   C40       1.0  0.72341  0.50691  0.69633  1.0000
  H   H17       1.0  0.24710  0.98240  0.16920  1.0000
  H   H18       1.0  0.75290  0.98240  0.33080  1.0000
  H   H19       1.0  0.74710  0.48240  0.16920  1.0000
  H   H20       1.0  0.25290  0.48240  0.33080  1.0000
  H   H21       1.0  0.75290  0.01760  0.83080  1.0000
  H   H22       1.0  0.24710  0.01760  0.66920  1.0000
  H   H23       1.0  0.25290  0.51760  0.83080  1.0000
  H   H24       1.0  0.74710  0.51760  0.66920  1.0000
  C   C41       1.0  0.18656  0.94068  0.16977  1.0000
  C   C42       1.0  0.81344  0.94068  0.33023  1.0000
  C   C43       1.0  0.68656  0.44068  0.16977  1.0000
  C   C44       1.0  0.31344  0.44068  0.33023  1.0000
  C   C45       1.0  0.81344  0.05932  0.83023  1.0000
  C   C46       1.0  0.18656  0.05932  0.66977  1.0000
  C   C47       1.0  0.31344  0.55932  0.83023  1.0000
  C   C48       1.0  0.68656  0.55932  0.66977  1.0000
  C   C49       1.0  0.18508  0.86899  0.09773  1.0000
  C   C50       1.0  0.81492  0.86899  0.40227  1.0000
  C   C51       1.0  0.68508  0.36899  0.09773  1.0000
  C   C52       1.0  0.31492  0.36899  0.40227  1.0000
  C   C53       1.0  0.81492  0.13101  0.90227  1.0000
  C   C54       1.0  0.18508  0.13101  0.59773  1.0000
  C   C55       1.0  0.31492  0.63101  0.90227  1.0000
  C   C56       1.0  0.68508  0.63101  0.59773  1.0000
  C   C57       1.0  0.29643  0.00830  0.04107  1.0000
  C   C58       1.0  0.70357  0.00830  0.45893  1.0000
  C   C59       1.0  0.79643  0.50830  0.04107  1.0000
  C   C60       1.0  0.20357  0.50830  0.45893  1.0000
  C   C61       1.0  0.70357  0.99170  0.95893  1.0000
  C   C62       1.0  0.29643  0.99170  0.54107  1.0000
  C   C63       1.0  0.20357  0.49170  0.95893  1.0000
  C   C64       1.0  0.79643  0.49170  0.54107  1.0000
  C   C65       1.0  0.27163  0.13378  0.01964  1.0000
  C   C66       1.0  0.72837  0.13378  0.48036  1.0000
  C   C67       1.0  0.77163  0.63378  0.01964  1.0000
  C   C68       1.0  0.22837  0.63378  0.48036  1.0000
  C   C69       1.0  0.72837  0.86622  0.98036  1.0000
  C   C70       1.0  0.27163  0.86622  0.51964  1.0000
  C   C71       1.0  0.22837  0.36622  0.98036  1.0000
  C   C72       1.0  0.77163  0.36622  0.51964  1.0000
  C   C73       1.0  0.25262  0.14158  0.95125  1.0000
  C   C74       1.0  0.74738  0.14158  0.54875  1.0000
  C   C75       1.0  0.75262  0.64158  0.95125  1.0000
  C   C76       1.0  0.24738  0.64158  0.54875  1.0000
  C   C77       1.0  0.74738  0.85842  0.04875  1.0000
  C   C78       1.0  0.25262  0.85842  0.45125  1.0000
  C   C79       1.0  0.24738  0.35842  0.04875  1.0000
  C   C80       1.0  0.75262  0.35842  0.45125  1.0000
  H   H25       1.0  0.25480  0.06700  0.91820  1.0000
  H   H26       1.0  0.74520  0.06700  0.58180  1.0000
  H   H27       1.0  0.75480  0.56700  0.91820  1.0000
  H   H28       1.0  0.24520  0.56700  0.58180  1.0000
  H   H29       1.0  0.74520  0.93300  0.08180  1.0000
  H   H30       1.0  0.25480  0.93300  0.41820  1.0000
  H   H31       1.0  0.24520  0.43300  0.08180  1.0000
  H   H32       1.0  0.75480  0.43300  0.41820  1.0000
  C   C81       1.0  0.26949  0.24294  0.06935  1.0000
  C   C82       1.0  0.73051  0.24294  0.43065  1.0000
  C   C83       1.0  0.76949  0.74294  0.06935  1.0000
  C   C84       1.0  0.23051  0.74294  0.43065  1.0000
  C   C85       1.0  0.73051  0.75706  0.93065  1.0000
  C   C86       1.0  0.26949  0.75706  0.56935  1.0000
  C   C87       1.0  0.23051  0.25706  0.93065  1.0000
  C   C88       1.0  0.76949  0.25706  0.56935  1.0000
  H   H33       1.0  0.28290  0.23760  0.11590  1.0000
  H   H34       1.0  0.71710  0.23760  0.38410  1.0000
  H   H35       1.0  0.78290  0.73760  0.11590  1.0000
  H   H36       1.0  0.21710  0.73760  0.38410  1.0000
  H   H37       1.0  0.71710  0.76240  0.88410  1.0000
  H   H38       1.0  0.28290  0.76240  0.61590  1.0000
  H   H39       1.0  0.21710  0.26240  0.88410  1.0000
  H   H40       1.0  0.78290  0.26240  0.61590  1.0000
  C   C89       1.0  0.42048  0.87721  0.01256  1.0000
  C   C90       1.0  0.57952  0.87721  0.48744  1.0000
  C   C91       1.0  0.92048  0.37721  0.01256  1.0000
  C   C92       1.0  0.07952  0.37721  0.48744  1.0000
  C   C93       1.0  0.57952  0.12279  0.98744  1.0000
  C   C94       1.0  0.42048  0.12279  0.51256  1.0000
  C   C95       1.0  0.07952  0.62279  0.98744  1.0000
  C   C96       1.0  0.92048  0.62279  0.51256  1.0000
  C   C97       1.0  0.46229  0.94116  0.00529  1.0000
  C   C98       1.0  0.53771  0.94116  0.49471  1.0000
  C   C99       1.0  0.96229  0.44116  0.00529  1.0000
  C   C100      1.0  0.03771  0.44116  0.49471  1.0000
  C   C101      1.0  0.53771  0.05884  0.99471  1.0000
  C   C102      1.0  0.46229  0.05884  0.50529  1.0000
  C   C103      1.0  0.03771  0.55884  0.99471  1.0000
  C   C104      1.0  0.96229  0.55884  0.50529  1.0000
  C   C105      1.0  0.46531  0.07754  0.99253  1.0000
  C   C106      1.0  0.53469  0.07754  0.50747  1.0000
  C   C107      1.0  0.96531  0.57754  0.99253  1.0000
  C   C108      1.0  0.03469  0.57754  0.50747  1.0000
  C   C109      1.0  0.53469  0.92246  0.00747  1.0000
  C   C110      1.0  0.46531  0.92246  0.49253  1.0000
  C   C111      1.0  0.03469  0.42246  0.00747  1.0000
  C   C112      1.0  0.96531  0.42246  0.49253  1.0000
  H   H41       1.0  0.44180  0.13360  0.98790  1.0000
  H   H42       1.0  0.55820  0.13360  0.51210  1.0000
  H   H43       1.0  0.94180  0.63360  0.98790  1.0000
  H   H44       1.0  0.05820  0.63360  0.51210  1.0000
  H   H45       1.0  0.55820  0.86640  0.01210  1.0000
  H   H46       1.0  0.44180  0.86640  0.48790  1.0000
  H   H47       1.0  0.05820  0.36640  0.01210  1.0000
  H   H48       1.0  0.94180  0.36640  0.48790  1.0000
  C   C113      1.0  0.49506  0.86465  0.01376  1.0000
  C   C114      1.0  0.50494  0.86465  0.48624  1.0000
  C   C115      1.0  0.99506  0.36465  0.01376  1.0000
  C   C116      1.0  0.00494  0.36465  0.48624  1.0000
  C   C117      1.0  0.50494  0.13535  0.98624  1.0000
  C   C118      1.0  0.49506  0.13535  0.51376  1.0000
  C   C119      1.0  0.00494  0.63535  0.98624  1.0000
  C   C120      1.0  0.99506  0.63535  0.51376  1.0000
  H   H49       1.0  0.49240  0.76940  0.02420  1.0000
  H   H50       1.0  0.50760  0.76940  0.47580  1.0000
  H   H51       1.0  0.99240  0.26940  0.02420  1.0000
  H   H52       1.0  0.00760  0.26940  0.47580  1.0000
  H   H53       1.0  0.50760  0.23060  0.97580  1.0000
  H   H54       1.0  0.49240  0.23060  0.52420  1.0000
  H   H55       1.0  0.00760  0.73060  0.97580  1.0000
  H   H56       1.0  0.99240  0.73060  0.52420  1.0000
  C   C121      1.0  0.15219  0.95975  0.20920  1.0000
  C   C122      1.0  0.84781  0.95975  0.29080  1.0000
  C   C123      1.0  0.65219  0.45975  0.20920  1.0000
  C   C124      1.0  0.34781  0.45975  0.29080  1.0000
  C   C125      1.0  0.84781  0.04025  0.79080  1.0000
  C   C126      1.0  0.15219  0.04025  0.70920  1.0000
  C   C127      1.0  0.34781  0.54025  0.79080  1.0000
  C   C128      1.0  0.65219  0.54025  0.70920  1.0000
  H   H57       1.0  0.12690  0.92610  0.19020  1.0000
  H   H58       1.0  0.87310  0.92610  0.30980  1.0000
  H   H59       1.0  0.62690  0.42610  0.19020  1.0000
  H   H60       1.0  0.37310  0.42610  0.30980  1.0000
  H   H61       1.0  0.87310  0.07390  0.80980  1.0000
  H   H62       1.0  0.12690  0.07390  0.69020  1.0000
  H   H63       1.0  0.37310  0.57390  0.80980  1.0000
  H   H64       1.0  0.62690  0.57390  0.69020  1.0000
  Co  Co1       1.0  0.15230  0.69968  0.98706  1.0000
  Co  Co2       1.0  0.84770  0.69968  0.51294  1.0000
  Co  Co3       1.0  0.65230  0.19968  0.98706  1.0000
  Co  Co4       1.0  0.34770  0.19968  0.51294  1.0000
  Co  Co5       1.0  0.84770  0.30032  0.01294  1.0000
  Co  Co6       1.0  0.15230  0.30032  0.48706  1.0000
  Co  Co7       1.0  0.34770  0.80032  0.01294  1.0000
  Co  Co8       1.0  0.65230  0.80032  0.48706  1.0000
  Co  Co9       1.0  0.25000  0.75000  0.00000  1.0000
  Co  Co10      1.0  0.75000  0.75000  0.50000  1.0000
  Co  Co11      1.0  0.75000  0.25000  0.00000  1.0000
  Co  Co12      1.0  0.25000  0.25000  0.50000  1.0000
  O   O1        1.0  0.21428  0.88274  0.05666  1.0000
  O   O2        1.0  0.78572  0.88274  0.44334  1.0000
  O   O3        1.0  0.71428  0.38274  0.05666  1.0000
  O   O4        1.0  0.28572  0.38274  0.44334  1.0000
  O   O5        1.0  0.78572  0.11726  0.94334  1.0000
  O   O6        1.0  0.21428  0.11726  0.55666  1.0000
  O   O7        1.0  0.28572  0.61726  0.94334  1.0000
  O   O8        1.0  0.71428  0.61726  0.55666  1.0000
  O   O9        1.0  0.15283  0.80215  0.08182  1.0000
  O   O10       1.0  0.84717  0.80215  0.41818  1.0000
  O   O11       1.0  0.65283  0.30215  0.08182  1.0000
  O   O12       1.0  0.34717  0.30215  0.41818  1.0000
  O   O13       1.0  0.84717  0.19785  0.91818  1.0000
  O   O14       1.0  0.15283  0.19785  0.58182  1.0000
  O   O15       1.0  0.34717  0.69785  0.91818  1.0000
  O   O16       1.0  0.65283  0.69785  0.58182  1.0000
  O   O17       1.0  0.22737  0.18458  0.39990  1.0000
  O   O18       1.0  0.77263  0.18458  0.10010  1.0000
  O   O19       1.0  0.72737  0.68458  0.39990  1.0000
  O   O20       1.0  0.27263  0.68458  0.10010  1.0000
  O   O21       1.0  0.77263  0.81542  0.60010  1.0000
  O   O22       1.0  0.22737  0.81542  0.89990  1.0000
  O   O23       1.0  0.27263  0.31542  0.60010  1.0000
  O   O24       1.0  0.72737  0.31542  0.89990  1.0000
  O   O25       1.0  0.15952  0.18021  0.40290  1.0000
  O   O26       1.0  0.84048  0.18021  0.09710  1.0000
  O   O27       1.0  0.65952  0.68021  0.40290  1.0000
  O   O28       1.0  0.34048  0.68021  0.09710  1.0000
  O   O29       1.0  0.84048  0.81979  0.59710  1.0000
  O   O30       1.0  0.15952  0.81979  0.90290  1.0000
  O   O31       1.0  0.34048  0.31979  0.59710  1.0000
  O   O32       1.0  0.65952  0.31979  0.90290  1.0000
  O   O33       1.0  0.38997  0.94940  0.00414  1.0000
  O   O34       1.0  0.61003  0.94940  0.49586  1.0000
  O   O35       1.0  0.88997  0.44940  0.00414  1.0000
  O   O36       1.0  0.11003  0.44940  0.49586  1.0000
  O   O37       1.0  0.61003  0.05060  0.99586  1.0000
  O   O38       1.0  0.38997  0.05060  0.50414  1.0000
  O   O39       1.0  0.11003  0.55060  0.99586  1.0000
  O   O40       1.0  0.88997  0.55060  0.50414  1.0000
  O   O41       1.0  0.41730  0.75755  0.02915  1.0000
  O   O42       1.0  0.58270  0.75755  0.47085  1.0000
  O   O43       1.0  0.91730  0.25755  0.02915  1.0000
  O   O44       1.0  0.08270  0.25755  0.47085  1.0000
  O   O45       1.0  0.58270  0.24245  0.97085  1.0000
  O   O46       1.0  0.41730  0.24245  0.52915  1.0000
  O   O47       1.0  0.08270  0.74245  0.97085  1.0000
  O   O48       1.0  0.91730  0.74245  0.52915  1.0000
  O   O49       1.0  0.29606  0.90703  0.99489  1.0000
  O   O50       1.0  0.70394  0.90703  0.50511  1.0000
  O   O51       1.0  0.79606  0.40703  0.99489  1.0000
  O   O52       1.0  0.20394  0.40703  0.50511  1.0000
  O   O53       1.0  0.70394  0.09297  0.00511  1.0000
  O   O54       1.0  0.29606  0.09297  0.49489  1.0000
  O   O55       1.0  0.20394  0.59297  0.00511  1.0000
  O   O56       1.0  0.79606  0.59297  0.49489  1.0000
  O   O57       1.0  0.31714  0.00741  0.09851  1.0000
  O   O58       1.0  0.68286  0.00741  0.40149  1.0000
  O   O59       1.0  0.81714  0.50741  0.09851  1.0000
  O   O60       1.0  0.18286  0.50741  0.40149  1.0000
  O   O61       1.0  0.68286  0.99259  0.90149  1.0000
  O   O62       1.0  0.31714  0.99259  0.59851  1.0000
  O   O63       1.0  0.18286  0.49259  0.90149  1.0000
  O   O64       1.0  0.81714  0.49259  0.59851  1.0000
