data_image0
_chemical_formula_structural       C8H4C4H4C8H4C4H4C12H4C4H4C8H4C4H4C16H4C4H4C8H4C4H4C8H4C4H4C8H4C4H4C16H4C4H4C8H4C4H4C8H4C4H4C8H4C4H4C16H4C4H4C8H4C4H4C8H4C4H4C8H4C4H4C4Co12O64
_chemical_formula_sum              "C224 H128 Co12 O64"
_cell_length_a       22.55
_cell_length_b       14.187
_cell_length_c       25.681
_cell_angle_alpha    90
_cell_angle_beta     92.096
_cell_angle_gamma    90

_space_group_name_H-M_alt    "P 1"
_space_group_IT_number       1

loop_
  _space_group_symop_operation_xyz
  'x, y, z'

loop_
  _atom_site_type_symbol
  _atom_site_label
  _atom_site_symmetry_multiplicity
  _atom_site_fract_x
  _atom_site_fract_y
  _atom_site_fract_z
  _atom_site_occupancy
  C   C1        1.0  0.97235  0.70298  0.06125  1.0000
  C   C2        1.0  0.02765  0.70298  0.43875  1.0000
  C   C3        1.0  0.02765  0.29702  0.93875  1.0000
  C   C4        1.0  0.97235  0.29702  0.56125  1.0000
  C   C5        1.0  0.86908  0.69007  0.02296  1.0000
  C   C6        1.0  0.13092  0.69007  0.47704  1.0000
  C   C7        1.0  0.13092  0.30993  0.97704  1.0000
  C   C8        1.0  0.86908  0.30993  0.52296  1.0000
  H   H1        1.0  0.88390  0.66570  0.99240  1.0000
  H   H2        1.0  0.11610  0.66570  0.50760  1.0000
  H   H3        1.0  0.11610  0.33430  0.00760  1.0000
  H   H4        1.0  0.88390  0.33430  0.49240  1.0000
  C   C9        1.0  0.80846  0.70501  0.02671  1.0000
  C   C10       1.0  0.19154  0.70501  0.47329  1.0000
  C   C11       1.0  0.19154  0.29499  0.97329  1.0000
  C   C12       1.0  0.80846  0.29499  0.52671  1.0000
  H   H5        1.0  0.78270  0.69070  0.99870  1.0000
  H   H6        1.0  0.21730  0.69070  0.50130  1.0000
  H   H7        1.0  0.21730  0.30930  0.00130  1.0000
  H   H8        1.0  0.78270  0.30930  0.49870  1.0000
  C   C13       1.0  0.78629  0.74140  0.07233  1.0000
  C   C14       1.0  0.21371  0.74140  0.42767  1.0000
  C   C15       1.0  0.21371  0.25860  0.92767  1.0000
  C   C16       1.0  0.78629  0.25860  0.57233  1.0000
  C   C17       1.0  0.82472  0.76286  0.11420  1.0000
  C   C18       1.0  0.17528  0.76286  0.38580  1.0000
  C   C19       1.0  0.17528  0.23714  0.88580  1.0000
  C   C20       1.0  0.82472  0.23714  0.61420  1.0000
  H   H9        1.0  0.80990  0.78720  0.14470  1.0000
  H   H10       1.0  0.19010  0.78720  0.35530  1.0000
  H   H11       1.0  0.19010  0.21280  0.85530  1.0000
  H   H12       1.0  0.80990  0.21280  0.64470  1.0000
  C   C21       1.0  0.88534  0.74792  0.11045  1.0000
  C   C22       1.0  0.11466  0.74792  0.38955  1.0000
  C   C23       1.0  0.11466  0.25208  0.88955  1.0000
  C   C24       1.0  0.88534  0.25208  0.61045  1.0000
  H   H13       1.0  0.91110  0.76230  0.13850  1.0000
  H   H14       1.0  0.08890  0.76230  0.36150  1.0000
  H   H15       1.0  0.08890  0.23770  0.86150  1.0000
  H   H16       1.0  0.91110  0.23770  0.63850  1.0000
  C   C25       1.0  0.90751  0.71153  0.06484  1.0000
  C   C26       1.0  0.09248  0.71153  0.43517  1.0000
  C   C27       1.0  0.09248  0.28847  0.93517  1.0000
  C   C28       1.0  0.90751  0.28847  0.56483  1.0000
  C   C29       1.0  0.59661  0.79076  0.06825  1.0000
  C   C30       1.0  0.40339  0.79076  0.43175  1.0000
  C   C31       1.0  0.40339  0.20924  0.93175  1.0000
  C   C32       1.0  0.59661  0.20924  0.56825  1.0000
  C   C33       1.0  0.62954  0.80923  0.02470  1.0000
  C   C34       1.0  0.37046  0.80923  0.47531  1.0000
  C   C35       1.0  0.37046  0.19077  0.97530  1.0000
  C   C36       1.0  0.62954  0.19077  0.52470  1.0000
  H   H17       1.0  0.61090  0.83260  0.99450  1.0000
  H   H18       1.0  0.38910  0.83260  0.50550  1.0000
  H   H19       1.0  0.38910  0.16740  0.00550  1.0000
  H   H20       1.0  0.61090  0.16740  0.49450  1.0000
  C   C37       1.0  0.69035  0.79284  0.02630  1.0000
  C   C38       1.0  0.30965  0.79284  0.47369  1.0000
  C   C39       1.0  0.30965  0.20716  0.97370  1.0000
  C   C40       1.0  0.69035  0.20716  0.52631  1.0000
  H   H21       1.0  0.71240  0.80520  0.99720  1.0000
  H   H22       1.0  0.28760  0.80520  0.50280  1.0000
  H   H23       1.0  0.28760  0.19480  0.00280  1.0000
  H   H24       1.0  0.71240  0.19480  0.49720  1.0000
  C   C41       1.0  0.71823  0.75798  0.07147  1.0000
  C   C42       1.0  0.28177  0.75798  0.42853  1.0000
  C   C43       1.0  0.28177  0.24202  0.92853  1.0000
  C   C44       1.0  0.71823  0.24202  0.57147  1.0000
  C   C45       1.0  0.68530  0.73951  0.11503  1.0000
  C   C46       1.0  0.31470  0.73951  0.38497  1.0000
  C   C47       1.0  0.31470  0.26049  0.88497  1.0000
  C   C48       1.0  0.68530  0.26049  0.61503  1.0000
  H   H25       1.0  0.70400  0.71620  0.14530  1.0000
  H   H26       1.0  0.29600  0.71620  0.35470  1.0000
  H   H27       1.0  0.29600  0.28380  0.85470  1.0000
  H   H28       1.0  0.70400  0.28380  0.64530  1.0000
  C   C49       1.0  0.62449  0.75590  0.11342  1.0000
  C   C50       1.0  0.37551  0.75590  0.38658  1.0000
  C   C51       1.0  0.37551  0.24410  0.88658  1.0000
  C   C52       1.0  0.62449  0.24410  0.61342  1.0000
  H   H29       1.0  0.60250  0.74350  0.14260  1.0000
  H   H30       1.0  0.39750  0.74350  0.35740  1.0000
  H   H31       1.0  0.39750  0.25650  0.85740  1.0000
  H   H32       1.0  0.60250  0.25650  0.64260  1.0000
  C   C53       1.0  0.52796  0.78881  0.06567  1.0000
  C   C54       1.0  0.47204  0.78881  0.43433  1.0000
  C   C55       1.0  0.47204  0.21119  0.93433  1.0000
  C   C56       1.0  0.52796  0.21119  0.56567  1.0000
  C   C57       1.0  0.15401  0.17565  0.51655  1.0000
  C   C58       1.0  0.84599  0.17565  0.98345  1.0000
  C   C59       1.0  0.84599  0.82435  0.48345  1.0000
  C   C60       1.0  0.15401  0.82435  0.01655  1.0000
  C   C61       1.0  0.15486  0.12427  0.46385  1.0000
  C   C62       1.0  0.84514  0.12427  0.03615  1.0000
  C   C63       1.0  0.84514  0.87573  0.53615  1.0000
  C   C64       1.0  0.15486  0.87573  0.96385  1.0000
  C   C65       1.0  0.20249  0.06661  0.45241  1.0000
  C   C66       1.0  0.79751  0.06661  0.04759  1.0000
  C   C67       1.0  0.79751  0.93339  0.54759  1.0000
  C   C68       1.0  0.20249  0.93339  0.95241  1.0000
  H   H33       1.0  0.23430  0.06050  0.47620  1.0000
  H   H34       1.0  0.76570  0.06050  0.02380  1.0000
  H   H35       1.0  0.76570  0.93950  0.52380  1.0000
  H   H36       1.0  0.23430  0.93950  0.97620  1.0000
  C   C69       1.0  0.20250  0.01805  0.40540  1.0000
  C   C70       1.0  0.79750  0.01805  0.09460  1.0000
  C   C71       1.0  0.79750  0.98195  0.59460  1.0000
  C   C72       1.0  0.20250  0.98195  0.90540  1.0000
  H   H37       1.0  0.23440  0.97950  0.39780  1.0000
  H   H38       1.0  0.76560  0.97950  0.10220  1.0000
  H   H39       1.0  0.76560  0.02050  0.60220  1.0000
  H   H40       1.0  0.23440  0.02050  0.89780  1.0000
  C   C73       1.0  0.15489  0.02715  0.36983  1.0000
  C   C74       1.0  0.84511  0.02715  0.13017  1.0000
  C   C75       1.0  0.84511  0.97285  0.63017  1.0000
  C   C76       1.0  0.15489  0.97285  0.86983  1.0000
  C   C77       1.0  0.10726  0.08482  0.38127  1.0000
  C   C78       1.0  0.89274  0.08482  0.11873  1.0000
  C   C79       1.0  0.89274  0.91518  0.61873  1.0000
  C   C80       1.0  0.10726  0.91518  0.88127  1.0000
  H   H41       1.0  0.07540  0.09090  0.35750  1.0000
  H   H42       1.0  0.92460  0.09090  0.14250  1.0000
  H   H43       1.0  0.92460  0.90910  0.64250  1.0000
  H   H44       1.0  0.07540  0.90910  0.85750  1.0000
  C   C81       1.0  0.10725  0.13338  0.42828  1.0000
  C   C82       1.0  0.89275  0.13338  0.07172  1.0000
  C   C83       1.0  0.89275  0.86662  0.57172  1.0000
  C   C84       1.0  0.10725  0.86662  0.92828  1.0000
  H   H45       1.0  0.07540  0.17200  0.43590  1.0000
  H   H46       1.0  0.92460  0.17200  0.06410  1.0000
  H   H47       1.0  0.92460  0.82800  0.56410  1.0000
  H   H48       1.0  0.07540  0.82800  0.93590  1.0000
  C   C85       1.0  0.15620  0.97144  0.32146  1.0000
  C   C86       1.0  0.84380  0.97144  0.17854  1.0000
  C   C87       1.0  0.84380  0.02856  0.67854  1.0000
  C   C88       1.0  0.15620  0.02856  0.82146  1.0000
  C   C89       1.0  0.21000  0.96153  0.29376  1.0000
  C   C90       1.0  0.79000  0.96153  0.20624  1.0000
  C   C91       1.0  0.79000  0.03847  0.70624  1.0000
  C   C92       1.0  0.21000  0.03847  0.79376  1.0000
  H   H49       1.0  0.24430  0.98880  0.30820  1.0000
  H   H50       1.0  0.75570  0.98880  0.19180  1.0000
  H   H51       1.0  0.75570  0.01120  0.69180  1.0000
  H   H52       1.0  0.24430  0.01120  0.80820  1.0000
  C   C93       1.0  0.21408  0.91560  0.24839  1.0000
  C   C94       1.0  0.78592  0.91560  0.25161  1.0000
  C   C95       1.0  0.78592  0.08440  0.75161  1.0000
  C   C96       1.0  0.21408  0.08440  0.74839  1.0000
  H   H53       1.0  0.25040  0.90920  0.23280  1.0000
  H   H54       1.0  0.74960  0.90920  0.26720  1.0000
  H   H55       1.0  0.74960  0.09080  0.76720  1.0000
  H   H56       1.0  0.25040  0.09080  0.73280  1.0000
  C   C97       1.0  0.16026  0.87597  0.22404  1.0000
  C   C98       1.0  0.83974  0.87597  0.27596  1.0000
  C   C99       1.0  0.83974  0.12403  0.77596  1.0000
  C   C100      1.0  0.16026  0.12403  0.72404  1.0000
  C   C101      1.0  0.10656  0.89155  0.24787  1.0000
  C   C102      1.0  0.89344  0.89155  0.25213  1.0000
  C   C103      1.0  0.89344  0.10845  0.75213  1.0000
  C   C104      1.0  0.10656  0.10845  0.74787  1.0000
  H   H57       1.0  0.07190  0.86900  0.23160  1.0000
  H   H58       1.0  0.92810  0.86900  0.26840  1.0000
  H   H59       1.0  0.92810  0.13100  0.76840  1.0000
  H   H60       1.0  0.07190  0.13100  0.73160  1.0000
  C   C105      1.0  0.10258  0.94102  0.29650  1.0000
  C   C106      1.0  0.89742  0.94102  0.20350  1.0000
  C   C107      1.0  0.89742  0.05898  0.70350  1.0000
  C   C108      1.0  0.10258  0.05898  0.79650  1.0000
  H   H61       1.0  0.06610  0.95260  0.31100  1.0000
  H   H62       1.0  0.93390  0.95260  0.18900  1.0000
  H   H63       1.0  0.93390  0.04740  0.68900  1.0000
  H   H64       1.0  0.06610  0.04740  0.81100  1.0000
  C   C109      1.0  0.16065  0.82206  0.17310  1.0000
  C   C110      1.0  0.83935  0.82206  0.32690  1.0000
  C   C111      1.0  0.83935  0.17794  0.82690  1.0000
  C   C112      1.0  0.16065  0.17794  0.67310  1.0000
  C   C113      1.0  0.35096  0.92931  0.10505  1.0000
  C   C114      1.0  0.64904  0.92931  0.39495  1.0000
  C   C115      1.0  0.64904  0.07069  0.89495  1.0000
  C   C116      1.0  0.35096  0.07069  0.60505  1.0000
  C   C117      1.0  0.32173  0.02478  0.11138  1.0000
  C   C118      1.0  0.67827  0.02478  0.38862  1.0000
  C   C119      1.0  0.67827  0.97522  0.88862  1.0000
  C   C120      1.0  0.32173  0.97522  0.61138  1.0000
  C   C121      1.0  0.35563  0.10410  0.12362  1.0000
  C   C122      1.0  0.64437  0.10410  0.37638  1.0000
  C   C123      1.0  0.64437  0.89590  0.87638  1.0000
  C   C124      1.0  0.35563  0.89590  0.62362  1.0000
  H   H65       1.0  0.39640  0.09840  0.12970  1.0000
  H   H66       1.0  0.60360  0.09840  0.37030  1.0000
  H   H67       1.0  0.60360  0.90160  0.87030  1.0000
  H   H68       1.0  0.39640  0.90160  0.62970  1.0000
  C   C125      1.0  0.32861  0.19188  0.12676  1.0000
  C   C126      1.0  0.67139  0.19188  0.37324  1.0000
  C   C127      1.0  0.67139  0.80812  0.87324  1.0000
  C   C128      1.0  0.32861  0.80812  0.62676  1.0000
  H   H69       1.0  0.35130  0.24500  0.13490  1.0000
  H   H70       1.0  0.64870  0.24500  0.36510  1.0000
  H   H71       1.0  0.64870  0.75500  0.86510  1.0000
  H   H72       1.0  0.35130  0.75500  0.63490  1.0000
  C   C129      1.0  0.26770  0.20034  0.11767  1.0000
  C   C130      1.0  0.73230  0.20034  0.38233  1.0000
  C   C131      1.0  0.73230  0.79966  0.88233  1.0000
  C   C132      1.0  0.26770  0.79966  0.61767  1.0000
  C   C133      1.0  0.23380  0.12101  0.10544  1.0000
  C   C134      1.0  0.76620  0.12101  0.39456  1.0000
  C   C135      1.0  0.76620  0.87899  0.89456  1.0000
  C   C136      1.0  0.23380  0.87899  0.60544  1.0000
  H   H73       1.0  0.19300  0.12670  0.09940  1.0000
  H   H74       1.0  0.80700  0.12670  0.40060  1.0000
  H   H75       1.0  0.80700  0.87330  0.90060  1.0000
  H   H76       1.0  0.19300  0.87330  0.59940  1.0000
  C   C137      1.0  0.26081  0.03323  0.10229  1.0000
  C   C138      1.0  0.73919  0.03323  0.39771  1.0000
  C   C139      1.0  0.73919  0.96677  0.89771  1.0000
  C   C140      1.0  0.26081  0.96677  0.60229  1.0000
  H   H77       1.0  0.23810  0.98020  0.09410  1.0000
  H   H78       1.0  0.76190  0.98020  0.40590  1.0000
  H   H79       1.0  0.76190  0.01980  0.90590  1.0000
  H   H80       1.0  0.23810  0.01980  0.59410  1.0000
  C   C141      1.0  0.24007  0.29864  0.11602  1.0000
  C   C142      1.0  0.75993  0.29864  0.38398  1.0000
  C   C143      1.0  0.75993  0.70136  0.88398  1.0000
  C   C144      1.0  0.24007  0.70136  0.61602  1.0000
  C   C145      1.0  0.27236  0.37596  0.10185  1.0000
  C   C146      1.0  0.72764  0.37596  0.39815  1.0000
  C   C147      1.0  0.72764  0.62404  0.89815  1.0000
  C   C148      1.0  0.27236  0.62404  0.60185  1.0000
  H   H81       1.0  0.31240  0.36840  0.09530  1.0000
  H   H82       1.0  0.68760  0.36840  0.40470  1.0000
  H   H83       1.0  0.68760  0.63160  0.90470  1.0000
  H   H84       1.0  0.31240  0.63160  0.59530  1.0000
  C   C149      1.0  0.24666  0.46704  0.09681  1.0000
  C   C150      1.0  0.75334  0.46704  0.40319  1.0000
  C   C151      1.0  0.75334  0.53296  0.90319  1.0000
  C   C152      1.0  0.24666  0.53296  0.59681  1.0000
  H   H85       1.0  0.26880  0.51850  0.08630  1.0000
  H   H86       1.0  0.73120  0.51850  0.41370  1.0000
  H   H87       1.0  0.73120  0.48150  0.91370  1.0000
  H   H88       1.0  0.26880  0.48150  0.58630  1.0000
  C   C153      1.0  0.18912  0.47621  0.10774  1.0000
  C   C154      1.0  0.81088  0.47621  0.39226  1.0000
  C   C155      1.0  0.81088  0.52379  0.89226  1.0000
  C   C156      1.0  0.18912  0.52379  0.60774  1.0000
  C   C157      1.0  0.15831  0.39699  0.12280  1.0000
  C   C158      1.0  0.84169  0.39699  0.37720  1.0000
  C   C159      1.0  0.84169  0.60301  0.87720  1.0000
  C   C160      1.0  0.15831  0.60301  0.62280  1.0000
  H   H89       1.0  0.11860  0.40440  0.13030  1.0000
  H   H90       1.0  0.88140  0.40440  0.36970  1.0000
  H   H91       1.0  0.88140  0.59560  0.86970  1.0000
  H   H92       1.0  0.11860  0.59560  0.63030  1.0000
  C   C161      1.0  0.18198  0.30887  0.12739  1.0000
  C   C162      1.0  0.81802  0.30887  0.37261  1.0000
  C   C163      1.0  0.81802  0.69113  0.87261  1.0000
  C   C164      1.0  0.18198  0.69113  0.62739  1.0000
  H   H93       1.0  0.15940  0.25790  0.13780  1.0000
  H   H94       1.0  0.84060  0.25790  0.36220  1.0000
  H   H95       1.0  0.84060  0.74210  0.86220  1.0000
  H   H96       1.0  0.15940  0.74210  0.63780  1.0000
  C   C165      1.0  0.15828  0.56851  0.10212  1.0000
  C   C166      1.0  0.84172  0.56851  0.39788  1.0000
  C   C167      1.0  0.84172  0.43149  0.89788  1.0000
  C   C168      1.0  0.15828  0.43149  0.60212  1.0000
  C   C169      1.0  0.35407  0.67063  0.17186  1.0000
  C   C170      1.0  0.64593  0.67063  0.32814  1.0000
  C   C171      1.0  0.64593  0.32937  0.82814  1.0000
  C   C172      1.0  0.35407  0.32937  0.67186  1.0000
  C   C173      1.0  0.35439  0.61761  0.22327  1.0000
  C   C174      1.0  0.64561  0.61761  0.27673  1.0000
  C   C175      1.0  0.64561  0.38239  0.77673  1.0000
  C   C176      1.0  0.35439  0.38239  0.72327  1.0000
  C   C177      1.0  0.40525  0.60835  0.25510  1.0000
  C   C178      1.0  0.59475  0.60835  0.24490  1.0000
  C   C179      1.0  0.59475  0.39165  0.74490  1.0000
  C   C180      1.0  0.40525  0.39165  0.75510  1.0000
  H   H97       1.0  0.44080  0.63460  0.24500  1.0000
  H   H98       1.0  0.55920  0.63460  0.25500  1.0000
  H   H99       1.0  0.55920  0.36540  0.75500  1.0000
  H   H100      1.0  0.44080  0.36540  0.74500  1.0000
  C   C181      1.0  0.40294  0.55983  0.30200  1.0000
  C   C182      1.0  0.59706  0.55983  0.19800  1.0000
  C   C183      1.0  0.59706  0.44017  0.69800  1.0000
  C   C184      1.0  0.40294  0.44017  0.80200  1.0000
  H   H101      1.0  0.43700  0.55360  0.32330  1.0000
  H   H102      1.0  0.56300  0.55360  0.17670  1.0000
  H   H103      1.0  0.56300  0.44640  0.67670  1.0000
  H   H104      1.0  0.43700  0.44640  0.82330  1.0000
  C   C185      1.0  0.34976  0.52057  0.31708  1.0000
  C   C186      1.0  0.65024  0.52057  0.18292  1.0000
  C   C187      1.0  0.65024  0.47943  0.68292  1.0000
  C   C188      1.0  0.34976  0.47943  0.81708  1.0000
  C   C189      1.0  0.29890  0.52983  0.28526  1.0000
  C   C190      1.0  0.70110  0.52983  0.21474  1.0000
  C   C191      1.0  0.70110  0.47017  0.71474  1.0000
  C   C192      1.0  0.29890  0.47017  0.78526  1.0000
  H   H105      1.0  0.26330  0.50360  0.29530  1.0000
  H   H106      1.0  0.73670  0.50360  0.20470  1.0000
  H   H107      1.0  0.73670  0.49640  0.70470  1.0000
  H   H108      1.0  0.26330  0.49640  0.79530  1.0000
  C   C193      1.0  0.30122  0.57835  0.23835  1.0000
  C   C194      1.0  0.69878  0.57835  0.26165  1.0000
  C   C195      1.0  0.69878  0.42165  0.76165  1.0000
  C   C196      1.0  0.30122  0.42165  0.73835  1.0000
  H   H109      1.0  0.26720  0.58450  0.21710  1.0000
  H   H110      1.0  0.73280  0.58450  0.28290  1.0000
  H   H111      1.0  0.73280  0.41550  0.78290  1.0000
  H   H112      1.0  0.26720  0.41550  0.71710  1.0000
  C   C197      1.0  0.34792  0.46546  0.36693  1.0000
  C   C198      1.0  0.65208  0.46546  0.13307  1.0000
  C   C199      1.0  0.65208  0.53454  0.63307  1.0000
  C   C200      1.0  0.34792  0.53454  0.86693  1.0000
  C   C201      1.0  0.29772  0.46991  0.39704  1.0000
  C   C202      1.0  0.70228  0.46991  0.10296  1.0000
  C   C203      1.0  0.70228  0.53009  0.60296  1.0000
  C   C204      1.0  0.29772  0.53009  0.89704  1.0000
  H   H113      1.0  0.26440  0.50360  0.38560  1.0000
  H   H114      1.0  0.73560  0.50360  0.11440  1.0000
  H   H115      1.0  0.73560  0.49640  0.61440  1.0000
  H   H116      1.0  0.26440  0.49640  0.88560  1.0000
  C   C205      1.0  0.29877  0.42326  0.44399  1.0000
  C   C206      1.0  0.70123  0.42326  0.05601  1.0000
  C   C207      1.0  0.70123  0.57674  0.55601  1.0000
  C   C208      1.0  0.29877  0.57674  0.94399  1.0000
  H   H117      1.0  0.26580  0.42830  0.46450  1.0000
  H   H118      1.0  0.73420  0.42830  0.03550  1.0000
  H   H119      1.0  0.73420  0.57170  0.53550  1.0000
  H   H120      1.0  0.26580  0.57170  0.96450  1.0000
  C   C209      1.0  0.34582  0.36963  0.46223  1.0000
  C   C210      1.0  0.65418  0.36963  0.03777  1.0000
  C   C211      1.0  0.65418  0.63037  0.53777  1.0000
  C   C212      1.0  0.34582  0.63037  0.96223  1.0000
  C   C213      1.0  0.39118  0.36327  0.43016  1.0000
  C   C214      1.0  0.60882  0.36327  0.06984  1.0000
  C   C215      1.0  0.60882  0.63673  0.56984  1.0000
  C   C216      1.0  0.39118  0.63673  0.93016  1.0000
  H   H121      1.0  0.42310  0.32530  0.44050  1.0000
  H   H122      1.0  0.57690  0.32530  0.05950  1.0000
  H   H123      1.0  0.57690  0.67470  0.55950  1.0000
  H   H124      1.0  0.42310  0.67470  0.94050  1.0000
  C   C217      1.0  0.39389  0.40992  0.38195  1.0000
  C   C218      1.0  0.60611  0.40992  0.11805  1.0000
  C   C219      1.0  0.60611  0.59008  0.61805  1.0000
  C   C220      1.0  0.39389  0.59008  0.88195  1.0000
  H   H125      1.0  0.42640  0.40260  0.36110  1.0000
  H   H126      1.0  0.57360  0.40260  0.13890  1.0000
  H   H127      1.0  0.57360  0.59740  0.63890  1.0000
  H   H128      1.0  0.42640  0.59740  0.86110  1.0000
  C   C221      1.0  0.34198  0.31504  0.51207  1.0000
  C   C222      1.0  0.65802  0.31504  0.98793  1.0000
  C   C223      1.0  0.65802  0.68496  0.48793  1.0000
  C   C224      1.0  0.34198  0.68496  0.01207  1.0000
  Co  Co1       1.0  0.09165  0.71661  0.09278  1.0000
  Co  Co2       1.0  0.90835  0.71661  0.40722  1.0000
  Co  Co3       1.0  0.90835  0.28339  0.90722  1.0000
  Co  Co4       1.0  0.09165  0.28339  0.59278  1.0000
  Co  Co5       1.0  0.41475  0.78277  0.09561  1.0000
  Co  Co6       1.0  0.58525  0.78277  0.40439  1.0000
  Co  Co7       1.0  0.58525  0.21723  0.90439  1.0000
  Co  Co8       1.0  0.41475  0.21723  0.59561  1.0000
  Co  Co9       1.0  0.25300  0.74996  0.09525  1.0000
  Co  Co10      1.0  0.74700  0.74996  0.40475  1.0000
  Co  Co11      1.0  0.74700  0.25004  0.90475  1.0000
  Co  Co12      1.0  0.25300  0.25004  0.59525  1.0000
  O   O1        1.0  0.32057  0.85666  0.09695  1.0000
  O   O2        1.0  0.67943  0.85666  0.40305  1.0000
  O   O3        1.0  0.67943  0.14334  0.90305  1.0000
  O   O4        1.0  0.32057  0.14334  0.59695  1.0000
  O   O5        1.0  0.40608  0.92440  0.10778  1.0000
  O   O6        1.0  0.59392  0.92440  0.39222  1.0000
  O   O7        1.0  0.59392  0.07560  0.89222  1.0000
  O   O8        1.0  0.40608  0.07560  0.60778  1.0000
  O   O9        1.0  0.18586  0.64086  0.09122  1.0000
  O   O10       1.0  0.81414  0.64086  0.40878  1.0000
  O   O11       1.0  0.81414  0.35914  0.90878  1.0000
  O   O12       1.0  0.18586  0.35914  0.59122  1.0000
  O   O13       1.0  0.10290  0.57588  0.10525  1.0000
  O   O14       1.0  0.89710  0.57588  0.39475  1.0000
  O   O15       1.0  0.89710  0.42412  0.89475  1.0000
  O   O16       1.0  0.10290  0.42412  0.60525  1.0000
  O   O17       1.0  0.20916  0.80264  0.15842  1.0000
  O   O18       1.0  0.79084  0.80264  0.34158  1.0000
  O   O19       1.0  0.79084  0.19736  0.84158  1.0000
  O   O20       1.0  0.20916  0.19736  0.65842  1.0000
  O   O21       1.0  0.11219  0.79238  0.15707  1.0000
  O   O22       1.0  0.88781  0.79238  0.34293  1.0000
  O   O23       1.0  0.88781  0.20762  0.84293  1.0000
  O   O24       1.0  0.11219  0.20762  0.65707  1.0000
  O   O25       1.0  0.19759  0.16439  0.54620  1.0000
  O   O26       1.0  0.80241  0.16439  0.95380  1.0000
  O   O27       1.0  0.80241  0.83561  0.45380  1.0000
  O   O28       1.0  0.19759  0.83561  0.04620  1.0000
  O   O29       1.0  0.10964  0.22037  0.52556  1.0000
  O   O30       1.0  0.89036  0.22037  0.97444  1.0000
  O   O31       1.0  0.89036  0.77963  0.47444  1.0000
  O   O32       1.0  0.10964  0.77963  0.02556  1.0000
  O   O33       1.0  0.00421  0.73292  0.09724  1.0000
  O   O34       1.0  0.99579  0.73292  0.40276  1.0000
  O   O35       1.0  0.99579  0.26708  0.90276  1.0000
  O   O36       1.0  0.00421  0.26708  0.59724  1.0000
  O   O37       1.0  0.99121  0.65678  0.02383  1.0000
  O   O38       1.0  0.00879  0.65678  0.47617  1.0000
  O   O39       1.0  0.00879  0.34322  0.97617  1.0000
  O   O40       1.0  0.99121  0.34322  0.52383  1.0000
  O   O41       1.0  0.39993  0.70997  0.16121  1.0000
  O   O42       1.0  0.60007  0.70997  0.33879  1.0000
  O   O43       1.0  0.60007  0.29003  0.83879  1.0000
  O   O44       1.0  0.39993  0.29003  0.66121  1.0000
  O   O45       1.0  0.30774  0.66430  0.14352  1.0000
  O   O46       1.0  0.69226  0.66430  0.35648  1.0000
  O   O47       1.0  0.69226  0.33570  0.85648  1.0000
  O   O48       1.0  0.30774  0.33570  0.64352  1.0000
  O   O49       1.0  0.39052  0.27983  0.52768  1.0000
  O   O50       1.0  0.60948  0.27983  0.97232  1.0000
  O   O51       1.0  0.60948  0.72017  0.47232  1.0000
  O   O52       1.0  0.39052  0.72017  0.02768  1.0000
  O   O53       1.0  0.29527  0.31222  0.53338  1.0000
  O   O54       1.0  0.70473  0.31222  0.96662  1.0000
  O   O55       1.0  0.70473  0.68778  0.46662  1.0000
  O   O56       1.0  0.29527  0.68778  0.03338  1.0000
  O   O57       1.0  0.50180  0.76720  0.09911  1.0000
  O   O58       1.0  0.49820  0.76720  0.40089  1.0000
  O   O59       1.0  0.49820  0.23280  0.90089  1.0000
  O   O60       1.0  0.50180  0.23280  0.59911  1.0000
  O   O61       1.0  0.50847  0.85002  0.03005  1.0000
  O   O62       1.0  0.49153  0.85002  0.46995  1.0000
  O   O63       1.0  0.49153  0.14998  0.96995  1.0000
  O   O64       1.0  0.50847  0.14998  0.53005  1.0000
