data_image0
_chemical_formula_structural       Co4O4C4Co4O4C4O4C4H12O4C8H8C4H8C4H4C8H12C4H12O16C12H12C8H8C4H8C4H4C8H12C4H12O8C8H12
_chemical_formula_sum              "Co8 O40 C88 H124"
_cell_length_a       13.395
_cell_length_b       13.5119
_cell_length_c       17.62
_cell_angle_alpha    90
_cell_angle_beta     90
_cell_angle_gamma    90

_space_group_name_H-M_alt    "P 1"
_space_group_IT_number       1

loop_
  _space_group_symop_operation_xyz
  'x, y, z'

loop_
  _atom_site_type_symbol
  _atom_site_label
  _atom_site_symmetry_multiplicity
  _atom_site_fract_x
  _atom_site_fract_y
  _atom_site_fract_z
  _atom_site_occupancy
  Co  Co1       1.0  0.23366  0.48936  0.42449  1.0000
  Co  Co2       1.0  0.26634  0.51064  0.92449  1.0000
  Co  Co3       1.0  0.76634  0.98936  0.07551  1.0000
  Co  Co4       1.0  0.73366  0.01064  0.57551  1.0000
  O   O1        1.0  0.12640  0.55930  0.58900  1.0000
  O   O2        1.0  0.37360  0.44070  0.08900  1.0000
  O   O3        1.0  0.87360  0.05930  0.91100  1.0000
  O   O4        1.0  0.62640  0.94070  0.41100  1.0000
  C   C1        1.0  0.06840  0.55750  0.53030  1.0000
  C   C2        1.0  0.43160  0.44250  0.03030  1.0000
  C   C3        1.0  0.93160  0.05750  0.96970  1.0000
  C   C4        1.0  0.56840  0.94250  0.46970  1.0000
  Co  Co5       1.0  0.26945  0.50904  0.58330  1.0000
  Co  Co6       1.0  0.23055  0.49096  0.08330  1.0000
  Co  Co7       1.0  0.73055  0.00904  0.91670  1.0000
  Co  Co8       1.0  0.76945  0.99096  0.41670  1.0000
  O   O5        1.0  0.09820  0.53100  0.46720  1.0000
  O   O6        1.0  0.40180  0.46900  0.96720  1.0000
  O   O7        1.0  0.90180  0.03100  0.03280  1.0000
  O   O8        1.0  0.59820  0.96900  0.53280  1.0000
  C   C5        1.0  0.80450  0.82010  0.51800  1.0000
  C   C6        1.0  0.69550  0.17990  0.01800  1.0000
  C   C7        1.0  0.19550  0.32010  0.98200  1.0000
  C   C8        1.0  0.30450  0.67990  0.48200  1.0000
  O   O9        1.0  0.77480  0.86460  0.57560  1.0000
  O   O10       1.0  0.72520  0.13540  0.07560  1.0000
  O   O11       1.0  0.22520  0.36460  0.92440  1.0000
  O   O12       1.0  0.27480  0.63540  0.42440  1.0000
  C   C9        1.0  0.91930  0.52310  0.60790  1.0000
  C   C10       1.0  0.58070  0.47690  0.10790  1.0000
  C   C11       1.0  0.08070  0.02310  0.89210  1.0000
  C   C12       1.0  0.41930  0.97690  0.39210  1.0000
  H   H1        1.0  0.92110  0.45390  0.59540  1.0000
  H   H2        1.0  0.57890  0.54610  0.09540  1.0000
  H   H3        1.0  0.07890  0.95390  0.90460  1.0000
  H   H4        1.0  0.42110  0.04610  0.40460  1.0000
  H   H5        1.0  0.85160  0.54280  0.61740  1.0000
  H   H6        1.0  0.64840  0.45720  0.11740  1.0000
  H   H7        1.0  0.14840  0.04280  0.88260  1.0000
  H   H8        1.0  0.35160  0.95720  0.38260  1.0000
  H   H9        1.0  0.95880  0.53470  0.65250  1.0000
  H   H10       1.0  0.54120  0.46530  0.15250  1.0000
  H   H11       1.0  0.04120  0.03470  0.84750  1.0000
  H   H12       1.0  0.45880  0.96530  0.34750  1.0000
  O   O13       1.0  0.81190  0.85330  0.45130  1.0000
  O   O14       1.0  0.68810  0.14670  0.95130  1.0000
  O   O15       1.0  0.18810  0.35330  0.04870  1.0000
  O   O16       1.0  0.31190  0.64670  0.54870  1.0000
  C   C13       1.0  0.96160  0.58350  0.54160  1.0000
  C   C14       1.0  0.53840  0.41650  0.04160  1.0000
  C   C15       1.0  0.03840  0.08350  0.95840  1.0000
  C   C16       1.0  0.46160  0.91650  0.45840  1.0000
  C   C17       1.0  0.90060  0.56270  0.47190  1.0000
  C   C18       1.0  0.59940  0.43730  0.97190  1.0000
  C   C19       1.0  0.09940  0.06270  0.02810  1.0000
  C   C20       1.0  0.40060  0.93730  0.52810  1.0000
  H   H13       1.0  0.86790  0.49890  0.47670  1.0000
  H   H14       1.0  0.63210  0.50110  0.97670  1.0000
  H   H15       1.0  0.13210  0.99890  0.02330  1.0000
  H   H16       1.0  0.36790  0.00110  0.52330  1.0000
  H   H17       1.0  0.94350  0.56090  0.42760  1.0000
  H   H18       1.0  0.55650  0.43910  0.92760  1.0000
  H   H19       1.0  0.05650  0.06090  0.07240  1.0000
  H   H20       1.0  0.44350  0.93910  0.57240  1.0000
  C   C21       1.0  0.82230  0.64440  0.46300  1.0000
  C   C22       1.0  0.67770  0.35560  0.96300  1.0000
  C   C23       1.0  0.17770  0.14440  0.03700  1.0000
  C   C24       1.0  0.32230  0.85560  0.53700  1.0000
  H   H21       1.0  0.83270  0.68040  0.41600  1.0000
  H   H22       1.0  0.66730  0.31960  0.91600  1.0000
  H   H23       1.0  0.16730  0.18040  0.08400  1.0000
  H   H24       1.0  0.33270  0.81960  0.58400  1.0000
  H   H25       1.0  0.75560  0.61660  0.46270  1.0000
  H   H26       1.0  0.74440  0.38340  0.96270  1.0000
  H   H27       1.0  0.24440  0.11660  0.03730  1.0000
  H   H28       1.0  0.25560  0.88340  0.53730  1.0000
  C   C25       1.0  0.83640  0.71200  0.53070  1.0000
  C   C26       1.0  0.66360  0.28800  0.03070  1.0000
  C   C27       1.0  0.16360  0.21200  0.96930  1.0000
  C   C28       1.0  0.33640  0.78800  0.46930  1.0000
  H   H29       1.0  0.79530  0.68570  0.57200  1.0000
  H   H30       1.0  0.70470  0.31430  0.07200  1.0000
  H   H31       1.0  0.20470  0.18570  0.92800  1.0000
  H   H32       1.0  0.29530  0.81430  0.42800  1.0000
  C   C29       1.0  0.94770  0.69960  0.55490  1.0000
  C   C30       1.0  0.55230  0.30040  0.05490  1.0000
  C   C31       1.0  0.05230  0.19960  0.94510  1.0000
  C   C32       1.0  0.44770  0.80040  0.44510  1.0000
  C   C33       1.0  0.96810  0.73670  0.63650  1.0000
  C   C34       1.0  0.53190  0.26330  0.13650  1.0000
  C   C35       1.0  0.03190  0.23670  0.86350  1.0000
  C   C36       1.0  0.46810  0.76330  0.36350  1.0000
  H   H33       1.0  0.03880  0.74120  0.64460  1.0000
  H   H34       1.0  0.46120  0.25880  0.14460  1.0000
  H   H35       1.0  0.96120  0.24120  0.85540  1.0000
  H   H36       1.0  0.53880  0.75880  0.35540  1.0000
  H   H37       1.0  0.93970  0.69120  0.67230  1.0000
  H   H38       1.0  0.56030  0.30880  0.17230  1.0000
  H   H39       1.0  0.06030  0.19120  0.82770  1.0000
  H   H40       1.0  0.43970  0.80880  0.32770  1.0000
  H   H41       1.0  0.93840  0.80080  0.64320  1.0000
  H   H42       1.0  0.56160  0.19920  0.14320  1.0000
  H   H43       1.0  0.06160  0.30080  0.85680  1.0000
  H   H44       1.0  0.43840  0.69920  0.35680  1.0000
  C   C37       1.0  0.01850  0.75590  0.50520  1.0000
  C   C38       1.0  0.48150  0.24410  0.00520  1.0000
  C   C39       1.0  0.98150  0.25590  0.99480  1.0000
  C   C40       1.0  0.51850  0.74410  0.49480  1.0000
  H   H45       1.0  0.08510  0.74950  0.52470  1.0000
  H   H46       1.0  0.41490  0.25050  0.02470  1.0000
  H   H47       1.0  0.91490  0.24950  0.97530  1.0000
  H   H48       1.0  0.58510  0.75050  0.47530  1.0000
  H   H49       1.0  0.99980  0.82450  0.50440  1.0000
  H   H50       1.0  0.50020  0.17550  0.00440  1.0000
  H   H51       1.0  0.00020  0.32450  0.99560  1.0000
  H   H52       1.0  0.49980  0.67550  0.49560  1.0000
  H   H53       1.0  0.01590  0.72980  0.45450  1.0000
  H   H54       1.0  0.48410  0.27020  0.95450  1.0000
  H   H55       1.0  0.98410  0.22980  0.04550  1.0000
  H   H56       1.0  0.51590  0.77020  0.54550  1.0000
  O   O17       1.0  0.70380  0.15280  0.54450  1.0000
  O   O18       1.0  0.79620  0.84720  0.04450  1.0000
  O   O19       1.0  0.29620  0.65280  0.95550  1.0000
  O   O20       1.0  0.20380  0.34720  0.45550  1.0000
  O   O21       1.0  0.71740  0.13270  0.42080  1.0000
  O   O22       1.0  0.78260  0.86730  0.92080  1.0000
  O   O23       1.0  0.28260  0.63270  0.07920  1.0000
  O   O24       1.0  0.21740  0.36730  0.57920  1.0000
  O   O25       1.0  0.40450  0.45970  0.54660  1.0000
  O   O26       1.0  0.09550  0.54030  0.04660  1.0000
  O   O27       1.0  0.59550  0.95970  0.95340  1.0000
  O   O28       1.0  0.90450  0.04030  0.45340  1.0000
  O   O29       1.0  0.37930  0.45250  0.42160  1.0000
  O   O30       1.0  0.12070  0.54750  0.92160  1.0000
  O   O31       1.0  0.62070  0.95250  0.07840  1.0000
  O   O32       1.0  0.87930  0.04750  0.57840  1.0000
  C   C41       1.0  0.69810  0.18600  0.47810  1.0000
  C   C42       1.0  0.80190  0.81400  0.97810  1.0000
  C   C43       1.0  0.30190  0.68600  0.02190  1.0000
  C   C44       1.0  0.19810  0.31400  0.52190  1.0000
  C   C45       1.0  0.43170  0.44800  0.47800  1.0000
  C   C46       1.0  0.06830  0.55200  0.97800  1.0000
  C   C47       1.0  0.56830  0.94800  0.02200  1.0000
  C   C48       1.0  0.93170  0.05200  0.52200  1.0000
  C   C49       1.0  0.73780  0.33380  0.40280  1.0000
  C   C50       1.0  0.76220  0.66620  0.90280  1.0000
  C   C51       1.0  0.26220  0.83380  0.09720  1.0000
  C   C52       1.0  0.23780  0.16620  0.59720  1.0000
  H   H57       1.0  0.80560  0.33680  0.42020  1.0000
  H   H58       1.0  0.69440  0.66320  0.92020  1.0000
  H   H59       1.0  0.19440  0.83680  0.07980  1.0000
  H   H60       1.0  0.30560  0.16320  0.57980  1.0000
  H   H61       1.0  0.71550  0.39910  0.38960  1.0000
  H   H62       1.0  0.78450  0.60090  0.88960  1.0000
  H   H63       1.0  0.28450  0.89910  0.11040  1.0000
  H   H64       1.0  0.21550  0.10090  0.61040  1.0000
  H   H65       1.0  0.73390  0.29170  0.35900  1.0000
  H   H66       1.0  0.76610  0.70830  0.85900  1.0000
  H   H67       1.0  0.26610  0.79170  0.14100  1.0000
  H   H68       1.0  0.23390  0.20830  0.64100  1.0000
  C   C53       1.0  0.67150  0.29210  0.46580  1.0000
  C   C54       1.0  0.82850  0.70790  0.96580  1.0000
  C   C55       1.0  0.32850  0.79210  0.03420  1.0000
  C   C56       1.0  0.17150  0.20790  0.53420  1.0000
  C   C57       1.0  0.68430  0.35560  0.53870  1.0000
  C   C58       1.0  0.81570  0.64440  0.03870  1.0000
  C   C59       1.0  0.31570  0.85560  0.96130  1.0000
  C   C60       1.0  0.18430  0.14440  0.46130  1.0000
  H   H69       1.0  0.66830  0.31660  0.58330  1.0000
  H   H70       1.0  0.83170  0.68340  0.08330  1.0000
  H   H71       1.0  0.33170  0.81660  0.91670  1.0000
  H   H72       1.0  0.16830  0.18340  0.41670  1.0000
  H   H73       1.0  0.75270  0.37850  0.54310  1.0000
  H   H74       1.0  0.74730  0.62150  0.04310  1.0000
  H   H75       1.0  0.24730  0.87850  0.95690  1.0000
  H   H76       1.0  0.25270  0.12150  0.45690  1.0000
  C   C61       1.0  0.61530  0.44090  0.53220  1.0000
  C   C62       1.0  0.88470  0.55910  0.03220  1.0000
  C   C63       1.0  0.38470  0.94090  0.96780  1.0000
  C   C64       1.0  0.11530  0.05910  0.46780  1.0000
  H   H77       1.0  0.65250  0.50120  0.52260  1.0000
  H   H78       1.0  0.84750  0.49880  0.02260  1.0000
  H   H79       1.0  0.34750  0.00120  0.97740  1.0000
  H   H80       1.0  0.15250  0.99880  0.47740  1.0000
  H   H81       1.0  0.57780  0.44920  0.57890  1.0000
  H   H82       1.0  0.92220  0.55080  0.07890  1.0000
  H   H83       1.0  0.42220  0.94920  0.92110  1.0000
  H   H84       1.0  0.07780  0.05080  0.42110  1.0000
  C   C65       1.0  0.54310  0.41870  0.46480  1.0000
  C   C66       1.0  0.95690  0.58130  0.96480  1.0000
  C   C67       1.0  0.45690  0.91870  0.03520  1.0000
  C   C68       1.0  0.04310  0.08130  0.53520  1.0000
  H   H85       1.0  0.56730  0.45500  0.42030  1.0000
  H   H86       1.0  0.93270  0.54500  0.92030  1.0000
  H   H87       1.0  0.43270  0.95500  0.07970  1.0000
  H   H88       1.0  0.06730  0.04500  0.57970  1.0000
  C   C69       1.0  0.55760  0.30620  0.44930  1.0000
  C   C70       1.0  0.94240  0.69380  0.94930  1.0000
  C   C71       1.0  0.44240  0.80620  0.05070  1.0000
  C   C72       1.0  0.05760  0.19380  0.55070  1.0000
  C   C73       1.0  0.53100  0.28310  0.36950  1.0000
  C   C74       1.0  0.96900  0.71690  0.86950  1.0000
  C   C75       1.0  0.46900  0.78310  0.13050  1.0000
  C   C76       1.0  0.03100  0.21690  0.63050  1.0000
  H   H89       1.0  0.46570  0.30870  0.35860  1.0000
  H   H90       1.0  0.03430  0.69130  0.85860  1.0000
  H   H91       1.0  0.53430  0.80870  0.14140  1.0000
  H   H92       1.0  0.96570  0.19130  0.64140  1.0000
  H   H93       1.0  0.53120  0.21270  0.36230  1.0000
  H   H94       1.0  0.96880  0.78730  0.86230  1.0000
  H   H95       1.0  0.46880  0.71270  0.13770  1.0000
  H   H96       1.0  0.03120  0.28730  0.63770  1.0000
  H   H97       1.0  0.57880  0.31300  0.33600  1.0000
  H   H98       1.0  0.92120  0.68700  0.83600  1.0000
  H   H99       1.0  0.42120  0.81300  0.16400  1.0000
  H   H100      1.0  0.07880  0.18700  0.66400  1.0000
  C   C77       1.0  0.49470  0.24290  0.50260  1.0000
  C   C78       1.0  0.00530  0.75710  0.00260  1.0000
  C   C79       1.0  0.50530  0.74290  0.99740  1.0000
  C   C80       1.0  0.99470  0.25710  0.49740  1.0000
  H   H101      1.0  0.42520  0.25690  0.49440  1.0000
  H   H102      1.0  0.07480  0.74310  0.99440  1.0000
  H   H103      1.0  0.57480  0.75690  0.00560  1.0000
  H   H104      1.0  0.92520  0.24310  0.50560  1.0000
  H   H105      1.0  0.51190  0.25770  0.55420  1.0000
  H   H106      1.0  0.98810  0.74230  0.05420  1.0000
  H   H107      1.0  0.48810  0.75770  0.94580  1.0000
  H   H108      1.0  0.01190  0.24230  0.44580  1.0000
  H   H109      1.0  0.50730  0.17410  0.49260  1.0000
  H   H110      1.0  0.99270  0.82590  0.99260  1.0000
  H   H111      1.0  0.49270  0.67410  0.00740  1.0000
  H   H112      1.0  0.00730  0.32590  0.50740  1.0000
  O   O33       1.0  0.31340  0.52260  0.69270  1.0000
  O   O34       1.0  0.18660  0.47740  0.19270  1.0000
  O   O35       1.0  0.68660  0.02260  0.80730  1.0000
  O   O36       1.0  0.81340  0.97740  0.30730  1.0000
  O   O37       1.0  0.30950  0.52500  0.81630  1.0000
  O   O38       1.0  0.19050  0.47500  0.31630  1.0000
  O   O39       1.0  0.69050  0.02500  0.68370  1.0000
  O   O40       1.0  0.80950  0.97500  0.18370  1.0000
  C   C81       1.0  0.26900  0.50360  0.75500  1.0000
  C   C82       1.0  0.23100  0.49640  0.25500  1.0000
  C   C83       1.0  0.73100  0.00360  0.74500  1.0000
  C   C84       1.0  0.76900  0.99640  0.24500  1.0000
  C   C85       1.0  0.16960  0.45510  0.75340  1.0000
  C   C86       1.0  0.33040  0.54490  0.25340  1.0000
  C   C87       1.0  0.83040  0.95510  0.74660  1.0000
  C   C88       1.0  0.66960  0.04490  0.24660  1.0000
  H   H113      1.0  0.17110  0.39660  0.78420  1.0000
  H   H114      1.0  0.32890  0.60340  0.28420  1.0000
  H   H115      1.0  0.82890  0.89660  0.71580  1.0000
  H   H116      1.0  0.67110  0.10340  0.21580  1.0000
  H   H117      1.0  0.15320  0.43750  0.70210  1.0000
  H   H118      1.0  0.34680  0.56250  0.20210  1.0000
  H   H119      1.0  0.84680  0.93750  0.79790  1.0000
  H   H120      1.0  0.65320  0.06250  0.29790  1.0000
  H   H121      1.0  0.12020  0.49990  0.77270  1.0000
  H   H122      1.0  0.37980  0.50010  0.27270  1.0000
  H   H123      1.0  0.87980  0.99990  0.72730  1.0000
  H   H124      1.0  0.62020  0.00010  0.22730  1.0000
