data_image0
_chemical_formula_structural       Cu8O40C12H12C12H12C4H12C8H12C4H12
_chemical_formula_sum              "Cu8 O40 C40 H60"
_cell_length_a       16.6213
_cell_length_b       17.8406
_cell_length_c       11.3924
_cell_angle_alpha    90
_cell_angle_beta     96.223
_cell_angle_gamma    90

_space_group_name_H-M_alt    "P 1"
_space_group_IT_number       1

loop_
  _space_group_symop_operation_xyz
  'x, y, z'

loop_
  _atom_site_type_symbol
  _atom_site_label
  _atom_site_symmetry_multiplicity
  _atom_site_fract_x
  _atom_site_fract_y
  _atom_site_fract_z
  _atom_site_occupancy
  Cu  Cu1       1.0  0.06829  0.53689  0.49568  1.0000
  Cu  Cu2       1.0  0.93171  0.03689  0.00432  1.0000
  Cu  Cu3       1.0  0.93171  0.46311  0.50432  1.0000
  Cu  Cu4       1.0  0.06829  0.96311  0.99568  1.0000
  Cu  Cu5       1.0  0.43011  0.53610  0.48761  1.0000
  Cu  Cu6       1.0  0.56989  0.03610  0.01239  1.0000
  Cu  Cu7       1.0  0.56989  0.46390  0.51239  1.0000
  Cu  Cu8       1.0  0.43011  0.96390  0.98761  1.0000
  O   O1        1.0  0.18160  0.58510  0.47200  1.0000
  O   O2        1.0  0.81840  0.08510  0.02800  1.0000
  O   O3        1.0  0.81840  0.41490  0.52800  1.0000
  O   O4        1.0  0.18160  0.91490  0.97200  1.0000
  O   O5        1.0  0.31360  0.58390  0.46670  1.0000
  O   O6        1.0  0.68640  0.08390  0.03330  1.0000
  O   O7        1.0  0.68640  0.41610  0.53330  1.0000
  O   O8        1.0  0.31360  0.91610  0.96670  1.0000
  O   O9        1.0  0.11070  0.43370  0.50210  1.0000
  O   O10       1.0  0.88930  0.93370  0.99790  1.0000
  O   O11       1.0  0.88930  0.56630  0.49790  1.0000
  O   O12       1.0  0.11070  0.06630  0.00210  1.0000
  O   O13       1.0  0.45630  0.54980  0.65860  1.0000
  O   O14       1.0  0.54370  0.04980  0.84140  1.0000
  O   O15       1.0  0.54370  0.45020  0.34140  1.0000
  O   O16       1.0  0.45630  0.95020  0.15860  1.0000
  O   O17       1.0  0.60910  0.56670  0.49430  1.0000
  O   O18       1.0  0.39090  0.06670  0.00570  1.0000
  O   O19       1.0  0.39090  0.43330  0.50570  1.0000
  O   O20       1.0  0.60910  0.93330  0.99430  1.0000
  O   O21       1.0  0.57270  0.48560  0.68280  1.0000
  O   O22       1.0  0.42730  0.98560  0.81720  1.0000
  O   O23       1.0  0.42730  0.51440  0.31720  1.0000
  O   O24       1.0  0.57270  0.01440  0.18280  1.0000
  O   O25       1.0  0.95760  0.47500  0.67630  1.0000
  O   O26       1.0  0.04240  0.97500  0.82370  1.0000
  O   O27       1.0  0.04240  0.52500  0.32370  1.0000
  O   O28       1.0  0.95760  0.02500  0.17630  1.0000
  O   O29       1.0  0.07170  0.54030  0.66840  1.0000
  O   O30       1.0  0.92830  0.04030  0.83160  1.0000
  O   O31       1.0  0.92830  0.45970  0.33160  1.0000
  O   O32       1.0  0.07170  0.95970  0.16840  1.0000
  O   O33       1.0  0.99620  0.36970  0.51050  1.0000
  O   O34       1.0  0.00380  0.86970  0.98950  1.0000
  O   O35       1.0  0.00380  0.63030  0.48950  1.0000
  O   O36       1.0  0.99620  0.13030  0.01050  1.0000
  O   O37       1.0  0.49130  0.62850  0.46560  1.0000
  O   O38       1.0  0.50870  0.12850  0.03440  1.0000
  O   O39       1.0  0.50870  0.37150  0.53440  1.0000
  O   O40       1.0  0.49130  0.87150  0.96560  1.0000
  C   C1        1.0  0.25120  0.56730  0.51540  1.0000
  C   C2        1.0  0.74880  0.06730  0.98460  1.0000
  C   C3        1.0  0.74880  0.43270  0.48460  1.0000
  C   C4        1.0  0.25120  0.93270  0.01540  1.0000
  C   C5        1.0  0.01840  0.50880  0.72250  1.0000
  C   C6        1.0  0.98160  0.00880  0.77750  1.0000
  C   C7        1.0  0.98160  0.49120  0.27750  1.0000
  C   C8        1.0  0.01840  0.99120  0.22250  1.0000
  C   C9        1.0  0.52990  0.54690  0.84930  1.0000
  C   C10       1.0  0.47010  0.04690  0.65070  1.0000
  C   C11       1.0  0.47010  0.45310  0.15070  1.0000
  C   C12       1.0  0.52990  0.95310  0.34930  1.0000
  H   H1        1.0  0.56550  0.58930  0.86020  1.0000
  H   H2        1.0  0.43450  0.08930  0.63980  1.0000
  H   H3        1.0  0.43450  0.41070  0.13980  1.0000
  H   H4        1.0  0.56550  0.91070  0.36020  1.0000
  H   H5        1.0  0.55290  0.50540  0.89480  1.0000
  H   H6        1.0  0.44710  0.00540  0.60520  1.0000
  H   H7        1.0  0.44710  0.49460  0.10520  1.0000
  H   H8        1.0  0.55290  0.99460  0.39480  1.0000
  H   H9        1.0  0.47840  0.55950  0.87500  1.0000
  H   H10       1.0  0.52160  0.05950  0.62500  1.0000
  H   H11       1.0  0.52160  0.44050  0.12500  1.0000
  H   H12       1.0  0.47840  0.94050  0.37500  1.0000
  C   C13       1.0  0.51840  0.52570  0.71960  1.0000
  C   C14       1.0  0.48160  0.02570  0.78040  1.0000
  C   C15       1.0  0.48160  0.47430  0.28040  1.0000
  C   C16       1.0  0.51840  0.97430  0.21960  1.0000
  C   C17       1.0  0.56710  0.62570  0.47700  1.0000
  C   C18       1.0  0.43290  0.12570  0.02300  1.0000
  C   C19       1.0  0.43290  0.37430  0.52300  1.0000
  C   C20       1.0  0.56710  0.87430  0.97700  1.0000
  C   C21       1.0  0.26190  0.52570  0.63050  1.0000
  C   C22       1.0  0.73810  0.02570  0.86950  1.0000
  C   C23       1.0  0.73810  0.47430  0.36950  1.0000
  C   C24       1.0  0.26190  0.97430  0.13050  1.0000
  H   H13       1.0  0.21840  0.53810  0.67590  1.0000
  H   H14       1.0  0.78160  0.03810  0.82410  1.0000
  H   H15       1.0  0.78160  0.46190  0.32410  1.0000
  H   H16       1.0  0.21840  0.96190  0.17590  1.0000
  H   H17       1.0  0.31250  0.53970  0.67370  1.0000
  H   H18       1.0  0.68750  0.03970  0.82630  1.0000
  H   H19       1.0  0.68750  0.46030  0.32630  1.0000
  H   H20       1.0  0.31250  0.96030  0.17370  1.0000
  H   H21       1.0  0.26170  0.47280  0.61550  1.0000
  H   H22       1.0  0.73830  0.97280  0.88450  1.0000
  H   H23       1.0  0.73830  0.52720  0.38450  1.0000
  H   H24       1.0  0.26170  0.02720  0.11550  1.0000
  C   C25       1.0  0.02830  0.51430  0.85600  1.0000
  C   C26       1.0  0.97170  0.01430  0.64400  1.0000
  C   C27       1.0  0.97170  0.48570  0.14400  1.0000
  C   C28       1.0  0.02830  0.98570  0.35600  1.0000
  H   H25       1.0  0.98380  0.54190  0.88150  1.0000
  H   H26       1.0  0.01620  0.04190  0.61850  1.0000
  H   H27       1.0  0.01620  0.45810  0.11850  1.0000
  H   H28       1.0  0.98380  0.95810  0.38150  1.0000
  H   H29       1.0  0.07810  0.53970  0.88160  1.0000
  H   H30       1.0  0.92190  0.03970  0.61840  1.0000
  H   H31       1.0  0.92190  0.46030  0.11840  1.0000
  H   H32       1.0  0.07810  0.96030  0.38160  1.0000
  H   H33       1.0  0.02950  0.46490  0.88930  1.0000
  H   H34       1.0  0.97050  0.96490  0.61070  1.0000
  H   H35       1.0  0.97050  0.53510  0.11070  1.0000
  H   H36       1.0  0.02950  0.03510  0.38930  1.0000
  C   C29       1.0  0.07120  0.37480  0.50640  1.0000
  C   C30       1.0  0.92880  0.87480  0.99360  1.0000
  C   C31       1.0  0.92880  0.62520  0.49360  1.0000
  C   C32       1.0  0.07120  0.12520  0.00640  1.0000
  C   C33       1.0  0.61330  0.69900  0.47140  1.0000
  C   C34       1.0  0.38670  0.19900  0.02860  1.0000
  C   C35       1.0  0.38670  0.30100  0.52860  1.0000
  C   C36       1.0  0.61330  0.80100  0.97140  1.0000
  H   H37       1.0  0.64410  0.70820  0.54630  1.0000
  H   H38       1.0  0.35590  0.20820  0.95370  1.0000
  H   H39       1.0  0.35590  0.29180  0.45370  1.0000
  H   H40       1.0  0.64410  0.79180  0.04630  1.0000
  H   H41       1.0  0.57570  0.73930  0.45350  1.0000
  H   H42       1.0  0.42430  0.23930  0.04650  1.0000
  H   H43       1.0  0.42430  0.26070  0.54650  1.0000
  H   H44       1.0  0.57570  0.76070  0.95350  1.0000
  H   H45       1.0  0.64920  0.69570  0.41100  1.0000
  H   H46       1.0  0.35080  0.19570  0.08900  1.0000
  H   H47       1.0  0.35080  0.30430  0.58900  1.0000
  H   H48       1.0  0.64920  0.80430  0.91100  1.0000
  C   C37       1.0  0.11940  0.30150  0.51300  1.0000
  C   C38       1.0  0.88060  0.80150  0.98700  1.0000
  C   C39       1.0  0.88060  0.69850  0.48700  1.0000
  C   C40       1.0  0.11940  0.19850  0.01300  1.0000
  H   H49       1.0  0.14020  0.29270  0.43880  1.0000
  H   H50       1.0  0.85980  0.79270  0.06120  1.0000
  H   H51       1.0  0.85980  0.70730  0.56120  1.0000
  H   H52       1.0  0.14020  0.20730  0.93880  1.0000
  H   H53       1.0  0.08480  0.26080  0.52990  1.0000
  H   H54       1.0  0.91520  0.76080  0.97010  1.0000
  H   H55       1.0  0.91520  0.73920  0.47010  1.0000
  H   H56       1.0  0.08480  0.23920  0.02990  1.0000
  H   H57       1.0  0.16360  0.30520  0.57440  1.0000
  H   H58       1.0  0.83640  0.80520  0.92560  1.0000
  H   H59       1.0  0.83640  0.69480  0.42560  1.0000
  H   H60       1.0  0.16360  0.19480  0.07440  1.0000
