data_image0
_chemical_formula_structural       Zn6O24N8C24H12C4H4
_chemical_formula_sum              "Zn6 O24 N8 C28 H16"
_cell_length_a       8.5021
_cell_length_b       10.5201
_cell_length_c       15.6648
_cell_angle_alpha    90
_cell_angle_beta     102.507
_cell_angle_gamma    90

_space_group_name_H-M_alt    "P 1"
_space_group_IT_number       1

loop_
  _space_group_symop_operation_xyz
  'x, y, z'

loop_
  _atom_site_type_symbol
  _atom_site_label
  _atom_site_symmetry_multiplicity
  _atom_site_fract_x
  _atom_site_fract_y
  _atom_site_fract_z
  _atom_site_occupancy
  Zn  Zn1       1.0  0.50000  0.50000  0.00000  1.0000
  Zn  Zn2       1.0  0.50000  0.00000  0.50000  1.0000
  Zn  Zn3       1.0  0.11582  0.75581  0.17261  1.0000
  Zn  Zn4       1.0  0.88418  0.25581  0.32739  1.0000
  Zn  Zn5       1.0  0.88418  0.24419  0.82739  1.0000
  Zn  Zn6       1.0  0.11582  0.74419  0.67261  1.0000
  O   O1        1.0  0.67120  0.63390  0.03958  1.0000
  O   O2        1.0  0.32880  0.13390  0.46042  1.0000
  O   O3        1.0  0.32880  0.36610  0.96042  1.0000
  O   O4        1.0  0.67120  0.86610  0.53958  1.0000
  O   O5        1.0  0.89560  0.74100  0.07729  1.0000
  O   O6        1.0  0.10440  0.24100  0.42271  1.0000
  O   O7        1.0  0.10440  0.25900  0.92271  1.0000
  O   O8        1.0  0.89560  0.75900  0.57729  1.0000
  O   O9        1.0  0.55960  0.39820  0.11486  1.0000
  O   O10       1.0  0.44040  0.89820  0.38514  1.0000
  O   O11       1.0  0.44040  0.60180  0.88514  1.0000
  O   O12       1.0  0.55960  0.10180  0.61486  1.0000
  O   O13       1.0  0.67580  0.27680  0.22409  1.0000
  O   O14       1.0  0.32420  0.77680  0.27591  1.0000
  O   O15       1.0  0.32420  0.72320  0.77591  1.0000
  O   O16       1.0  0.67580  0.22320  0.72409  1.0000
  O   O17       1.0  0.66670  0.39270  0.94200  1.0000
  O   O18       1.0  0.33330  0.89270  0.55800  1.0000
  O   O19       1.0  0.33330  0.60730  0.05800  1.0000
  O   O20       1.0  0.66670  0.10730  0.44200  1.0000
  O   O21       1.0  0.76630  0.20420  0.91930  1.0000
  O   O22       1.0  0.23370  0.70420  0.58070  1.0000
  O   O23       1.0  0.23370  0.79580  0.08070  1.0000
  O   O24       1.0  0.76630  0.29580  0.41930  1.0000
  N   N1        1.0  0.02450  0.59230  0.21050  1.0000
  N   N2        1.0  0.97550  0.09230  0.28950  1.0000
  N   N3        1.0  0.97550  0.40770  0.78950  1.0000
  N   N4        1.0  0.02450  0.90770  0.71050  1.0000
  N   N5        1.0  0.93950  0.41830  0.26748  1.0000
  N   N6        1.0  0.06050  0.91830  0.23252  1.0000
  N   N7        1.0  0.06050  0.58170  0.73252  1.0000
  N   N8        1.0  0.93950  0.08170  0.76748  1.0000
  C   C1        1.0  0.80790  0.64870  0.08780  1.0000
  C   C2        1.0  0.19210  0.14870  0.41220  1.0000
  C   C3        1.0  0.19210  0.35130  0.91220  1.0000
  C   C4        1.0  0.80790  0.85130  0.58780  1.0000
  C   C5        1.0  0.67540  0.37180  0.17570  1.0000
  C   C6        1.0  0.32460  0.87180  0.32430  1.0000
  C   C7        1.0  0.32460  0.62820  0.82430  1.0000
  C   C8        1.0  0.67540  0.12820  0.67570  1.0000
  C   C9        1.0  0.82240  0.45330  0.19620  1.0000
  C   C10       1.0  0.17760  0.95330  0.30380  1.0000
  C   C11       1.0  0.17760  0.54670  0.80380  1.0000
  C   C12       1.0  0.82240  0.04670  0.69620  1.0000
  C   C13       1.0  0.87420  0.56140  0.16090  1.0000
  C   C14       1.0  0.12580  0.06140  0.33910  1.0000
  C   C15       1.0  0.12580  0.43860  0.83910  1.0000
  C   C16       1.0  0.87420  0.93860  0.66090  1.0000
  C   C17       1.0  0.05710  0.50470  0.27370  1.0000
  C   C18       1.0  0.94290  0.00470  0.22630  1.0000
  C   C19       1.0  0.94290  0.49530  0.72630  1.0000
  C   C20       1.0  0.05710  0.99530  0.77370  1.0000
  C   C21       1.0  0.20840  0.50410  0.34220  1.0000
  C   C22       1.0  0.79160  0.00410  0.15780  1.0000
  C   C23       1.0  0.79160  0.49590  0.65780  1.0000
  C   C24       1.0  0.20840  0.99590  0.84220  1.0000
  H   H1        1.0  0.28410  0.56240  0.32630  1.0000
  H   H2        1.0  0.71590  0.06240  0.17370  1.0000
  H   H3        1.0  0.71590  0.43760  0.67370  1.0000
  H   H4        1.0  0.28410  0.93760  0.82630  1.0000
  H   H5        1.0  0.25350  0.42000  0.34760  1.0000
  H   H6        1.0  0.74650  0.92000  0.15240  1.0000
  H   H7        1.0  0.74650  0.58000  0.65240  1.0000
  H   H8        1.0  0.25350  0.08000  0.84760  1.0000
  H   H9        1.0  0.18540  0.52940  0.39710  1.0000
  H   H10       1.0  0.81460  0.02940  0.10290  1.0000
  H   H11       1.0  0.81460  0.47060  0.60290  1.0000
  H   H12       1.0  0.18540  0.97060  0.89710  1.0000
  C   C25       1.0  0.68540  0.27920  0.95510  1.0000
  C   C26       1.0  0.31460  0.77920  0.54490  1.0000
  C   C27       1.0  0.31460  0.72080  0.04490  1.0000
  C   C28       1.0  0.68540  0.22080  0.45510  1.0000
  H   H13       1.0  0.63400  0.24400  0.99630  1.0000
  H   H14       1.0  0.36600  0.74400  0.50370  1.0000
  H   H15       1.0  0.36600  0.75600  0.00370  1.0000
  H   H16       1.0  0.63400  0.25600  0.49630  1.0000
