data_image0
_chemical_formula_structural       In4O8C16H8C8O8C8H8N8C16H8C8O8C8O8
_chemical_formula_sum              "In4 O32 C64 H24 N8"
_cell_length_a       9.9792
_cell_length_b       9.9792
_cell_length_c       43.855
_cell_angle_alpha    90
_cell_angle_beta     90
_cell_angle_gamma    90

_space_group_name_H-M_alt    "P 1"
_space_group_IT_number       1

loop_
  _space_group_symop_operation_xyz
  'x, y, z'

loop_
  _atom_site_type_symbol
  _atom_site_label
  _atom_site_symmetry_multiplicity
  _atom_site_fract_x
  _atom_site_fract_y
  _atom_site_fract_z
  _atom_site_occupancy
  In  In1       1.0  0.95299  0.95299  0.12500  1.0000
  In  In2       1.0  0.04701  0.95299  0.87500  1.0000
  In  In3       1.0  0.04701  0.04701  0.62500  1.0000
  In  In4       1.0  0.95299  0.04701  0.37500  1.0000
  O   O1        1.0  0.80840  0.95840  0.08782  1.0000
  O   O2        1.0  0.04160  0.80840  0.83782  1.0000
  O   O3        1.0  0.19160  0.04160  0.58782  1.0000
  O   O4        1.0  0.95840  0.19160  0.33782  1.0000
  O   O5        1.0  0.80840  0.04160  0.41218  1.0000
  O   O6        1.0  0.95840  0.80840  0.16218  1.0000
  O   O7        1.0  0.19160  0.95840  0.91218  1.0000
  O   O8        1.0  0.04160  0.19160  0.66218  1.0000
  C   C1        1.0  0.56610  0.95360  0.08650  1.0000
  C   C2        1.0  0.04640  0.56610  0.83650  1.0000
  C   C3        1.0  0.43390  0.04640  0.58650  1.0000
  C   C4        1.0  0.95360  0.43390  0.33650  1.0000
  C   C5        1.0  0.56610  0.04640  0.41350  1.0000
  C   C6        1.0  0.95360  0.56610  0.16350  1.0000
  C   C7        1.0  0.43390  0.95360  0.91350  1.0000
  C   C8        1.0  0.04640  0.43390  0.66350  1.0000
  C   C9        1.0  0.57230  0.95520  0.05440  1.0000
  C   C10       1.0  0.04480  0.57230  0.80440  1.0000
  C   C11       1.0  0.42770  0.04480  0.55440  1.0000
  C   C12       1.0  0.95520  0.42770  0.30440  1.0000
  C   C13       1.0  0.57230  0.04480  0.44560  1.0000
  C   C14       1.0  0.95520  0.57230  0.19560  1.0000
  C   C15       1.0  0.42770  0.95520  0.94560  1.0000
  C   C16       1.0  0.04480  0.42770  0.69560  1.0000
  H   H1        1.0  0.65400  0.95620  0.04420  1.0000
  H   H2        1.0  0.04380  0.65400  0.79420  1.0000
  H   H3        1.0  0.34600  0.04380  0.54420  1.0000
  H   H4        1.0  0.95620  0.34600  0.29420  1.0000
  H   H5        1.0  0.65400  0.04380  0.45580  1.0000
  H   H6        1.0  0.95620  0.65400  0.20580  1.0000
  H   H7        1.0  0.34600  0.95620  0.95580  1.0000
  H   H8        1.0  0.04380  0.34600  0.70580  1.0000
  C   C17       1.0  0.45360  0.95510  0.03891  1.0000
  C   C18       1.0  0.04490  0.45360  0.78891  1.0000
  C   C19       1.0  0.54640  0.04490  0.53891  1.0000
  C   C20       1.0  0.95510  0.54640  0.28891  1.0000
  C   C21       1.0  0.45360  0.04490  0.46109  1.0000
  C   C22       1.0  0.95510  0.45360  0.21109  1.0000
  C   C23       1.0  0.54640  0.95510  0.96109  1.0000
  C   C24       1.0  0.04490  0.54640  0.71109  1.0000
  O   O9        1.0  0.70570  0.96010  0.13124  1.0000
  O   O10       1.0  0.03990  0.70570  0.88124  1.0000
  O   O11       1.0  0.29430  0.03990  0.63124  1.0000
  O   O12       1.0  0.96010  0.29430  0.38124  1.0000
  O   O13       1.0  0.70570  0.03990  0.36876  1.0000
  O   O14       1.0  0.96010  0.70570  0.11876  1.0000
  O   O15       1.0  0.29430  0.96010  0.86876  1.0000
  O   O16       1.0  0.03990  0.29430  0.61876  1.0000
  C   C25       1.0  0.45030  0.96180  0.10260  1.0000
  C   C26       1.0  0.03820  0.45030  0.85260  1.0000
  C   C27       1.0  0.54970  0.03820  0.60260  1.0000
  C   C28       1.0  0.96180  0.54970  0.35260  1.0000
  C   C29       1.0  0.45030  0.03820  0.39740  1.0000
  C   C30       1.0  0.96180  0.45030  0.14740  1.0000
  C   C31       1.0  0.54970  0.96180  0.89740  1.0000
  C   C32       1.0  0.03820  0.54970  0.64740  1.0000
  H   H9        1.0  0.45110  0.97070  0.12370  1.0000
  H   H10       1.0  0.02930  0.45110  0.87370  1.0000
  H   H11       1.0  0.54890  0.02930  0.62370  1.0000
  H   H12       1.0  0.97070  0.54890  0.37370  1.0000
  H   H13       1.0  0.45110  0.02930  0.37630  1.0000
  H   H14       1.0  0.97070  0.45110  0.12630  1.0000
  H   H15       1.0  0.54890  0.97070  0.87630  1.0000
  H   H16       1.0  0.02930  0.54890  0.62630  1.0000
  N   N1        1.0  0.44240  0.95250  0.00619  1.0000
  N   N2        1.0  0.04750  0.44240  0.75619  1.0000
  N   N3        1.0  0.55760  0.04750  0.50619  1.0000
  N   N4        1.0  0.95250  0.55760  0.25619  1.0000
  N   N5        1.0  0.44240  0.04750  0.49381  1.0000
  N   N6        1.0  0.95250  0.44240  0.24381  1.0000
  N   N7        1.0  0.55760  0.95250  0.99381  1.0000
  N   N8        1.0  0.04750  0.55760  0.74381  1.0000
  C   C33       1.0  0.32990  0.95640  0.08642  1.0000
  C   C34       1.0  0.04360  0.32990  0.83642  1.0000
  C   C35       1.0  0.67010  0.04360  0.58642  1.0000
  C   C36       1.0  0.95640  0.67010  0.33642  1.0000
  C   C37       1.0  0.32990  0.04360  0.41358  1.0000
  C   C38       1.0  0.95640  0.32990  0.16358  1.0000
  C   C39       1.0  0.67010  0.95640  0.91358  1.0000
  C   C40       1.0  0.04360  0.67010  0.66358  1.0000
  C   C41       1.0  0.33020  0.95070  0.05550  1.0000
  C   C42       1.0  0.04930  0.33020  0.80550  1.0000
  C   C43       1.0  0.66980  0.04930  0.55550  1.0000
  C   C44       1.0  0.95070  0.66980  0.30550  1.0000
  C   C45       1.0  0.33020  0.04930  0.44450  1.0000
  C   C46       1.0  0.95070  0.33020  0.19450  1.0000
  C   C47       1.0  0.66980  0.95070  0.94450  1.0000
  C   C48       1.0  0.04930  0.66980  0.69450  1.0000
  H   H17       1.0  0.24950  0.94390  0.04500  1.0000
  H   H18       1.0  0.05610  0.24950  0.79500  1.0000
  H   H19       1.0  0.75050  0.05610  0.54500  1.0000
  H   H20       1.0  0.94390  0.75050  0.29500  1.0000
  H   H21       1.0  0.24950  0.05610  0.45500  1.0000
  H   H22       1.0  0.94390  0.24950  0.20500  1.0000
  H   H23       1.0  0.75050  0.94390  0.95500  1.0000
  H   H24       1.0  0.05610  0.75050  0.70500  1.0000
  C   C49       1.0  0.70150  0.94890  0.10220  1.0000
  C   C50       1.0  0.05110  0.70150  0.85220  1.0000
  C   C51       1.0  0.29850  0.05110  0.60220  1.0000
  C   C52       1.0  0.94890  0.29850  0.35220  1.0000
  C   C53       1.0  0.70150  0.05110  0.39780  1.0000
  C   C54       1.0  0.94890  0.70150  0.14780  1.0000
  C   C55       1.0  0.29850  0.94890  0.89780  1.0000
  C   C56       1.0  0.05110  0.29850  0.64780  1.0000
  O   O17       1.0  0.19010  0.94600  0.13031  1.0000
  O   O18       1.0  0.05400  0.19010  0.88031  1.0000
  O   O19       1.0  0.80990  0.05400  0.63031  1.0000
  O   O20       1.0  0.94600  0.80990  0.38031  1.0000
  O   O21       1.0  0.19010  0.05400  0.36969  1.0000
  O   O22       1.0  0.94600  0.19010  0.11969  1.0000
  O   O23       1.0  0.80990  0.94600  0.86969  1.0000
  O   O24       1.0  0.05400  0.80990  0.61969  1.0000
  C   C57       1.0  0.19720  0.96170  0.10420  1.0000
  C   C58       1.0  0.03830  0.19720  0.85420  1.0000
  C   C59       1.0  0.80280  0.03830  0.60420  1.0000
  C   C60       1.0  0.96170  0.80280  0.35420  1.0000
  C   C61       1.0  0.19720  0.03830  0.39580  1.0000
  C   C62       1.0  0.96170  0.19720  0.14580  1.0000
  C   C63       1.0  0.80280  0.96170  0.89580  1.0000
  C   C64       1.0  0.03830  0.80280  0.64580  1.0000
  O   O25       1.0  0.09680  0.94950  0.08642  1.0000
  O   O26       1.0  0.05050  0.09680  0.83642  1.0000
  O   O27       1.0  0.90320  0.05050  0.58642  1.0000
  O   O28       1.0  0.94950  0.90320  0.33642  1.0000
  O   O29       1.0  0.09680  0.05050  0.41358  1.0000
  O   O30       1.0  0.94950  0.09680  0.16358  1.0000
  O   O31       1.0  0.90320  0.94950  0.91358  1.0000
  O   O32       1.0  0.05050  0.90320  0.66358  1.0000
