data_image0
_chemical_formula_structural       Co4C6H2C4H2C4H2C8H2C4H2C4H2C2O6H2O10H2O6H2
_chemical_formula_sum              "Co4 C32 H18 O22"
_cell_length_a       10.1611
_cell_length_b       10.868
_cell_length_c       12.8264
_cell_angle_alpha    90.714
_cell_angle_beta     109.446
_cell_angle_gamma    108.498

_space_group_name_H-M_alt    "P 1"
_space_group_IT_number       1

loop_
  _space_group_symop_operation_xyz
  'x, y, z'

loop_
  _atom_site_type_symbol
  _atom_site_label
  _atom_site_symmetry_multiplicity
  _atom_site_fract_x
  _atom_site_fract_y
  _atom_site_fract_z
  _atom_site_occupancy
  Co  Co1       1.0  0.23837  0.41011  0.27719  1.0000
  Co  Co2       1.0  0.76163  0.58989  0.72281  1.0000
  Co  Co3       1.0  0.50621  0.36273  0.47272  1.0000
  Co  Co4       1.0  0.49379  0.63727  0.52728  1.0000
  C   C1        1.0  0.24540  0.14150  0.31860  1.0000
  C   C2        1.0  0.75460  0.85850  0.68140  1.0000
  C   C3        1.0  0.19710  0.00290  0.26530  1.0000
  C   C4        1.0  0.80290  0.99710  0.73470  1.0000
  C   C5        1.0  0.08660  0.96210  0.16110  1.0000
  C   C6        1.0  0.91340  0.03790  0.83890  1.0000
  H   H1        1.0  0.04110  0.01970  0.12540  1.0000
  H   H2        1.0  0.95890  0.98030  0.87460  1.0000
  C   C7        1.0  0.04350  0.83480  0.10960  1.0000
  C   C8        1.0  0.95650  0.16520  0.89040  1.0000
  C   C9        1.0  0.11270  0.74970  0.16220  1.0000
  C   C10       1.0  0.88730  0.25030  0.83780  1.0000
  H   H3        1.0  0.08380  0.66460  0.12820  1.0000
  H   H4        1.0  0.91620  0.33540  0.87180  1.0000
  C   C11       1.0  0.22550  0.79200  0.26610  1.0000
  C   C12       1.0  0.77450  0.20800  0.73390  1.0000
  C   C13       1.0  0.26600  0.91790  0.31820  1.0000
  C   C14       1.0  0.73400  0.08210  0.68180  1.0000
  H   H5        1.0  0.33950  0.94510  0.38870  1.0000
  H   H6        1.0  0.66050  0.05490  0.61130  1.0000
  C   C15       1.0  0.30470  0.70230  0.32100  1.0000
  C   C16       1.0  0.69530  0.29770  0.67900  1.0000
  C   C17       1.0  0.97660  0.40430  0.18720  1.0000
  C   C18       1.0  0.02340  0.59570  0.81280  1.0000
  C   C19       1.0  0.81710  0.39520  0.13890  1.0000
  C   C20       1.0  0.18290  0.60480  0.86110  1.0000
  C   C21       1.0  0.74400  0.37700  0.02490  1.0000
  C   C22       1.0  0.25600  0.62300  0.97510  1.0000
  H   H7        1.0  0.79560  0.37760  0.97700  1.0000
  H   H8        1.0  0.20440  0.62240  0.02300  1.0000
  C   C23       1.0  0.59340  0.35780  0.98180  1.0000
  C   C24       1.0  0.40660  0.64220  0.01820  1.0000
  C   C25       1.0  0.51730  0.36190  0.05330  1.0000
  C   C26       1.0  0.48270  0.63810  0.94670  1.0000
  H   H9        1.0  0.41650  0.35000  0.02440  1.0000
  H   H10       1.0  0.58350  0.65000  0.97560  1.0000
  C   C27       1.0  0.59140  0.38380  0.16690  1.0000
  C   C28       1.0  0.40860  0.61620  0.83310  1.0000
  C   C29       1.0  0.74100  0.39960  0.21000  1.0000
  C   C30       1.0  0.25900  0.60040  0.79000  1.0000
  H   H11       1.0  0.79060  0.41320  0.28680  1.0000
  H   H12       1.0  0.20940  0.58680  0.71320  1.0000
  C   C31       1.0  0.51190  0.39190  0.24590  1.0000
  C   C32       1.0  0.48810  0.60810  0.75410  1.0000
  O   O1        1.0  0.36600  0.18010  0.39880  1.0000
  O   O2        1.0  0.63400  0.81990  0.60120  1.0000
  O   O3        1.0  0.16340  0.20660  0.28000  1.0000
  O   O4        1.0  0.83660  0.79340  0.72000  1.0000
  O   O5        1.0  0.93220  0.79940  0.00890  1.0000
  O   O6        1.0  0.06780  0.20060  0.99110  1.0000
  H   H13       1.0  0.94280  0.74340  0.97230  1.0000
  H   H14       1.0  0.05720  0.25660  0.02770  1.0000
  O   O7        1.0  0.30960  0.61320  0.26020  1.0000
  O   O8        1.0  0.69040  0.38680  0.73980  1.0000
  O   O9        1.0  0.36360  0.72330  0.42540  1.0000
  O   O10       1.0  0.63640  0.27670  0.57460  1.0000
  O   O11       1.0  0.04450  0.39040  0.12400  1.0000
  O   O12       1.0  0.95550  0.60960  0.87600  1.0000
  O   O13       1.0  0.04000  0.42340  0.29110  1.0000
  O   O14       1.0  0.96000  0.57660  0.70890  1.0000
  O   O15       1.0  0.51630  0.33490  0.86970  1.0000
  O   O16       1.0  0.48370  0.66510  0.13030  1.0000
  H   H15       1.0  0.57470  0.35230  0.83630  1.0000
  H   H16       1.0  0.42530  0.64770  0.16370  1.0000
  O   O17       1.0  0.58540  0.40340  0.34830  1.0000
  O   O18       1.0  0.41460  0.59660  0.65170  1.0000
  O   O19       1.0  0.38090  0.38700  0.20540  1.0000
  O   O20       1.0  0.61910  0.61300  0.79460  1.0000
  O   O21       1.0  0.35320  0.44910  0.44440  1.0000
  O   O22       1.0  0.64680  0.55090  0.55560  1.0000
  H   H17       1.0  0.28570  0.40980  0.48390  1.0000
  H   H18       1.0  0.71430  0.59020  0.51610  1.0000
