data_image0
_chemical_formula_structural       Cd4S8O8N8C16H12
_chemical_formula_sum              "Cd4 S8 O8 N8 C16 H12"
_cell_length_a       11.1025
_cell_length_b       10.9745
_cell_length_c       12.9968
_cell_angle_alpha    90
_cell_angle_beta     103.624
_cell_angle_gamma    90

_space_group_name_H-M_alt    "P 1"
_space_group_IT_number       1

loop_
  _space_group_symop_operation_xyz
  'x, y, z'

loop_
  _atom_site_type_symbol
  _atom_site_label
  _atom_site_symmetry_multiplicity
  _atom_site_fract_x
  _atom_site_fract_y
  _atom_site_fract_z
  _atom_site_occupancy
  Cd  Cd1       1.0  0.72841  0.50545  0.42575  1.0000
  Cd  Cd2       1.0  0.27159  0.00545  0.07425  1.0000
  Cd  Cd3       1.0  0.27159  0.49455  0.57425  1.0000
  Cd  Cd4       1.0  0.72841  0.99455  0.92575  1.0000
  S   S1        1.0  0.65817  0.69839  0.51266  1.0000
  S   S2        1.0  0.34183  0.19839  0.98734  1.0000
  S   S3        1.0  0.34183  0.30161  0.48734  1.0000
  S   S4        1.0  0.65817  0.80161  0.01266  1.0000
  S   S5        1.0  0.84021  0.33806  0.55940  1.0000
  S   S6        1.0  0.15979  0.83806  0.94060  1.0000
  S   S7        1.0  0.15979  0.66194  0.44060  1.0000
  S   S8        1.0  0.84021  0.16194  0.05940  1.0000
  O   O1        1.0  0.75130  0.38454  0.27468  1.0000
  O   O2        1.0  0.24870  0.88454  0.22532  1.0000
  O   O3        1.0  0.24870  0.61546  0.72532  1.0000
  O   O4        1.0  0.75130  0.11546  0.77468  1.0000
  O   O5        1.0  0.64487  0.55291  0.24714  1.0000
  O   O6        1.0  0.35513  0.05291  0.25286  1.0000
  O   O7        1.0  0.35513  0.44709  0.75286  1.0000
  O   O8        1.0  0.64487  0.94709  0.74714  1.0000
  N   N1        1.0  0.45170  0.60760  0.57510  1.0000
  N   N2        1.0  0.54830  0.10760  0.92490  1.0000
  N   N3        1.0  0.54830  0.39240  0.42490  1.0000
  N   N4        1.0  0.45170  0.89240  0.07510  1.0000
  N   N5        1.0  0.08920  0.39670  0.57950  1.0000
  N   N6        1.0  0.91080  0.89670  0.92050  1.0000
  N   N7        1.0  0.91080  0.60330  0.42050  1.0000
  N   N8        1.0  0.08920  0.10330  0.07950  1.0000
  C   C1        1.0  0.53560  0.64310  0.54780  1.0000
  C   C2        1.0  0.46440  0.14310  0.95220  1.0000
  C   C3        1.0  0.46440  0.35690  0.45220  1.0000
  C   C4        1.0  0.53560  0.85690  0.04780  1.0000
  C   C5        1.0  0.98590  0.37510  0.57010  1.0000
  C   C6        1.0  0.01410  0.87510  0.92990  1.0000
  C   C7        1.0  0.01410  0.62490  0.42990  1.0000
  C   C8        1.0  0.98590  0.12490  0.07010  1.0000
  C   C9        1.0  0.68700  0.45990  0.21230  1.0000
  C   C10       1.0  0.31300  0.95990  0.28770  1.0000
  C   C11       1.0  0.31300  0.54010  0.78770  1.0000
  C   C12       1.0  0.68700  0.04010  0.71230  1.0000
  C   C13       1.0  0.65920  0.43900  0.09520  1.0000
  C   C14       1.0  0.34080  0.93900  0.40480  1.0000
  C   C15       1.0  0.34080  0.56100  0.90480  1.0000
  C   C16       1.0  0.65920  0.06100  0.59520  1.0000
  H   H1        1.0  0.72150  0.38700  0.07850  1.0000
  H   H2        1.0  0.27850  0.88700  0.42150  1.0000
  H   H3        1.0  0.27850  0.61300  0.92150  1.0000
  H   H4        1.0  0.72150  0.11300  0.57850  1.0000
  H   H5        1.0  0.65880  0.51570  0.05960  1.0000
  H   H6        1.0  0.34120  0.01570  0.44040  1.0000
  H   H7        1.0  0.34120  0.48430  0.94040  1.0000
  H   H8        1.0  0.65880  0.98430  0.55960  1.0000
  H   H9        1.0  0.57940  0.40100  0.07250  1.0000
  H   H10       1.0  0.42060  0.90100  0.42750  1.0000
  H   H11       1.0  0.42060  0.59900  0.92750  1.0000
  H   H12       1.0  0.57940  0.09900  0.57250  1.0000
