data_image0
_chemical_formula_structural       Ti8O48N24C72H24C72H24C24H24
_chemical_formula_sum              "Ti8 O48 N24 C168 H72"
_cell_length_a       21.1222
_cell_length_b       21.1222
_cell_length_c       21.1222
_cell_angle_alpha    90
_cell_angle_beta     90
_cell_angle_gamma    90

_space_group_name_H-M_alt    "P 1"
_space_group_IT_number       1

loop_
  _space_group_symop_operation_xyz
  'x, y, z'

loop_
  _atom_site_type_symbol
  _atom_site_label
  _atom_site_symmetry_multiplicity
  _atom_site_fract_x
  _atom_site_fract_y
  _atom_site_fract_z
  _atom_site_occupancy
  Ti  Ti1       1.0  0.68997  0.81003  0.18997  1.0000
  Ti  Ti2       1.0  0.81003  0.18997  0.68997  1.0000
  Ti  Ti3       1.0  0.31003  0.31003  0.31003  1.0000
  Ti  Ti4       1.0  0.18997  0.68997  0.81003  1.0000
  Ti  Ti5       1.0  0.31003  0.18997  0.81003  1.0000
  Ti  Ti6       1.0  0.18997  0.81003  0.31003  1.0000
  Ti  Ti7       1.0  0.68997  0.68997  0.68997  1.0000
  Ti  Ti8       1.0  0.81003  0.31003  0.18997  1.0000
  O   O1        1.0  0.62320  0.78000  0.13580  1.0000
  O   O2        1.0  0.87680  0.22000  0.63580  1.0000
  O   O3        1.0  0.37680  0.28000  0.36420  1.0000
  O   O4        1.0  0.12320  0.72000  0.86420  1.0000
  O   O5        1.0  0.13580  0.62320  0.78000  1.0000
  O   O6        1.0  0.63580  0.87680  0.22000  1.0000
  O   O7        1.0  0.36420  0.37680  0.28000  1.0000
  O   O8        1.0  0.86420  0.12320  0.72000  1.0000
  O   O9        1.0  0.78000  0.13580  0.62320  1.0000
  O   O10       1.0  0.22000  0.63580  0.87680  1.0000
  O   O11       1.0  0.28000  0.36420  0.37680  1.0000
  O   O12       1.0  0.72000  0.86420  0.12320  1.0000
  O   O13       1.0  0.37680  0.22000  0.86420  1.0000
  O   O14       1.0  0.12320  0.78000  0.36420  1.0000
  O   O15       1.0  0.62320  0.72000  0.63580  1.0000
  O   O16       1.0  0.87680  0.28000  0.13580  1.0000
  O   O17       1.0  0.86420  0.37680  0.22000  1.0000
  O   O18       1.0  0.36420  0.12320  0.78000  1.0000
  O   O19       1.0  0.63580  0.62320  0.72000  1.0000
  O   O20       1.0  0.13580  0.87680  0.28000  1.0000
  O   O21       1.0  0.22000  0.86420  0.37680  1.0000
  O   O22       1.0  0.78000  0.36420  0.12320  1.0000
  O   O23       1.0  0.72000  0.63580  0.62320  1.0000
  O   O24       1.0  0.28000  0.13580  0.87680  1.0000
  O   O25       1.0  0.66250  0.73570  0.23850  1.0000
  O   O26       1.0  0.83750  0.26430  0.73850  1.0000
  O   O27       1.0  0.33750  0.23570  0.26150  1.0000
  O   O28       1.0  0.16250  0.76430  0.76150  1.0000
  O   O29       1.0  0.23850  0.66250  0.73570  1.0000
  O   O30       1.0  0.73850  0.83750  0.26430  1.0000
  O   O31       1.0  0.26150  0.33750  0.23570  1.0000
  O   O32       1.0  0.76150  0.16250  0.76430  1.0000
  O   O33       1.0  0.73570  0.23850  0.66250  1.0000
  O   O34       1.0  0.26430  0.73850  0.83750  1.0000
  O   O35       1.0  0.23570  0.26150  0.33750  1.0000
  O   O36       1.0  0.76430  0.76150  0.16250  1.0000
  O   O37       1.0  0.33750  0.26430  0.76150  1.0000
  O   O38       1.0  0.16250  0.73570  0.26150  1.0000
  O   O39       1.0  0.66250  0.76430  0.73850  1.0000
  O   O40       1.0  0.83750  0.23570  0.23850  1.0000
  O   O41       1.0  0.76150  0.33750  0.26430  1.0000
  O   O42       1.0  0.26150  0.16250  0.73570  1.0000
  O   O43       1.0  0.73850  0.66250  0.76430  1.0000
  O   O44       1.0  0.23850  0.83750  0.23570  1.0000
  O   O45       1.0  0.26430  0.76150  0.33750  1.0000
  O   O46       1.0  0.73570  0.26150  0.16250  1.0000
  O   O47       1.0  0.76430  0.73850  0.66250  1.0000
  O   O48       1.0  0.23570  0.23850  0.83750  1.0000
  N   N1        1.0  0.42840  0.56860  0.14790  1.0000
  N   N2        1.0  0.07160  0.43140  0.64790  1.0000
  N   N3        1.0  0.57160  0.06860  0.35210  1.0000
  N   N4        1.0  0.92840  0.93140  0.85210  1.0000
  N   N5        1.0  0.14790  0.42840  0.56860  1.0000
  N   N6        1.0  0.64790  0.07160  0.43140  1.0000
  N   N7        1.0  0.35210  0.57160  0.06860  1.0000
  N   N8        1.0  0.85210  0.92840  0.93140  1.0000
  N   N9        1.0  0.56860  0.14790  0.42840  1.0000
  N   N10       1.0  0.43140  0.64790  0.07160  1.0000
  N   N11       1.0  0.06860  0.35210  0.57160  1.0000
  N   N12       1.0  0.93140  0.85210  0.92840  1.0000
  N   N13       1.0  0.57160  0.43140  0.85210  1.0000
  N   N14       1.0  0.92840  0.56860  0.35210  1.0000
  N   N15       1.0  0.42840  0.93140  0.64790  1.0000
  N   N16       1.0  0.07160  0.06860  0.14790  1.0000
  N   N17       1.0  0.85210  0.57160  0.43140  1.0000
  N   N18       1.0  0.35210  0.92840  0.56860  1.0000
  N   N19       1.0  0.64790  0.42840  0.93140  1.0000
  N   N20       1.0  0.14790  0.07160  0.06860  1.0000
  N   N21       1.0  0.43140  0.85210  0.57160  1.0000
  N   N22       1.0  0.56860  0.35210  0.92840  1.0000
  N   N23       1.0  0.93140  0.64790  0.42840  1.0000
  N   N24       1.0  0.06860  0.14790  0.07160  1.0000
  C   C1        1.0  0.45570  0.61970  0.12200  1.0000
  C   C2        1.0  0.04430  0.38030  0.62200  1.0000
  C   C3        1.0  0.54430  0.11970  0.37800  1.0000
  C   C4        1.0  0.95570  0.88030  0.87800  1.0000
  C   C5        1.0  0.12200  0.45570  0.61970  1.0000
  C   C6        1.0  0.62200  0.04430  0.38030  1.0000
  C   C7        1.0  0.37800  0.54430  0.11970  1.0000
  C   C8        1.0  0.87800  0.95570  0.88030  1.0000
  C   C9        1.0  0.61970  0.12200  0.45570  1.0000
  C   C10       1.0  0.38030  0.62200  0.04430  1.0000
  C   C11       1.0  0.11970  0.37800  0.54430  1.0000
  C   C12       1.0  0.88030  0.87800  0.95570  1.0000
  C   C13       1.0  0.54430  0.38030  0.87800  1.0000
  C   C14       1.0  0.95570  0.61970  0.37800  1.0000
  C   C15       1.0  0.45570  0.88030  0.62200  1.0000
  C   C16       1.0  0.04430  0.11970  0.12200  1.0000
  C   C17       1.0  0.87800  0.54430  0.38030  1.0000
  C   C18       1.0  0.37800  0.95570  0.61970  1.0000
  C   C19       1.0  0.62200  0.45570  0.88030  1.0000
  C   C20       1.0  0.12200  0.04430  0.11970  1.0000
  C   C21       1.0  0.38030  0.87800  0.54430  1.0000
  C   C22       1.0  0.61970  0.37800  0.95570  1.0000
  C   C23       1.0  0.88030  0.62200  0.45570  1.0000
  C   C24       1.0  0.11970  0.12200  0.04430  1.0000
  C   C25       1.0  0.51140  0.64720  0.15340  1.0000
  C   C26       1.0  0.98860  0.35280  0.65340  1.0000
  C   C27       1.0  0.48860  0.14720  0.34660  1.0000
  C   C28       1.0  0.01140  0.85280  0.84660  1.0000
  C   C29       1.0  0.15340  0.51140  0.64720  1.0000
  C   C30       1.0  0.65340  0.98860  0.35280  1.0000
  C   C31       1.0  0.34660  0.48860  0.14720  1.0000
  C   C32       1.0  0.84660  0.01140  0.85280  1.0000
  C   C33       1.0  0.64720  0.15340  0.51140  1.0000
  C   C34       1.0  0.35280  0.65340  0.98860  1.0000
  C   C35       1.0  0.14720  0.34660  0.48860  1.0000
  C   C36       1.0  0.85280  0.84660  0.01140  1.0000
  C   C37       1.0  0.48860  0.35280  0.84660  1.0000
  C   C38       1.0  0.01140  0.64720  0.34660  1.0000
  C   C39       1.0  0.51140  0.85280  0.65340  1.0000
  C   C40       1.0  0.98860  0.14720  0.15340  1.0000
  C   C41       1.0  0.84660  0.48860  0.35280  1.0000
  C   C42       1.0  0.34660  0.01140  0.64720  1.0000
  C   C43       1.0  0.65340  0.51140  0.85280  1.0000
  C   C44       1.0  0.15340  0.98860  0.14720  1.0000
  C   C45       1.0  0.35280  0.84660  0.48860  1.0000
  C   C46       1.0  0.64720  0.34660  0.01140  1.0000
  C   C47       1.0  0.85280  0.65340  0.51140  1.0000
  C   C48       1.0  0.14720  0.15340  0.98860  1.0000
  C   C49       1.0  0.53930  0.70290  0.12630  1.0000
  C   C50       1.0  0.96070  0.29710  0.62630  1.0000
  C   C51       1.0  0.46070  0.20290  0.37370  1.0000
  C   C52       1.0  0.03930  0.79710  0.87370  1.0000
  C   C53       1.0  0.12630  0.53930  0.70290  1.0000
  C   C54       1.0  0.62630  0.96070  0.29710  1.0000
  C   C55       1.0  0.37370  0.46070  0.20290  1.0000
  C   C56       1.0  0.87370  0.03930  0.79710  1.0000
  C   C57       1.0  0.70290  0.12630  0.53930  1.0000
  C   C58       1.0  0.29710  0.62630  0.96070  1.0000
  C   C59       1.0  0.20290  0.37370  0.46070  1.0000
  C   C60       1.0  0.79710  0.87370  0.03930  1.0000
  C   C61       1.0  0.46070  0.29710  0.87370  1.0000
  C   C62       1.0  0.03930  0.70290  0.37370  1.0000
  C   C63       1.0  0.53930  0.79710  0.62630  1.0000
  C   C64       1.0  0.96070  0.20290  0.12630  1.0000
  C   C65       1.0  0.87370  0.46070  0.29710  1.0000
  C   C66       1.0  0.37370  0.03930  0.70290  1.0000
  C   C67       1.0  0.62630  0.53930  0.79710  1.0000
  C   C68       1.0  0.12630  0.96070  0.20290  1.0000
  C   C69       1.0  0.29710  0.87370  0.46070  1.0000
  C   C70       1.0  0.70290  0.37370  0.03930  1.0000
  C   C71       1.0  0.79710  0.62630  0.53930  1.0000
  C   C72       1.0  0.20290  0.12630  0.96070  1.0000
  H   H1        1.0  0.52294  0.72088  0.08965  1.0000
  H   H2        1.0  0.97706  0.27912  0.58965  1.0000
  H   H3        1.0  0.47706  0.22088  0.41035  1.0000
  H   H4        1.0  0.02294  0.77912  0.91035  1.0000
  H   H5        1.0  0.08965  0.52294  0.72088  1.0000
  H   H6        1.0  0.58965  0.97706  0.27912  1.0000
  H   H7        1.0  0.41035  0.47706  0.22088  1.0000
  H   H8        1.0  0.91035  0.02294  0.77912  1.0000
  H   H9        1.0  0.72088  0.08965  0.52294  1.0000
  H   H10       1.0  0.27912  0.58965  0.97706  1.0000
  H   H11       1.0  0.22088  0.41035  0.47706  1.0000
  H   H12       1.0  0.77912  0.91035  0.02294  1.0000
  H   H13       1.0  0.47706  0.27912  0.91035  1.0000
  H   H14       1.0  0.02294  0.72088  0.41035  1.0000
  H   H15       1.0  0.52294  0.77912  0.58965  1.0000
  H   H16       1.0  0.97706  0.22088  0.08965  1.0000
  H   H17       1.0  0.91035  0.47706  0.27912  1.0000
  H   H18       1.0  0.41035  0.02294  0.72088  1.0000
  H   H19       1.0  0.58965  0.52294  0.77912  1.0000
  H   H20       1.0  0.08965  0.97706  0.22088  1.0000
  H   H21       1.0  0.27912  0.91035  0.47706  1.0000
  H   H22       1.0  0.72088  0.41035  0.02294  1.0000
  H   H23       1.0  0.77912  0.58965  0.52294  1.0000
  H   H24       1.0  0.22088  0.08965  0.97706  1.0000
  C   C73       1.0  0.59120  0.72880  0.15640  1.0000
  C   C74       1.0  0.90880  0.27120  0.65640  1.0000
  C   C75       1.0  0.40880  0.22880  0.34360  1.0000
  C   C76       1.0  0.09120  0.77120  0.84360  1.0000
  C   C77       1.0  0.15640  0.59120  0.72880  1.0000
  C   C78       1.0  0.65640  0.90880  0.27120  1.0000
  C   C79       1.0  0.34360  0.40880  0.22880  1.0000
  C   C80       1.0  0.84360  0.09120  0.77120  1.0000
  C   C81       1.0  0.72880  0.15640  0.59120  1.0000
  C   C82       1.0  0.27120  0.65640  0.90880  1.0000
  C   C83       1.0  0.22880  0.34360  0.40880  1.0000
  C   C84       1.0  0.77120  0.84360  0.09120  1.0000
  C   C85       1.0  0.40880  0.27120  0.84360  1.0000
  C   C86       1.0  0.09120  0.72880  0.34360  1.0000
  C   C87       1.0  0.59120  0.77120  0.65640  1.0000
  C   C88       1.0  0.90880  0.22880  0.15640  1.0000
  C   C89       1.0  0.84360  0.40880  0.27120  1.0000
  C   C90       1.0  0.34360  0.09120  0.72880  1.0000
  C   C91       1.0  0.65640  0.59120  0.77120  1.0000
  C   C92       1.0  0.15640  0.90880  0.22880  1.0000
  C   C93       1.0  0.27120  0.84360  0.40880  1.0000
  C   C94       1.0  0.72880  0.34360  0.09120  1.0000
  C   C95       1.0  0.77120  0.65640  0.59120  1.0000
  C   C96       1.0  0.22880  0.15640  0.90880  1.0000
  C   C97       1.0  0.61380  0.70350  0.21250  1.0000
  C   C98       1.0  0.88620  0.29650  0.71250  1.0000
  C   C99       1.0  0.38620  0.20350  0.28750  1.0000
  C   C100      1.0  0.11380  0.79650  0.78750  1.0000
  C   C101      1.0  0.21250  0.61380  0.70350  1.0000
  C   C102      1.0  0.71250  0.88620  0.29650  1.0000
  C   C103      1.0  0.28750  0.38620  0.20350  1.0000
  C   C104      1.0  0.78750  0.11380  0.79650  1.0000
  C   C105      1.0  0.70350  0.21250  0.61380  1.0000
  C   C106      1.0  0.29650  0.71250  0.88620  1.0000
  C   C107      1.0  0.20350  0.28750  0.38620  1.0000
  C   C108      1.0  0.79650  0.78750  0.11380  1.0000
  C   C109      1.0  0.38620  0.29650  0.78750  1.0000
  C   C110      1.0  0.11380  0.70350  0.28750  1.0000
  C   C111      1.0  0.61380  0.79650  0.71250  1.0000
  C   C112      1.0  0.88620  0.20350  0.21250  1.0000
  C   C113      1.0  0.78750  0.38620  0.29650  1.0000
  C   C114      1.0  0.28750  0.11380  0.70350  1.0000
  C   C115      1.0  0.71250  0.61380  0.79650  1.0000
  C   C116      1.0  0.21250  0.88620  0.20350  1.0000
  C   C117      1.0  0.29650  0.78750  0.38620  1.0000
  C   C118      1.0  0.70350  0.28750  0.11380  1.0000
  C   C119      1.0  0.79650  0.71250  0.61380  1.0000
  C   C120      1.0  0.20350  0.21250  0.88620  1.0000
  C   C121      1.0  0.58540  0.64850  0.23770  1.0000
  C   C122      1.0  0.91460  0.35150  0.73770  1.0000
  C   C123      1.0  0.41460  0.14850  0.26230  1.0000
  C   C124      1.0  0.08540  0.85150  0.76230  1.0000
  C   C125      1.0  0.23770  0.58540  0.64850  1.0000
  C   C126      1.0  0.73770  0.91460  0.35150  1.0000
  C   C127      1.0  0.26230  0.41460  0.14850  1.0000
  C   C128      1.0  0.76230  0.08540  0.85150  1.0000
  C   C129      1.0  0.64850  0.23770  0.58540  1.0000
  C   C130      1.0  0.35150  0.73770  0.91460  1.0000
  C   C131      1.0  0.14850  0.26230  0.41460  1.0000
  C   C132      1.0  0.85150  0.76230  0.08540  1.0000
  C   C133      1.0  0.41460  0.35150  0.76230  1.0000
  C   C134      1.0  0.08540  0.64850  0.26230  1.0000
  C   C135      1.0  0.58540  0.85150  0.73770  1.0000
  C   C136      1.0  0.91460  0.14850  0.23770  1.0000
  C   C137      1.0  0.76230  0.41460  0.35150  1.0000
  C   C138      1.0  0.26230  0.08540  0.64850  1.0000
  C   C139      1.0  0.73770  0.58540  0.85150  1.0000
  C   C140      1.0  0.23770  0.91460  0.14850  1.0000
  C   C141      1.0  0.35150  0.76230  0.41460  1.0000
  C   C142      1.0  0.64850  0.26230  0.08540  1.0000
  C   C143      1.0  0.85150  0.73770  0.58540  1.0000
  C   C144      1.0  0.14850  0.23770  0.91460  1.0000
  H   H25       1.0  0.60071  0.63107  0.27514  1.0000
  H   H26       1.0  0.89929  0.36893  0.77514  1.0000
  H   H27       1.0  0.39929  0.13107  0.22486  1.0000
  H   H28       1.0  0.10071  0.86893  0.72486  1.0000
  H   H29       1.0  0.27514  0.60071  0.63107  1.0000
  H   H30       1.0  0.77514  0.89929  0.36893  1.0000
  H   H31       1.0  0.22486  0.39929  0.13107  1.0000
  H   H32       1.0  0.72486  0.10071  0.86893  1.0000
  H   H33       1.0  0.63107  0.27514  0.60071  1.0000
  H   H34       1.0  0.36893  0.77514  0.89929  1.0000
  H   H35       1.0  0.13107  0.22486  0.39929  1.0000
  H   H36       1.0  0.86893  0.72486  0.10071  1.0000
  H   H37       1.0  0.39929  0.36893  0.72486  1.0000
  H   H38       1.0  0.10071  0.63107  0.22486  1.0000
  H   H39       1.0  0.60071  0.86893  0.77514  1.0000
  H   H40       1.0  0.89929  0.13107  0.27514  1.0000
  H   H41       1.0  0.72486  0.39929  0.36893  1.0000
  H   H42       1.0  0.22486  0.10071  0.63107  1.0000
  H   H43       1.0  0.77514  0.60071  0.86893  1.0000
  H   H44       1.0  0.27514  0.89929  0.13107  1.0000
  H   H45       1.0  0.36893  0.72486  0.39929  1.0000
  H   H46       1.0  0.63107  0.22486  0.10071  1.0000
  H   H47       1.0  0.86893  0.77514  0.60071  1.0000
  H   H48       1.0  0.13107  0.27514  0.89929  1.0000
  C   C145      1.0  0.53730  0.62170  0.20840  1.0000
  C   C146      1.0  0.96270  0.37830  0.70840  1.0000
  C   C147      1.0  0.46270  0.12170  0.29160  1.0000
  C   C148      1.0  0.03730  0.87830  0.79160  1.0000
  C   C149      1.0  0.20840  0.53730  0.62170  1.0000
  C   C150      1.0  0.70840  0.96270  0.37830  1.0000
  C   C151      1.0  0.29160  0.46270  0.12170  1.0000
  C   C152      1.0  0.79160  0.03730  0.87830  1.0000
  C   C153      1.0  0.62170  0.20840  0.53730  1.0000
  C   C154      1.0  0.37830  0.70840  0.96270  1.0000
  C   C155      1.0  0.12170  0.29160  0.46270  1.0000
  C   C156      1.0  0.87830  0.79160  0.03730  1.0000
  C   C157      1.0  0.46270  0.37830  0.79160  1.0000
  C   C158      1.0  0.03730  0.62170  0.29160  1.0000
  C   C159      1.0  0.53730  0.87830  0.70840  1.0000
  C   C160      1.0  0.96270  0.12170  0.20840  1.0000
  C   C161      1.0  0.79160  0.46270  0.37830  1.0000
  C   C162      1.0  0.29160  0.03730  0.62170  1.0000
  C   C163      1.0  0.70840  0.53730  0.87830  1.0000
  C   C164      1.0  0.20840  0.96270  0.12170  1.0000
  C   C165      1.0  0.37830  0.79160  0.46270  1.0000
  C   C166      1.0  0.62170  0.29160  0.03730  1.0000
  C   C167      1.0  0.87830  0.70840  0.53730  1.0000
  C   C168      1.0  0.12170  0.20840  0.96270  1.0000
  H   H49       1.0  0.52012  0.58473  0.22498  1.0000
  H   H50       1.0  0.97988  0.41527  0.72498  1.0000
  H   H51       1.0  0.47988  0.08473  0.27502  1.0000
  H   H52       1.0  0.02012  0.91527  0.77502  1.0000
  H   H53       1.0  0.22498  0.52012  0.58473  1.0000
  H   H54       1.0  0.72498  0.97988  0.41527  1.0000
  H   H55       1.0  0.27502  0.47988  0.08473  1.0000
  H   H56       1.0  0.77502  0.02012  0.91527  1.0000
  H   H57       1.0  0.58473  0.22498  0.52012  1.0000
  H   H58       1.0  0.41527  0.72498  0.97988  1.0000
  H   H59       1.0  0.08473  0.27502  0.47988  1.0000
  H   H60       1.0  0.91527  0.77502  0.02012  1.0000
  H   H61       1.0  0.47988  0.41527  0.77502  1.0000
  H   H62       1.0  0.02012  0.58473  0.27502  1.0000
  H   H63       1.0  0.52012  0.91527  0.72498  1.0000
  H   H64       1.0  0.97988  0.08473  0.22498  1.0000
  H   H65       1.0  0.77502  0.47988  0.41527  1.0000
  H   H66       1.0  0.27502  0.02012  0.58473  1.0000
  H   H67       1.0  0.72498  0.52012  0.91527  1.0000
  H   H68       1.0  0.22498  0.97988  0.08473  1.0000
  H   H69       1.0  0.41527  0.77502  0.47988  1.0000
  H   H70       1.0  0.58473  0.27502  0.02012  1.0000
  H   H71       1.0  0.91527  0.72498  0.52012  1.0000
  H   H72       1.0  0.08473  0.22498  0.97988  1.0000
