data_image0
_chemical_formula_structural       Ti8O48N24C48H24C96H24C24H24
_chemical_formula_sum              "Ti8 O48 N24 C168 H72"
_cell_length_a       21.1205
_cell_length_b       21.1205
_cell_length_c       21.1205
_cell_angle_alpha    90
_cell_angle_beta     90
_cell_angle_gamma    90

_space_group_name_H-M_alt    "P 1"
_space_group_IT_number       1

loop_
  _space_group_symop_operation_xyz
  'x, y, z'

loop_
  _atom_site_type_symbol
  _atom_site_label
  _atom_site_symmetry_multiplicity
  _atom_site_fract_x
  _atom_site_fract_y
  _atom_site_fract_z
  _atom_site_occupancy
  Ti  Ti1       1.0  0.80841  0.19159  0.69159  1.0000
  Ti  Ti2       1.0  0.69159  0.80841  0.19159  1.0000
  Ti  Ti3       1.0  0.19159  0.69159  0.80841  1.0000
  Ti  Ti4       1.0  0.30841  0.30841  0.30841  1.0000
  Ti  Ti5       1.0  0.19159  0.80841  0.30841  1.0000
  Ti  Ti6       1.0  0.30841  0.19159  0.80841  1.0000
  Ti  Ti7       1.0  0.80841  0.30841  0.19159  1.0000
  Ti  Ti8       1.0  0.69159  0.69159  0.69159  1.0000
  O   O1        1.0  0.77850  0.13611  0.62430  1.0000
  O   O2        1.0  0.72150  0.86389  0.12430  1.0000
  O   O3        1.0  0.22150  0.63611  0.87570  1.0000
  O   O4        1.0  0.27850  0.36389  0.37570  1.0000
  O   O5        1.0  0.62430  0.77850  0.13611  1.0000
  O   O6        1.0  0.12430  0.72150  0.86389  1.0000
  O   O7        1.0  0.87570  0.22150  0.63611  1.0000
  O   O8        1.0  0.37570  0.27850  0.36389  1.0000
  O   O9        1.0  0.13611  0.62430  0.77850  1.0000
  O   O10       1.0  0.86389  0.12430  0.72150  1.0000
  O   O11       1.0  0.63611  0.87570  0.22150  1.0000
  O   O12       1.0  0.36389  0.37570  0.27850  1.0000
  O   O13       1.0  0.22150  0.86389  0.37570  1.0000
  O   O14       1.0  0.27850  0.13611  0.87570  1.0000
  O   O15       1.0  0.77850  0.36389  0.12430  1.0000
  O   O16       1.0  0.72150  0.63611  0.62430  1.0000
  O   O17       1.0  0.37570  0.22150  0.86389  1.0000
  O   O18       1.0  0.87570  0.27850  0.13611  1.0000
  O   O19       1.0  0.12430  0.77850  0.36389  1.0000
  O   O20       1.0  0.62430  0.72150  0.63611  1.0000
  O   O21       1.0  0.86389  0.37570  0.22150  1.0000
  O   O22       1.0  0.13611  0.87570  0.27850  1.0000
  O   O23       1.0  0.36389  0.12430  0.77850  1.0000
  O   O24       1.0  0.63611  0.62430  0.72150  1.0000
  O   O25       1.0  0.73350  0.23846  0.66400  1.0000
  O   O26       1.0  0.76650  0.76154  0.16400  1.0000
  O   O27       1.0  0.26650  0.73846  0.83600  1.0000
  O   O28       1.0  0.23350  0.26154  0.33600  1.0000
  O   O29       1.0  0.66400  0.73350  0.23846  1.0000
  O   O30       1.0  0.16400  0.76650  0.76154  1.0000
  O   O31       1.0  0.83600  0.26650  0.73846  1.0000
  O   O32       1.0  0.33600  0.23350  0.26154  1.0000
  O   O33       1.0  0.23846  0.66400  0.73350  1.0000
  O   O34       1.0  0.76154  0.16400  0.76650  1.0000
  O   O35       1.0  0.73846  0.83600  0.26650  1.0000
  O   O36       1.0  0.26154  0.33600  0.23350  1.0000
  O   O37       1.0  0.26650  0.76154  0.33600  1.0000
  O   O38       1.0  0.23350  0.23846  0.83600  1.0000
  O   O39       1.0  0.73350  0.26154  0.16400  1.0000
  O   O40       1.0  0.76650  0.73846  0.66400  1.0000
  O   O41       1.0  0.33600  0.26650  0.76154  1.0000
  O   O42       1.0  0.83600  0.23350  0.23846  1.0000
  O   O43       1.0  0.16400  0.73350  0.26154  1.0000
  O   O44       1.0  0.66400  0.76650  0.73846  1.0000
  O   O45       1.0  0.76154  0.33600  0.26650  1.0000
  O   O46       1.0  0.23846  0.83600  0.23350  1.0000
  O   O47       1.0  0.26154  0.16400  0.73350  1.0000
  O   O48       1.0  0.73846  0.66400  0.76650  1.0000
  N   N1        1.0  0.64660  0.07120  0.43280  1.0000
  N   N2        1.0  0.85340  0.92880  0.93280  1.0000
  N   N3        1.0  0.35340  0.57120  0.06720  1.0000
  N   N4        1.0  0.14660  0.42880  0.56720  1.0000
  N   N5        1.0  0.43280  0.64660  0.07120  1.0000
  N   N6        1.0  0.93280  0.85340  0.92880  1.0000
  N   N7        1.0  0.06720  0.35340  0.57120  1.0000
  N   N8        1.0  0.56720  0.14660  0.42880  1.0000
  N   N9        1.0  0.07120  0.43280  0.64660  1.0000
  N   N10       1.0  0.92880  0.93280  0.85340  1.0000
  N   N11       1.0  0.57120  0.06720  0.35340  1.0000
  N   N12       1.0  0.42880  0.56720  0.14660  1.0000
  N   N13       1.0  0.35340  0.92880  0.56720  1.0000
  N   N14       1.0  0.14660  0.07120  0.06720  1.0000
  N   N15       1.0  0.64660  0.42880  0.93280  1.0000
  N   N16       1.0  0.85340  0.57120  0.43280  1.0000
  N   N17       1.0  0.56720  0.35340  0.92880  1.0000
  N   N18       1.0  0.06720  0.14660  0.07120  1.0000
  N   N19       1.0  0.93280  0.64660  0.42880  1.0000
  N   N20       1.0  0.43280  0.85340  0.57120  1.0000
  N   N21       1.0  0.92880  0.56720  0.35340  1.0000
  N   N22       1.0  0.07120  0.06720  0.14660  1.0000
  N   N23       1.0  0.42880  0.93280  0.64660  1.0000
  N   N24       1.0  0.57120  0.43280  0.85340  1.0000
  C   C1        1.0  0.61910  0.12140  0.45650  1.0000
  C   C2        1.0  0.88090  0.87860  0.95650  1.0000
  C   C3        1.0  0.38090  0.62140  0.04350  1.0000
  C   C4        1.0  0.11910  0.37860  0.54350  1.0000
  C   C5        1.0  0.45650  0.61910  0.12140  1.0000
  C   C6        1.0  0.95650  0.88090  0.87860  1.0000
  C   C7        1.0  0.04350  0.38090  0.62140  1.0000
  C   C8        1.0  0.54350  0.11910  0.37860  1.0000
  C   C9        1.0  0.12140  0.45650  0.61910  1.0000
  C   C10       1.0  0.87860  0.95650  0.88090  1.0000
  C   C11       1.0  0.62140  0.04350  0.38090  1.0000
  C   C12       1.0  0.37860  0.54350  0.11910  1.0000
  C   C13       1.0  0.38090  0.87860  0.54350  1.0000
  C   C14       1.0  0.11910  0.12140  0.04350  1.0000
  C   C15       1.0  0.61910  0.37860  0.95650  1.0000
  C   C16       1.0  0.88090  0.62140  0.45650  1.0000
  C   C17       1.0  0.54350  0.38090  0.87860  1.0000
  C   C18       1.0  0.04350  0.11910  0.12140  1.0000
  C   C19       1.0  0.95650  0.61910  0.37860  1.0000
  C   C20       1.0  0.45650  0.88090  0.62140  1.0000
  C   C21       1.0  0.87860  0.54350  0.38090  1.0000
  C   C22       1.0  0.12140  0.04350  0.11910  1.0000
  C   C23       1.0  0.37860  0.95650  0.61910  1.0000
  C   C24       1.0  0.62140  0.45650  0.88090  1.0000
  C   C25       1.0  0.70000  0.12570  0.54120  1.0000
  C   C26       1.0  0.80000  0.87430  0.04120  1.0000
  C   C27       1.0  0.30000  0.62570  0.95880  1.0000
  C   C28       1.0  0.20000  0.37430  0.45880  1.0000
  C   C29       1.0  0.54120  0.70000  0.12570  1.0000
  C   C30       1.0  0.04120  0.80000  0.87430  1.0000
  C   C31       1.0  0.95880  0.30000  0.62570  1.0000
  C   C32       1.0  0.45880  0.20000  0.37430  1.0000
  C   C33       1.0  0.12570  0.54120  0.70000  1.0000
  C   C34       1.0  0.87430  0.04120  0.80000  1.0000
  C   C35       1.0  0.62570  0.95880  0.30000  1.0000
  C   C36       1.0  0.37430  0.45880  0.20000  1.0000
  C   C37       1.0  0.30000  0.87430  0.45880  1.0000
  C   C38       1.0  0.20000  0.12570  0.95880  1.0000
  C   C39       1.0  0.70000  0.37430  0.04120  1.0000
  C   C40       1.0  0.80000  0.62570  0.54120  1.0000
  C   C41       1.0  0.45880  0.30000  0.87430  1.0000
  C   C42       1.0  0.95880  0.20000  0.12570  1.0000
  C   C43       1.0  0.04120  0.70000  0.37430  1.0000
  C   C44       1.0  0.54120  0.80000  0.62570  1.0000
  C   C45       1.0  0.87430  0.45880  0.30000  1.0000
  C   C46       1.0  0.12570  0.95880  0.20000  1.0000
  C   C47       1.0  0.37430  0.04120  0.70000  1.0000
  C   C48       1.0  0.62570  0.54120  0.80000  1.0000
  H   H1        1.0  0.71758  0.08800  0.52666  1.0000
  H   H2        1.0  0.78242  0.91200  0.02666  1.0000
  H   H3        1.0  0.28242  0.58800  0.97334  1.0000
  H   H4        1.0  0.21758  0.41200  0.47334  1.0000
  H   H5        1.0  0.52666  0.71758  0.08800  1.0000
  H   H6        1.0  0.02666  0.78242  0.91200  1.0000
  H   H7        1.0  0.97334  0.28242  0.58800  1.0000
  H   H8        1.0  0.47334  0.21758  0.41200  1.0000
  H   H9        1.0  0.08800  0.52666  0.71758  1.0000
  H   H10       1.0  0.91200  0.02666  0.78242  1.0000
  H   H11       1.0  0.58800  0.97334  0.28242  1.0000
  H   H12       1.0  0.41200  0.47334  0.21758  1.0000
  H   H13       1.0  0.28242  0.91200  0.47334  1.0000
  H   H14       1.0  0.21758  0.08800  0.97334  1.0000
  H   H15       1.0  0.71758  0.41200  0.02666  1.0000
  H   H16       1.0  0.78242  0.58800  0.52666  1.0000
  H   H17       1.0  0.47334  0.28242  0.91200  1.0000
  H   H18       1.0  0.97334  0.21758  0.08800  1.0000
  H   H19       1.0  0.02666  0.71758  0.41200  1.0000
  H   H20       1.0  0.52666  0.78242  0.58800  1.0000
  H   H21       1.0  0.91200  0.47334  0.28242  1.0000
  H   H22       1.0  0.08800  0.97334  0.21758  1.0000
  H   H23       1.0  0.41200  0.02666  0.71758  1.0000
  H   H24       1.0  0.58800  0.52666  0.78242  1.0000
  C   C49       1.0  0.64710  0.15200  0.51140  1.0000
  C   C50       1.0  0.85290  0.84800  0.01140  1.0000
  C   C51       1.0  0.35290  0.65200  0.98860  1.0000
  C   C52       1.0  0.14710  0.34800  0.48860  1.0000
  C   C53       1.0  0.51140  0.64710  0.15200  1.0000
  C   C54       1.0  0.01140  0.85290  0.84800  1.0000
  C   C55       1.0  0.98860  0.35290  0.65200  1.0000
  C   C56       1.0  0.48860  0.14710  0.34800  1.0000
  C   C57       1.0  0.15200  0.51140  0.64710  1.0000
  C   C58       1.0  0.84800  0.01140  0.85290  1.0000
  C   C59       1.0  0.65200  0.98860  0.35290  1.0000
  C   C60       1.0  0.34800  0.48860  0.14710  1.0000
  C   C61       1.0  0.35290  0.84800  0.48860  1.0000
  C   C62       1.0  0.14710  0.15200  0.98860  1.0000
  C   C63       1.0  0.64710  0.34800  0.01140  1.0000
  C   C64       1.0  0.85290  0.65200  0.51140  1.0000
  C   C65       1.0  0.48860  0.35290  0.84800  1.0000
  C   C66       1.0  0.98860  0.14710  0.15200  1.0000
  C   C67       1.0  0.01140  0.64710  0.34800  1.0000
  C   C68       1.0  0.51140  0.85290  0.65200  1.0000
  C   C69       1.0  0.84800  0.48860  0.35290  1.0000
  C   C70       1.0  0.15200  0.98860  0.14710  1.0000
  C   C71       1.0  0.34800  0.01140  0.64710  1.0000
  C   C72       1.0  0.65200  0.51140  0.85290  1.0000
  C   C73       1.0  0.72560  0.15690  0.59280  1.0000
  C   C74       1.0  0.77440  0.84310  0.09280  1.0000
  C   C75       1.0  0.27440  0.65690  0.90720  1.0000
  C   C76       1.0  0.22560  0.34310  0.40720  1.0000
  C   C77       1.0  0.59280  0.72560  0.15690  1.0000
  C   C78       1.0  0.09280  0.77440  0.84310  1.0000
  C   C79       1.0  0.90720  0.27440  0.65690  1.0000
  C   C80       1.0  0.40720  0.22560  0.34310  1.0000
  C   C81       1.0  0.15690  0.59280  0.72560  1.0000
  C   C82       1.0  0.84310  0.09280  0.77440  1.0000
  C   C83       1.0  0.65690  0.90720  0.27440  1.0000
  C   C84       1.0  0.34310  0.40720  0.22560  1.0000
  C   C85       1.0  0.27440  0.84310  0.40720  1.0000
  C   C86       1.0  0.22560  0.15690  0.90720  1.0000
  C   C87       1.0  0.72560  0.34310  0.09280  1.0000
  C   C88       1.0  0.77440  0.65690  0.59280  1.0000
  C   C89       1.0  0.40720  0.27440  0.84310  1.0000
  C   C90       1.0  0.90720  0.22560  0.15690  1.0000
  C   C91       1.0  0.09280  0.72560  0.34310  1.0000
  C   C92       1.0  0.59280  0.77440  0.65690  1.0000
  C   C93       1.0  0.84310  0.40720  0.27440  1.0000
  C   C94       1.0  0.15690  0.90720  0.22560  1.0000
  C   C95       1.0  0.34310  0.09280  0.72560  1.0000
  C   C96       1.0  0.65690  0.59280  0.77440  1.0000
  C   C97       1.0  0.70070  0.21250  0.61480  1.0000
  C   C98       1.0  0.79930  0.78750  0.11480  1.0000
  C   C99       1.0  0.29930  0.71250  0.88520  1.0000
  C   C100      1.0  0.20070  0.28750  0.38520  1.0000
  C   C101      1.0  0.61480  0.70070  0.21250  1.0000
  C   C102      1.0  0.11480  0.79930  0.78750  1.0000
  C   C103      1.0  0.88520  0.29930  0.71250  1.0000
  C   C104      1.0  0.38520  0.20070  0.28750  1.0000
  C   C105      1.0  0.21250  0.61480  0.70070  1.0000
  C   C106      1.0  0.78750  0.11480  0.79930  1.0000
  C   C107      1.0  0.71250  0.88520  0.29930  1.0000
  C   C108      1.0  0.28750  0.38520  0.20070  1.0000
  C   C109      1.0  0.29930  0.78750  0.38520  1.0000
  C   C110      1.0  0.20070  0.21250  0.88520  1.0000
  C   C111      1.0  0.70070  0.28750  0.11480  1.0000
  C   C112      1.0  0.79930  0.71250  0.61480  1.0000
  C   C113      1.0  0.38520  0.29930  0.78750  1.0000
  C   C114      1.0  0.88520  0.20070  0.21250  1.0000
  C   C115      1.0  0.11480  0.70070  0.28750  1.0000
  C   C116      1.0  0.61480  0.79930  0.71250  1.0000
  C   C117      1.0  0.78750  0.38520  0.29930  1.0000
  C   C118      1.0  0.21250  0.88520  0.20070  1.0000
  C   C119      1.0  0.28750  0.11480  0.70070  1.0000
  C   C120      1.0  0.71250  0.61480  0.79930  1.0000
  C   C121      1.0  0.64740  0.23670  0.58780  1.0000
  C   C122      1.0  0.85260  0.76330  0.08780  1.0000
  C   C123      1.0  0.35260  0.73670  0.91220  1.0000
  C   C124      1.0  0.14740  0.26330  0.41220  1.0000
  C   C125      1.0  0.58780  0.64740  0.23670  1.0000
  C   C126      1.0  0.08780  0.85260  0.76330  1.0000
  C   C127      1.0  0.91220  0.35260  0.73670  1.0000
  C   C128      1.0  0.41220  0.14740  0.26330  1.0000
  C   C129      1.0  0.23670  0.58780  0.64740  1.0000
  C   C130      1.0  0.76330  0.08780  0.85260  1.0000
  C   C131      1.0  0.73670  0.91220  0.35260  1.0000
  C   C132      1.0  0.26330  0.41220  0.14740  1.0000
  C   C133      1.0  0.35260  0.76330  0.41220  1.0000
  C   C134      1.0  0.14740  0.23670  0.91220  1.0000
  C   C135      1.0  0.64740  0.26330  0.08780  1.0000
  C   C136      1.0  0.85260  0.73670  0.58780  1.0000
  C   C137      1.0  0.41220  0.35260  0.76330  1.0000
  C   C138      1.0  0.91220  0.14740  0.23670  1.0000
  C   C139      1.0  0.08780  0.64740  0.26330  1.0000
  C   C140      1.0  0.58780  0.85260  0.73670  1.0000
  C   C141      1.0  0.76330  0.41220  0.35260  1.0000
  C   C142      1.0  0.23670  0.91220  0.14740  1.0000
  C   C143      1.0  0.26330  0.08780  0.64740  1.0000
  C   C144      1.0  0.73670  0.58780  0.85260  1.0000
  H   H25       1.0  0.62878  0.27307  0.60433  1.0000
  H   H26       1.0  0.87122  0.72693  0.10433  1.0000
  H   H27       1.0  0.37122  0.77307  0.89567  1.0000
  H   H28       1.0  0.12878  0.22693  0.39567  1.0000
  H   H29       1.0  0.60433  0.62878  0.27307  1.0000
  H   H30       1.0  0.10433  0.87122  0.72693  1.0000
  H   H31       1.0  0.89567  0.37122  0.77307  1.0000
  H   H32       1.0  0.39567  0.12878  0.22693  1.0000
  H   H33       1.0  0.27307  0.60433  0.62878  1.0000
  H   H34       1.0  0.72693  0.10433  0.87122  1.0000
  H   H35       1.0  0.77307  0.89567  0.37122  1.0000
  H   H36       1.0  0.22693  0.39567  0.12878  1.0000
  H   H37       1.0  0.37122  0.72693  0.39567  1.0000
  H   H38       1.0  0.12878  0.27307  0.89567  1.0000
  H   H39       1.0  0.62878  0.22693  0.10433  1.0000
  H   H40       1.0  0.87122  0.77307  0.60433  1.0000
  H   H41       1.0  0.39567  0.37122  0.72693  1.0000
  H   H42       1.0  0.89567  0.12878  0.27307  1.0000
  H   H43       1.0  0.10433  0.62878  0.22693  1.0000
  H   H44       1.0  0.60433  0.87122  0.77307  1.0000
  H   H45       1.0  0.72693  0.39567  0.37122  1.0000
  H   H46       1.0  0.27307  0.89567  0.12878  1.0000
  H   H47       1.0  0.22693  0.10433  0.62878  1.0000
  H   H48       1.0  0.77307  0.60433  0.87122  1.0000
  C   C145      1.0  0.62130  0.20740  0.53650  1.0000
  C   C146      1.0  0.87870  0.79260  0.03650  1.0000
  C   C147      1.0  0.37870  0.70740  0.96350  1.0000
  C   C148      1.0  0.12130  0.29260  0.46350  1.0000
  C   C149      1.0  0.53650  0.62130  0.20740  1.0000
  C   C150      1.0  0.03650  0.87870  0.79260  1.0000
  C   C151      1.0  0.96350  0.37870  0.70740  1.0000
  C   C152      1.0  0.46350  0.12130  0.29260  1.0000
  C   C153      1.0  0.20740  0.53650  0.62130  1.0000
  C   C154      1.0  0.79260  0.03650  0.87870  1.0000
  C   C155      1.0  0.70740  0.96350  0.37870  1.0000
  C   C156      1.0  0.29260  0.46350  0.12130  1.0000
  C   C157      1.0  0.37870  0.79260  0.46350  1.0000
  C   C158      1.0  0.12130  0.20740  0.96350  1.0000
  C   C159      1.0  0.62130  0.29260  0.03650  1.0000
  C   C160      1.0  0.87870  0.70740  0.53650  1.0000
  C   C161      1.0  0.46350  0.37870  0.79260  1.0000
  C   C162      1.0  0.96350  0.12130  0.20740  1.0000
  C   C163      1.0  0.03650  0.62130  0.29260  1.0000
  C   C164      1.0  0.53650  0.87870  0.70740  1.0000
  C   C165      1.0  0.79260  0.46350  0.37870  1.0000
  C   C166      1.0  0.20740  0.96350  0.12130  1.0000
  C   C167      1.0  0.29260  0.03650  0.62130  1.0000
  C   C168      1.0  0.70740  0.53650  0.87870  1.0000
  H   H49       1.0  0.58546  0.22475  0.51782  1.0000
  H   H50       1.0  0.91454  0.77525  0.01782  1.0000
  H   H51       1.0  0.41454  0.72475  0.98218  1.0000
  H   H52       1.0  0.08546  0.27525  0.48218  1.0000
  H   H53       1.0  0.51782  0.58546  0.22475  1.0000
  H   H54       1.0  0.01782  0.91454  0.77525  1.0000
  H   H55       1.0  0.98218  0.41454  0.72475  1.0000
  H   H56       1.0  0.48218  0.08546  0.27525  1.0000
  H   H57       1.0  0.22475  0.51782  0.58546  1.0000
  H   H58       1.0  0.77525  0.01782  0.91454  1.0000
  H   H59       1.0  0.72475  0.98218  0.41454  1.0000
  H   H60       1.0  0.27525  0.48218  0.08546  1.0000
  H   H61       1.0  0.41454  0.77525  0.48218  1.0000
  H   H62       1.0  0.08546  0.22475  0.98218  1.0000
  H   H63       1.0  0.58546  0.27525  0.01782  1.0000
  H   H64       1.0  0.91454  0.72475  0.51782  1.0000
  H   H65       1.0  0.48218  0.41454  0.77525  1.0000
  H   H66       1.0  0.98218  0.08546  0.22475  1.0000
  H   H67       1.0  0.01782  0.58546  0.27525  1.0000
  H   H68       1.0  0.51782  0.91454  0.72475  1.0000
  H   H69       1.0  0.77525  0.48218  0.41454  1.0000
  H   H70       1.0  0.22475  0.98218  0.08546  1.0000
  H   H71       1.0  0.27525  0.01782  0.58546  1.0000
  H   H72       1.0  0.72475  0.51782  0.91454  1.0000
