data_image0
_chemical_formula_structural       Ti8O48N24C48H24C96H24C24H24
_chemical_formula_sum              "Ti8 O48 N24 C168 H72"
_cell_length_a       20.9953
_cell_length_b       20.9953
_cell_length_c       20.9953
_cell_angle_alpha    90
_cell_angle_beta     90
_cell_angle_gamma    90

_space_group_name_H-M_alt    "P 1"
_space_group_IT_number       1

loop_
  _space_group_symop_operation_xyz
  'x, y, z'

loop_
  _atom_site_type_symbol
  _atom_site_label
  _atom_site_symmetry_multiplicity
  _atom_site_fract_x
  _atom_site_fract_y
  _atom_site_fract_z
  _atom_site_occupancy
  Ti  Ti1       1.0  0.19443  0.30557  0.69443  1.0000
  Ti  Ti2       1.0  0.30557  0.69443  0.19443  1.0000
  Ti  Ti3       1.0  0.80557  0.80557  0.80557  1.0000
  Ti  Ti4       1.0  0.69443  0.19443  0.30557  1.0000
  Ti  Ti5       1.0  0.80557  0.69443  0.30557  1.0000
  Ti  Ti6       1.0  0.69443  0.30557  0.80557  1.0000
  Ti  Ti7       1.0  0.19443  0.19443  0.19443  1.0000
  Ti  Ti8       1.0  0.30557  0.80557  0.69443  1.0000
  O   O1        1.0  0.22440  0.36258  0.62730  1.0000
  O   O2        1.0  0.27560  0.63742  0.12730  1.0000
  O   O3        1.0  0.77560  0.86258  0.87270  1.0000
  O   O4        1.0  0.72440  0.13742  0.37270  1.0000
  O   O5        1.0  0.62730  0.22440  0.36258  1.0000
  O   O6        1.0  0.12730  0.27560  0.63742  1.0000
  O   O7        1.0  0.87270  0.77560  0.86258  1.0000
  O   O8        1.0  0.37270  0.72440  0.13742  1.0000
  O   O9        1.0  0.36258  0.62730  0.22440  1.0000
  O   O10       1.0  0.63742  0.12730  0.27560  1.0000
  O   O11       1.0  0.86258  0.87270  0.77560  1.0000
  O   O12       1.0  0.13742  0.37270  0.72440  1.0000
  O   O13       1.0  0.77560  0.63742  0.37270  1.0000
  O   O14       1.0  0.72440  0.36258  0.87270  1.0000
  O   O15       1.0  0.22440  0.13742  0.12730  1.0000
  O   O16       1.0  0.27560  0.86258  0.62730  1.0000
  O   O17       1.0  0.37270  0.77560  0.63742  1.0000
  O   O18       1.0  0.87270  0.72440  0.36258  1.0000
  O   O19       1.0  0.12730  0.22440  0.13742  1.0000
  O   O20       1.0  0.62730  0.27560  0.86258  1.0000
  O   O21       1.0  0.63742  0.37270  0.77560  1.0000
  O   O22       1.0  0.36258  0.87270  0.72440  1.0000
  O   O23       1.0  0.13742  0.12730  0.22440  1.0000
  O   O24       1.0  0.86258  0.62730  0.27560  1.0000
  O   O25       1.0  0.27030  0.25950  0.66660  1.0000
  O   O26       1.0  0.22970  0.74050  0.16660  1.0000
  O   O27       1.0  0.72970  0.75950  0.83340  1.0000
  O   O28       1.0  0.77030  0.24050  0.33340  1.0000
  O   O29       1.0  0.66660  0.27030  0.25950  1.0000
  O   O30       1.0  0.16660  0.22970  0.74050  1.0000
  O   O31       1.0  0.83340  0.72970  0.75950  1.0000
  O   O32       1.0  0.33340  0.77030  0.24050  1.0000
  O   O33       1.0  0.25950  0.66660  0.27030  1.0000
  O   O34       1.0  0.74050  0.16660  0.22970  1.0000
  O   O35       1.0  0.75950  0.83340  0.72970  1.0000
  O   O36       1.0  0.24050  0.33340  0.77030  1.0000
  O   O37       1.0  0.72970  0.74050  0.33340  1.0000
  O   O38       1.0  0.77030  0.25950  0.83340  1.0000
  O   O39       1.0  0.27030  0.24050  0.16660  1.0000
  O   O40       1.0  0.22970  0.75950  0.66660  1.0000
  O   O41       1.0  0.33340  0.72970  0.74050  1.0000
  O   O42       1.0  0.83340  0.77030  0.25950  1.0000
  O   O43       1.0  0.16660  0.27030  0.24050  1.0000
  O   O44       1.0  0.66660  0.22970  0.75950  1.0000
  O   O45       1.0  0.74050  0.33340  0.72970  1.0000
  O   O46       1.0  0.25950  0.83340  0.77030  1.0000
  O   O47       1.0  0.24050  0.16660  0.27030  1.0000
  O   O48       1.0  0.75950  0.66660  0.22970  1.0000
  N   N1        1.0  0.35430  0.43060  0.43460  1.0000
  N   N2        1.0  0.14570  0.56940  0.93460  1.0000
  N   N3        1.0  0.64570  0.93060  0.06540  1.0000
  N   N4        1.0  0.85430  0.06940  0.56540  1.0000
  N   N5        1.0  0.43460  0.35430  0.43060  1.0000
  N   N6        1.0  0.93460  0.14570  0.56940  1.0000
  N   N7        1.0  0.06540  0.64570  0.93060  1.0000
  N   N8        1.0  0.56540  0.85430  0.06940  1.0000
  N   N9        1.0  0.43060  0.43460  0.35430  1.0000
  N   N10       1.0  0.56940  0.93460  0.14570  1.0000
  N   N11       1.0  0.93060  0.06540  0.64570  1.0000
  N   N12       1.0  0.06940  0.56540  0.85430  1.0000
  N   N13       1.0  0.64570  0.56940  0.56540  1.0000
  N   N14       1.0  0.85430  0.43060  0.06540  1.0000
  N   N15       1.0  0.35430  0.06940  0.93460  1.0000
  N   N16       1.0  0.14570  0.93060  0.43460  1.0000
  N   N17       1.0  0.56540  0.64570  0.56940  1.0000
  N   N18       1.0  0.06540  0.85430  0.43060  1.0000
  N   N19       1.0  0.93460  0.35430  0.06940  1.0000
  N   N20       1.0  0.43460  0.14570  0.93060  1.0000
  N   N21       1.0  0.56940  0.56540  0.64570  1.0000
  N   N22       1.0  0.43060  0.06540  0.85430  1.0000
  N   N23       1.0  0.06940  0.93460  0.35430  1.0000
  N   N24       1.0  0.93060  0.43460  0.14570  1.0000
  C   C1        1.0  0.38240  0.37830  0.45750  1.0000
  C   C2        1.0  0.11760  0.62170  0.95750  1.0000
  C   C3        1.0  0.61760  0.87830  0.04250  1.0000
  C   C4        1.0  0.88240  0.12170  0.54250  1.0000
  C   C5        1.0  0.45750  0.38240  0.37830  1.0000
  C   C6        1.0  0.95750  0.11760  0.62170  1.0000
  C   C7        1.0  0.04250  0.61760  0.87830  1.0000
  C   C8        1.0  0.54250  0.88240  0.12170  1.0000
  C   C9        1.0  0.37830  0.45750  0.38240  1.0000
  C   C10       1.0  0.62170  0.95750  0.11760  1.0000
  C   C11       1.0  0.87830  0.04250  0.61760  1.0000
  C   C12       1.0  0.12170  0.54250  0.88240  1.0000
  C   C13       1.0  0.61760  0.62170  0.54250  1.0000
  C   C14       1.0  0.88240  0.37830  0.04250  1.0000
  C   C15       1.0  0.38240  0.12170  0.95750  1.0000
  C   C16       1.0  0.11760  0.87830  0.45750  1.0000
  C   C17       1.0  0.54250  0.61760  0.62170  1.0000
  C   C18       1.0  0.04250  0.88240  0.37830  1.0000
  C   C19       1.0  0.95750  0.38240  0.12170  1.0000
  C   C20       1.0  0.45750  0.11760  0.87830  1.0000
  C   C21       1.0  0.62170  0.54250  0.61760  1.0000
  C   C22       1.0  0.37830  0.04250  0.88240  1.0000
  C   C23       1.0  0.12170  0.95750  0.38240  1.0000
  C   C24       1.0  0.87830  0.45750  0.11760  1.0000
  C   C25       1.0  0.30290  0.37330  0.54280  1.0000
  C   C26       1.0  0.19710  0.62670  0.04280  1.0000
  C   C27       1.0  0.69710  0.87330  0.95720  1.0000
  C   C28       1.0  0.80290  0.12670  0.45720  1.0000
  C   C29       1.0  0.54280  0.30290  0.37330  1.0000
  C   C30       1.0  0.04280  0.19710  0.62670  1.0000
  C   C31       1.0  0.95720  0.69710  0.87330  1.0000
  C   C32       1.0  0.45720  0.80290  0.12670  1.0000
  C   C33       1.0  0.37330  0.54280  0.30290  1.0000
  C   C34       1.0  0.62670  0.04280  0.19710  1.0000
  C   C35       1.0  0.87330  0.95720  0.69710  1.0000
  C   C36       1.0  0.12670  0.45720  0.80290  1.0000
  C   C37       1.0  0.69710  0.62670  0.45720  1.0000
  C   C38       1.0  0.80290  0.37330  0.95720  1.0000
  C   C39       1.0  0.30290  0.12670  0.04280  1.0000
  C   C40       1.0  0.19710  0.87330  0.54280  1.0000
  C   C41       1.0  0.45720  0.69710  0.62670  1.0000
  C   C42       1.0  0.95720  0.80290  0.37330  1.0000
  C   C43       1.0  0.04280  0.30290  0.12670  1.0000
  C   C44       1.0  0.54280  0.19710  0.87330  1.0000
  C   C45       1.0  0.62670  0.45720  0.69710  1.0000
  C   C46       1.0  0.37330  0.95720  0.80290  1.0000
  C   C47       1.0  0.12670  0.04280  0.30290  1.0000
  C   C48       1.0  0.87330  0.54280  0.19710  1.0000
  H   H1        1.0  0.28583  0.41138  0.52787  1.0000
  H   H2        1.0  0.21417  0.58862  0.02787  1.0000
  H   H3        1.0  0.71417  0.91138  0.97213  1.0000
  H   H4        1.0  0.78583  0.08862  0.47213  1.0000
  H   H5        1.0  0.52787  0.28583  0.41138  1.0000
  H   H6        1.0  0.02787  0.21417  0.58862  1.0000
  H   H7        1.0  0.97213  0.71417  0.91138  1.0000
  H   H8        1.0  0.47213  0.78583  0.08862  1.0000
  H   H9        1.0  0.41138  0.52787  0.28583  1.0000
  H   H10       1.0  0.58862  0.02787  0.21417  1.0000
  H   H11       1.0  0.91138  0.97213  0.71417  1.0000
  H   H12       1.0  0.08862  0.47213  0.78583  1.0000
  H   H13       1.0  0.71417  0.58862  0.47213  1.0000
  H   H14       1.0  0.78583  0.41138  0.97213  1.0000
  H   H15       1.0  0.28583  0.08862  0.02787  1.0000
  H   H16       1.0  0.21417  0.91138  0.52787  1.0000
  H   H17       1.0  0.47213  0.71417  0.58862  1.0000
  H   H18       1.0  0.97213  0.78583  0.41138  1.0000
  H   H19       1.0  0.02787  0.28583  0.08862  1.0000
  H   H20       1.0  0.52787  0.21417  0.91138  1.0000
  H   H21       1.0  0.58862  0.47213  0.71417  1.0000
  H   H22       1.0  0.41138  0.97213  0.78583  1.0000
  H   H23       1.0  0.08862  0.02787  0.28583  1.0000
  H   H24       1.0  0.91138  0.52787  0.21417  1.0000
  C   C49       1.0  0.27550  0.34220  0.59450  1.0000
  C   C50       1.0  0.22450  0.65780  0.09450  1.0000
  C   C51       1.0  0.72450  0.84220  0.90550  1.0000
  C   C52       1.0  0.77550  0.15780  0.40550  1.0000
  C   C53       1.0  0.59450  0.27550  0.34220  1.0000
  C   C54       1.0  0.09450  0.22450  0.65780  1.0000
  C   C55       1.0  0.90550  0.72450  0.84220  1.0000
  C   C56       1.0  0.40550  0.77550  0.15780  1.0000
  C   C57       1.0  0.34220  0.59450  0.27550  1.0000
  C   C58       1.0  0.65780  0.09450  0.22450  1.0000
  C   C59       1.0  0.84220  0.90550  0.72450  1.0000
  C   C60       1.0  0.15780  0.40550  0.77550  1.0000
  C   C61       1.0  0.72450  0.65780  0.40550  1.0000
  C   C62       1.0  0.77550  0.34220  0.90550  1.0000
  C   C63       1.0  0.27550  0.15780  0.09450  1.0000
  C   C64       1.0  0.22450  0.84220  0.59450  1.0000
  C   C65       1.0  0.40550  0.72450  0.65780  1.0000
  C   C66       1.0  0.90550  0.77550  0.34220  1.0000
  C   C67       1.0  0.09450  0.27550  0.15780  1.0000
  C   C68       1.0  0.59450  0.22450  0.84220  1.0000
  C   C69       1.0  0.65780  0.40550  0.72450  1.0000
  C   C70       1.0  0.34220  0.90550  0.77550  1.0000
  C   C71       1.0  0.15780  0.09450  0.27550  1.0000
  C   C72       1.0  0.84220  0.59450  0.22450  1.0000
  C   C73       1.0  0.35470  0.34730  0.51450  1.0000
  C   C74       1.0  0.14530  0.65270  0.01450  1.0000
  C   C75       1.0  0.64530  0.84730  0.98550  1.0000
  C   C76       1.0  0.85470  0.15270  0.48550  1.0000
  C   C77       1.0  0.51450  0.35470  0.34730  1.0000
  C   C78       1.0  0.01450  0.14530  0.65270  1.0000
  C   C79       1.0  0.98550  0.64530  0.84730  1.0000
  C   C80       1.0  0.48550  0.85470  0.15270  1.0000
  C   C81       1.0  0.34730  0.51450  0.35470  1.0000
  C   C82       1.0  0.65270  0.01450  0.14530  1.0000
  C   C83       1.0  0.84730  0.98550  0.64530  1.0000
  C   C84       1.0  0.15270  0.48550  0.85470  1.0000
  C   C85       1.0  0.64530  0.65270  0.48550  1.0000
  C   C86       1.0  0.85470  0.34730  0.98550  1.0000
  C   C87       1.0  0.35470  0.15270  0.01450  1.0000
  C   C88       1.0  0.14530  0.84730  0.51450  1.0000
  C   C89       1.0  0.48550  0.64530  0.65270  1.0000
  C   C90       1.0  0.98550  0.85470  0.34730  1.0000
  C   C91       1.0  0.01450  0.35470  0.15270  1.0000
  C   C92       1.0  0.51450  0.14530  0.84730  1.0000
  C   C93       1.0  0.65270  0.48550  0.64530  1.0000
  C   C94       1.0  0.34730  0.98550  0.85470  1.0000
  C   C95       1.0  0.15270  0.01450  0.35470  1.0000
  C   C96       1.0  0.84730  0.51450  0.14530  1.0000
  C   C97       1.0  0.30220  0.28550  0.61630  1.0000
  C   C98       1.0  0.19780  0.71450  0.11630  1.0000
  C   C99       1.0  0.69780  0.78550  0.88370  1.0000
  C   C100      1.0  0.80220  0.21450  0.38370  1.0000
  C   C101      1.0  0.61630  0.30220  0.28550  1.0000
  C   C102      1.0  0.11630  0.19780  0.71450  1.0000
  C   C103      1.0  0.88370  0.69780  0.78550  1.0000
  C   C104      1.0  0.38370  0.80220  0.21450  1.0000
  C   C105      1.0  0.28550  0.61630  0.30220  1.0000
  C   C106      1.0  0.71450  0.11630  0.19780  1.0000
  C   C107      1.0  0.78550  0.88370  0.69780  1.0000
  C   C108      1.0  0.21450  0.38370  0.80220  1.0000
  C   C109      1.0  0.69780  0.71450  0.38370  1.0000
  C   C110      1.0  0.80220  0.28550  0.88370  1.0000
  C   C111      1.0  0.30220  0.21450  0.11630  1.0000
  C   C112      1.0  0.19780  0.78550  0.61630  1.0000
  C   C113      1.0  0.38370  0.69780  0.71450  1.0000
  C   C114      1.0  0.88370  0.80220  0.28550  1.0000
  C   C115      1.0  0.11630  0.30220  0.21450  1.0000
  C   C116      1.0  0.61630  0.19780  0.78550  1.0000
  C   C117      1.0  0.71450  0.38370  0.69780  1.0000
  C   C118      1.0  0.28550  0.88370  0.80220  1.0000
  C   C119      1.0  0.21450  0.11630  0.30220  1.0000
  C   C120      1.0  0.78550  0.61630  0.19780  1.0000
  C   C121      1.0  0.35710  0.26130  0.58910  1.0000
  C   C122      1.0  0.14290  0.73870  0.08910  1.0000
  C   C123      1.0  0.64290  0.76130  0.91090  1.0000
  C   C124      1.0  0.85710  0.23870  0.41090  1.0000
  C   C125      1.0  0.58910  0.35710  0.26130  1.0000
  C   C126      1.0  0.08910  0.14290  0.73870  1.0000
  C   C127      1.0  0.91090  0.64290  0.76130  1.0000
  C   C128      1.0  0.41090  0.85710  0.23870  1.0000
  C   C129      1.0  0.26130  0.58910  0.35710  1.0000
  C   C130      1.0  0.73870  0.08910  0.14290  1.0000
  C   C131      1.0  0.76130  0.91090  0.64290  1.0000
  C   C132      1.0  0.23870  0.41090  0.85710  1.0000
  C   C133      1.0  0.64290  0.73870  0.41090  1.0000
  C   C134      1.0  0.85710  0.26130  0.91090  1.0000
  C   C135      1.0  0.35710  0.23870  0.08910  1.0000
  C   C136      1.0  0.14290  0.76130  0.58910  1.0000
  C   C137      1.0  0.41090  0.64290  0.73870  1.0000
  C   C138      1.0  0.91090  0.85710  0.26130  1.0000
  C   C139      1.0  0.08910  0.35710  0.23870  1.0000
  C   C140      1.0  0.58910  0.14290  0.76130  1.0000
  C   C141      1.0  0.73870  0.41090  0.64290  1.0000
  C   C142      1.0  0.26130  0.91090  0.85710  1.0000
  C   C143      1.0  0.23870  0.08910  0.35710  1.0000
  C   C144      1.0  0.76130  0.58910  0.14290  1.0000
  H   H25       1.0  0.37621  0.22487  0.60559  1.0000
  H   H26       1.0  0.12379  0.77513  0.10559  1.0000
  H   H27       1.0  0.62379  0.72487  0.89441  1.0000
  H   H28       1.0  0.87621  0.27513  0.39441  1.0000
  H   H29       1.0  0.60559  0.37621  0.22487  1.0000
  H   H30       1.0  0.10559  0.12379  0.77513  1.0000
  H   H31       1.0  0.89441  0.62379  0.72487  1.0000
  H   H32       1.0  0.39441  0.87621  0.27513  1.0000
  H   H33       1.0  0.22487  0.60559  0.37621  1.0000
  H   H34       1.0  0.77513  0.10559  0.12379  1.0000
  H   H35       1.0  0.72487  0.89441  0.62379  1.0000
  H   H36       1.0  0.27513  0.39441  0.87621  1.0000
  H   H37       1.0  0.62379  0.77513  0.39441  1.0000
  H   H38       1.0  0.87621  0.22487  0.89441  1.0000
  H   H39       1.0  0.37621  0.27513  0.10559  1.0000
  H   H40       1.0  0.12379  0.72487  0.60559  1.0000
  H   H41       1.0  0.39441  0.62379  0.77513  1.0000
  H   H42       1.0  0.89441  0.87621  0.22487  1.0000
  H   H43       1.0  0.10559  0.37621  0.27513  1.0000
  H   H44       1.0  0.60559  0.12379  0.72487  1.0000
  H   H45       1.0  0.77513  0.39441  0.62379  1.0000
  H   H46       1.0  0.22487  0.89441  0.87621  1.0000
  H   H47       1.0  0.27513  0.10559  0.37621  1.0000
  H   H48       1.0  0.72487  0.60559  0.12379  1.0000
  C   C145      1.0  0.38340  0.29230  0.53690  1.0000
  C   C146      1.0  0.11660  0.70770  0.03690  1.0000
  C   C147      1.0  0.61660  0.79230  0.96310  1.0000
  C   C148      1.0  0.88340  0.20770  0.46310  1.0000
  C   C149      1.0  0.53690  0.38340  0.29230  1.0000
  C   C150      1.0  0.03690  0.11660  0.70770  1.0000
  C   C151      1.0  0.96310  0.61660  0.79230  1.0000
  C   C152      1.0  0.46310  0.88340  0.20770  1.0000
  C   C153      1.0  0.29230  0.53690  0.38340  1.0000
  C   C154      1.0  0.70770  0.03690  0.11660  1.0000
  C   C155      1.0  0.79230  0.96310  0.61660  1.0000
  C   C156      1.0  0.20770  0.46310  0.88340  1.0000
  C   C157      1.0  0.61660  0.70770  0.46310  1.0000
  C   C158      1.0  0.88340  0.29230  0.96310  1.0000
  C   C159      1.0  0.38340  0.20770  0.03690  1.0000
  C   C160      1.0  0.11660  0.79230  0.53690  1.0000
  C   C161      1.0  0.46310  0.61660  0.70770  1.0000
  C   C162      1.0  0.96310  0.88340  0.29230  1.0000
  C   C163      1.0  0.03690  0.38340  0.20770  1.0000
  C   C164      1.0  0.53690  0.11660  0.79230  1.0000
  C   C165      1.0  0.70770  0.46310  0.61660  1.0000
  C   C166      1.0  0.29230  0.96310  0.88340  1.0000
  C   C167      1.0  0.20770  0.03690  0.38340  1.0000
  C   C168      1.0  0.79230  0.53690  0.11660  1.0000
  H   H49       1.0  0.41966  0.27628  0.51719  1.0000
  H   H50       1.0  0.08034  0.72372  0.01719  1.0000
  H   H51       1.0  0.58034  0.77628  0.98281  1.0000
  H   H52       1.0  0.91966  0.22372  0.48281  1.0000
  H   H53       1.0  0.51719  0.41966  0.27628  1.0000
  H   H54       1.0  0.01719  0.08034  0.72372  1.0000
  H   H55       1.0  0.98281  0.58034  0.77628  1.0000
  H   H56       1.0  0.48281  0.91966  0.22372  1.0000
  H   H57       1.0  0.27628  0.51719  0.41966  1.0000
  H   H58       1.0  0.72372  0.01719  0.08034  1.0000
  H   H59       1.0  0.77628  0.98281  0.58034  1.0000
  H   H60       1.0  0.22372  0.48281  0.91966  1.0000
  H   H61       1.0  0.58034  0.72372  0.48281  1.0000
  H   H62       1.0  0.91966  0.27628  0.98281  1.0000
  H   H63       1.0  0.41966  0.22372  0.01719  1.0000
  H   H64       1.0  0.08034  0.77628  0.51719  1.0000
  H   H65       1.0  0.48281  0.58034  0.72372  1.0000
  H   H66       1.0  0.98281  0.91966  0.27628  1.0000
  H   H67       1.0  0.01719  0.41966  0.22372  1.0000
  H   H68       1.0  0.51719  0.08034  0.77628  1.0000
  H   H69       1.0  0.72372  0.48281  0.58034  1.0000
  H   H70       1.0  0.27628  0.98281  0.91966  1.0000
  H   H71       1.0  0.22372  0.01719  0.41966  1.0000
  H   H72       1.0  0.77628  0.51719  0.08034  1.0000
