data_image0
_chemical_formula_structural       In2O8C4H4C28H8O8
_chemical_formula_sum              "In2 O16 C32 H12"
_cell_length_a       9.9843
_cell_length_b       9.9843
_cell_length_c       18.2816
_cell_angle_alpha    90
_cell_angle_beta     90
_cell_angle_gamma    90

_space_group_name_H-M_alt    "P 1"
_space_group_IT_number       1

loop_
  _space_group_symop_operation_xyz
  'x, y, z'

loop_
  _atom_site_type_symbol
  _atom_site_label
  _atom_site_symmetry_multiplicity
  _atom_site_fract_x
  _atom_site_fract_y
  _atom_site_fract_z
  _atom_site_occupancy
  In  In1       1.0  0.50000  0.50000  0.25000  1.0000
  In  In2       1.0  0.50000  0.50000  0.75000  1.0000
  O   O1        1.0  0.35780  0.50000  0.15746  1.0000
  O   O2        1.0  0.50000  0.35780  0.65746  1.0000
  O   O3        1.0  0.64220  0.50000  0.15746  1.0000
  O   O4        1.0  0.50000  0.64220  0.65746  1.0000
  O   O5        1.0  0.35780  0.50000  0.84254  1.0000
  O   O6        1.0  0.64220  0.50000  0.84254  1.0000
  O   O7        1.0  0.50000  0.35780  0.34254  1.0000
  O   O8        1.0  0.50000  0.64220  0.34254  1.0000
  C   C1        1.0  0.00000  0.50000  0.19340  1.0000
  C   C2        1.0  0.50000  0.00000  0.69340  1.0000
  C   C3        1.0  0.00000  0.50000  0.80660  1.0000
  C   C4        1.0  0.50000  0.00000  0.30660  1.0000
  H   H1        1.0  0.00000  0.50000  0.24540  1.0000
  H   H2        1.0  0.50000  0.00000  0.74540  1.0000
  H   H3        1.0  0.00000  0.50000  0.75460  1.0000
  H   H4        1.0  0.50000  0.00000  0.25460  1.0000
  C   C5        1.0  0.12000  0.50000  0.15710  1.0000
  C   C6        1.0  0.50000  0.12000  0.65710  1.0000
  C   C7        1.0  0.88000  0.50000  0.15710  1.0000
  C   C8        1.0  0.50000  0.88000  0.65710  1.0000
  C   C9        1.0  0.12000  0.50000  0.84290  1.0000
  C   C10       1.0  0.88000  0.50000  0.84290  1.0000
  C   C11       1.0  0.50000  0.12000  0.34290  1.0000
  C   C12       1.0  0.50000  0.88000  0.34290  1.0000
  C   C13       1.0  0.00000  0.50000  0.04080  1.0000
  C   C14       1.0  0.50000  0.00000  0.54080  1.0000
  C   C15       1.0  0.00000  0.50000  0.95920  1.0000
  C   C16       1.0  0.50000  0.00000  0.45920  1.0000
  C   C17       1.0  0.25110  0.50000  0.19650  1.0000
  C   C18       1.0  0.50000  0.25110  0.69650  1.0000
  C   C19       1.0  0.74890  0.50000  0.19650  1.0000
  C   C20       1.0  0.50000  0.74890  0.69650  1.0000
  C   C21       1.0  0.25110  0.50000  0.80350  1.0000
  C   C22       1.0  0.74890  0.50000  0.80350  1.0000
  C   C23       1.0  0.50000  0.25110  0.30350  1.0000
  C   C24       1.0  0.50000  0.74890  0.30350  1.0000
  C   C25       1.0  0.12030  0.50000  0.07940  1.0000
  C   C26       1.0  0.50000  0.12030  0.57940  1.0000
  C   C27       1.0  0.87970  0.50000  0.07940  1.0000
  C   C28       1.0  0.50000  0.87970  0.57940  1.0000
  C   C29       1.0  0.12030  0.50000  0.92060  1.0000
  C   C30       1.0  0.87970  0.50000  0.92060  1.0000
  C   C31       1.0  0.50000  0.12030  0.42060  1.0000
  C   C32       1.0  0.50000  0.87970  0.42060  1.0000
  H   H5        1.0  0.20300  0.50000  0.05360  1.0000
  H   H6        1.0  0.50000  0.20300  0.55360  1.0000
  H   H7        1.0  0.79700  0.50000  0.05360  1.0000
  H   H8        1.0  0.50000  0.79700  0.55360  1.0000
  H   H9        1.0  0.20300  0.50000  0.94640  1.0000
  H   H10       1.0  0.79700  0.50000  0.94640  1.0000
  H   H11       1.0  0.50000  0.20300  0.44640  1.0000
  H   H12       1.0  0.50000  0.79700  0.44640  1.0000
  O   O9        1.0  0.25970  0.50000  0.26310  1.0000
  O   O10       1.0  0.50000  0.25970  0.76310  1.0000
  O   O11       1.0  0.74030  0.50000  0.26310  1.0000
  O   O12       1.0  0.50000  0.74030  0.76310  1.0000
  O   O13       1.0  0.25970  0.50000  0.73690  1.0000
  O   O14       1.0  0.74030  0.50000  0.73690  1.0000
  O   O15       1.0  0.50000  0.25970  0.23690  1.0000
  O   O16       1.0  0.50000  0.74030  0.23690  1.0000
