data_image0
_chemical_formula_structural       CoO4N4C2H2C2H2C4H2C2H2C2H2C2H2C4H2C2H2S2O10H4
_chemical_formula_sum              "Co1 O14 N4 C20 H20 S2"
_cell_length_a       9.2199
_cell_length_b       10.4012
_cell_length_c       10.7677
_cell_angle_alpha    74.379
_cell_angle_beta     76.648
_cell_angle_gamma    68.213

_space_group_name_H-M_alt    "P 1"
_space_group_IT_number       1

loop_
  _space_group_symop_operation_xyz
  'x, y, z'

loop_
  _atom_site_type_symbol
  _atom_site_label
  _atom_site_symmetry_multiplicity
  _atom_site_fract_x
  _atom_site_fract_y
  _atom_site_fract_z
  _atom_site_occupancy
  Co  Co1       1.0  0.00000  0.00000  0.00000  1.0000
  O   O1        1.0  0.81130  0.95062  0.96540  1.0000
  O   O2        1.0  0.18870  0.04938  0.03460  1.0000
  O   O3        1.0  0.38540  0.24360  0.15267  1.0000
  O   O4        1.0  0.61460  0.75640  0.84733  1.0000
  N   N1        1.0  0.75450  0.00190  0.85160  1.0000
  N   N2        1.0  0.24550  0.99810  0.14840  1.0000
  N   N3        1.0  0.44300  0.21150  0.26270  1.0000
  N   N4        1.0  0.55700  0.78850  0.73730  1.0000
  C   C1        1.0  0.60570  0.09310  0.84760  1.0000
  C   C2        1.0  0.39430  0.90690  0.15240  1.0000
  H   H1        1.0  0.54530  0.12550  0.92310  1.0000
  H   H2        1.0  0.45470  0.87450  0.07690  1.0000
  C   C3        1.0  0.54230  0.13860  0.73360  1.0000
  C   C4        1.0  0.45770  0.86140  0.26640  1.0000
  H   H3        1.0  0.43780  0.20050  0.73220  1.0000
  H   H4        1.0  0.56220  0.79950  0.26780  1.0000
  C   C5        1.0  0.63110  0.09410  0.61940  1.0000
  C   C6        1.0  0.36890  0.90590  0.38060  1.0000
  C   C7        1.0  0.78590  0.00200  0.62800  1.0000
  C   C8        1.0  0.21410  0.99800  0.37200  1.0000
  H   H5        1.0  0.85080  0.97070  0.55350  1.0000
  H   H6        1.0  0.14920  0.02930  0.44650  1.0000
  C   C9        1.0  0.84350  0.95740  0.74410  1.0000
  C   C10       1.0  0.15650  0.04260  0.25590  1.0000
  H   H7        1.0  0.94710  0.89450  0.74850  1.0000
  H   H8        1.0  0.05290  0.10550  0.25150  1.0000
  C   C11       1.0  0.34910  0.25170  0.37220  1.0000
  C   C12       1.0  0.65090  0.74830  0.62780  1.0000
  H   H9        1.0  0.24190  0.30490  0.36890  1.0000
  H   H10       1.0  0.75810  0.69510  0.63110  1.0000
  C   C13       1.0  0.40740  0.21640  0.48740  1.0000
  C   C14       1.0  0.59260  0.78360  0.51260  1.0000
  H   H11       1.0  0.33970  0.24570  0.56180  1.0000
  H   H12       1.0  0.66030  0.75430  0.43820  1.0000
  C   C15       1.0  0.56590  0.13760  0.49550  1.0000
  C   C16       1.0  0.43410  0.86240  0.50450  1.0000
  C   C17       1.0  0.65900  0.09740  0.38120  1.0000
  C   C18       1.0  0.34100  0.90260  0.61880  1.0000
  H   H13       1.0  0.76660  0.04440  0.38230  1.0000
  H   H14       1.0  0.23340  0.95560  0.61770  1.0000
  C   C19       1.0  0.59750  0.13340  0.26730  1.0000
  C   C20       1.0  0.40250  0.86660  0.73270  1.0000
  H   H15       1.0  0.66260  0.10380  0.19210  1.0000
  H   H16       1.0  0.33740  0.89620  0.80790  1.0000
  S   S1        1.0  0.98794  0.77579  0.28959  1.0000
  S   S2        1.0  0.01206  0.22421  0.71041  1.0000
  O   O5        1.0  0.94460  0.91519  0.19800  1.0000
  O   O6        1.0  0.05540  0.08481  0.80200  1.0000
  O   O7        1.0  0.15130  0.68960  0.24176  1.0000
  O   O8        1.0  0.84870  0.31040  0.75824  1.0000
  O   O9        1.0  0.87920  0.70040  0.29031  1.0000
  O   O10       1.0  0.12080  0.29960  0.70969  1.0000
  O   O11       1.0  0.97730  0.79751  0.41982  1.0000
  O   O12       1.0  0.02270  0.20249  0.58018  1.0000
  O   O13       1.0  0.83460  0.19799  0.01800  1.0000
  O   O14       1.0  0.16540  0.80201  0.98200  1.0000
  H   H17       1.0  0.82000  0.23900  0.94200  1.0000
  H   H18       1.0  0.18000  0.76100  0.05800  1.0000
  H   H19       1.0  0.85600  0.24700  0.04800  1.0000
  H   H20       1.0  0.14400  0.75300  0.95200  1.0000
