data_image0
_chemical_formula_structural       C8H8C16H8C24H8C16H8C16H8C16N24H8O40Zn8
_chemical_formula_sum              "C96 H48 N24 O40 Zn8"
_cell_length_a       13.338
_cell_length_b       23.519
_cell_length_c       19.056
_cell_angle_alpha    90
_cell_angle_beta     90
_cell_angle_gamma    90

_space_group_name_H-M_alt    "P 1"
_space_group_IT_number       1

loop_
  _space_group_symop_operation_xyz
  'x, y, z'

loop_
  _atom_site_type_symbol
  _atom_site_label
  _atom_site_symmetry_multiplicity
  _atom_site_fract_x
  _atom_site_fract_y
  _atom_site_fract_z
  _atom_site_occupancy
  C   C1        1.0  0.41680  0.28455  0.89110  1.0000
  C   C2        1.0  0.08320  0.21545  0.39110  1.0000
  C   C3        1.0  0.91680  0.21545  0.10890  1.0000
  C   C4        1.0  0.58320  0.28455  0.60890  1.0000
  C   C5        1.0  0.58320  0.71545  0.10890  1.0000
  C   C6        1.0  0.91680  0.78455  0.60890  1.0000
  C   C7        1.0  0.08320  0.78455  0.89110  1.0000
  C   C8        1.0  0.41680  0.71545  0.39110  1.0000
  H   H1        1.0  0.40692  0.24687  0.90412  1.0000
  H   H2        1.0  0.09308  0.25313  0.40412  1.0000
  H   H3        1.0  0.90692  0.25313  0.09588  1.0000
  H   H4        1.0  0.59308  0.24687  0.59588  1.0000
  H   H5        1.0  0.59308  0.75313  0.09588  1.0000
  H   H6        1.0  0.90692  0.74687  0.59588  1.0000
  H   H7        1.0  0.09308  0.74687  0.90412  1.0000
  H   H8        1.0  0.40692  0.75313  0.40412  1.0000
  C   C9        1.0  0.39870  0.33113  0.93360  1.0000
  C   C10       1.0  0.10130  0.16887  0.43360  1.0000
  C   C11       1.0  0.89870  0.16887  0.06640  1.0000
  C   C12       1.0  0.60130  0.33113  0.56640  1.0000
  C   C13       1.0  0.60130  0.66887  0.06640  1.0000
  C   C14       1.0  0.89870  0.83113  0.56640  1.0000
  C   C15       1.0  0.10130  0.83113  0.93360  1.0000
  C   C16       1.0  0.39870  0.66887  0.43360  1.0000
  C   C17       1.0  0.42380  0.37829  0.89181  1.0000
  C   C18       1.0  0.07620  0.12171  0.39181  1.0000
  C   C19       1.0  0.92380  0.12171  0.10819  1.0000
  C   C20       1.0  0.57620  0.37829  0.60819  1.0000
  C   C21       1.0  0.57620  0.62171  0.10819  1.0000
  C   C22       1.0  0.92380  0.87829  0.60819  1.0000
  C   C23       1.0  0.07620  0.87829  0.89181  1.0000
  C   C24       1.0  0.42380  0.62171  0.39181  1.0000
  H   H9        1.0  0.41948  0.41617  0.90548  1.0000
  H   H10       1.0  0.08052  0.08383  0.40548  1.0000
  H   H11       1.0  0.91948  0.08383  0.09452  1.0000
  H   H12       1.0  0.58052  0.41617  0.59452  1.0000
  H   H13       1.0  0.58052  0.58383  0.09452  1.0000
  H   H14       1.0  0.91948  0.91617  0.59452  1.0000
  H   H15       1.0  0.08052  0.91617  0.90548  1.0000
  H   H16       1.0  0.41948  0.58383  0.40548  1.0000
  C   C25       1.0  0.35970  0.32956  0.00550  1.0000
  C   C26       1.0  0.14030  0.17044  0.50550  1.0000
  C   C27       1.0  0.85970  0.17044  0.99450  1.0000
  C   C28       1.0  0.64030  0.32956  0.49450  1.0000
  C   C29       1.0  0.64030  0.67044  0.99450  1.0000
  C   C30       1.0  0.85970  0.82956  0.49450  1.0000
  C   C31       1.0  0.14030  0.82956  0.00550  1.0000
  C   C32       1.0  0.35970  0.67044  0.50550  1.0000
  C   C33       1.0  0.32120  0.39041  0.10910  1.0000
  C   C34       1.0  0.17880  0.10959  0.60910  1.0000
  C   C35       1.0  0.82120  0.10959  0.89090  1.0000
  C   C36       1.0  0.67880  0.39041  0.39090  1.0000
  C   C37       1.0  0.67880  0.60959  0.89090  1.0000
  C   C38       1.0  0.82120  0.89041  0.39090  1.0000
  C   C39       1.0  0.17880  0.89041  0.10910  1.0000
  C   C40       1.0  0.32120  0.60959  0.60910  1.0000
  C   C41       1.0  0.25530  0.35392  0.14260  1.0000
  C   C42       1.0  0.24470  0.14608  0.64260  1.0000
  C   C43       1.0  0.75530  0.14608  0.85740  1.0000
  C   C44       1.0  0.74470  0.35392  0.35740  1.0000
  C   C45       1.0  0.74470  0.64608  0.85740  1.0000
  C   C46       1.0  0.75530  0.85392  0.35740  1.0000
  C   C47       1.0  0.24470  0.85392  0.14260  1.0000
  C   C48       1.0  0.25530  0.64608  0.64260  1.0000
  H   H17       1.0  0.23382  0.32083  0.12050  1.0000
  H   H18       1.0  0.26618  0.17917  0.62050  1.0000
  H   H19       1.0  0.73382  0.17917  0.87950  1.0000
  H   H20       1.0  0.76618  0.32083  0.37950  1.0000
  H   H21       1.0  0.76618  0.67917  0.87950  1.0000
  H   H22       1.0  0.73382  0.82083  0.37950  1.0000
  H   H23       1.0  0.26618  0.82083  0.12050  1.0000
  H   H24       1.0  0.23382  0.67917  0.62050  1.0000
  C   C49       1.0  0.22130  0.36736  0.20990  1.0000
  C   C50       1.0  0.27870  0.13264  0.70990  1.0000
  C   C51       1.0  0.72130  0.13264  0.79010  1.0000
  C   C52       1.0  0.77870  0.36736  0.29010  1.0000
  C   C53       1.0  0.77870  0.63264  0.79010  1.0000
  C   C54       1.0  0.72130  0.86736  0.29010  1.0000
  C   C55       1.0  0.27870  0.86736  0.20990  1.0000
  C   C56       1.0  0.22130  0.63264  0.70990  1.0000
  C   C57       1.0  0.25560  0.41599  0.24350  1.0000
  C   C58       1.0  0.24440  0.08401  0.74350  1.0000
  C   C59       1.0  0.75560  0.08401  0.75650  1.0000
  C   C60       1.0  0.74440  0.41599  0.25650  1.0000
  C   C61       1.0  0.74440  0.58401  0.75650  1.0000
  C   C62       1.0  0.75560  0.91599  0.25650  1.0000
  C   C63       1.0  0.24440  0.91599  0.24350  1.0000
  C   C64       1.0  0.25560  0.58401  0.74350  1.0000
  H   H25       1.0  0.23587  0.42383  0.28930  1.0000
  H   H26       1.0  0.26413  0.07617  0.78930  1.0000
  H   H27       1.0  0.73587  0.07617  0.71070  1.0000
  H   H28       1.0  0.76413  0.42383  0.21070  1.0000
  H   H29       1.0  0.76413  0.57617  0.71070  1.0000
  H   H30       1.0  0.73587  0.92383  0.21070  1.0000
  H   H31       1.0  0.26413  0.92383  0.28930  1.0000
  H   H32       1.0  0.23587  0.57617  0.78930  1.0000
  C   C65       1.0  0.32010  0.45310  0.20810  1.0000
  C   C66       1.0  0.17990  0.04690  0.70810  1.0000
  C   C67       1.0  0.82010  0.04690  0.79190  1.0000
  C   C68       1.0  0.67990  0.45310  0.29190  1.0000
  C   C69       1.0  0.67990  0.54690  0.79190  1.0000
  C   C70       1.0  0.82010  0.95310  0.29190  1.0000
  C   C71       1.0  0.17990  0.95310  0.20810  1.0000
  C   C72       1.0  0.32010  0.54690  0.70810  1.0000
  C   C73       1.0  0.35280  0.43900  0.14160  1.0000
  C   C74       1.0  0.14720  0.06100  0.64160  1.0000
  C   C75       1.0  0.85280  0.06100  0.85840  1.0000
  C   C76       1.0  0.64720  0.43900  0.35840  1.0000
  C   C77       1.0  0.64720  0.56100  0.85840  1.0000
  C   C78       1.0  0.85280  0.93900  0.35840  1.0000
  C   C79       1.0  0.14720  0.93900  0.14160  1.0000
  C   C80       1.0  0.35280  0.56100  0.64160  1.0000
  H   H33       1.0  0.39719  0.46302  0.11841  1.0000
  H   H34       1.0  0.10281  0.03698  0.61841  1.0000
  H   H35       1.0  0.89719  0.03698  0.88159  1.0000
  H   H36       1.0  0.60281  0.46302  0.38159  1.0000
  H   H37       1.0  0.60281  0.53698  0.88159  1.0000
  H   H38       1.0  0.89719  0.96302  0.38159  1.0000
  H   H39       1.0  0.10281  0.96302  0.11841  1.0000
  H   H40       1.0  0.39719  0.53698  0.61841  1.0000
  C   C81       1.0  0.35810  0.50540  0.24250  1.0000
  C   C82       1.0  0.14190  0.99460  0.74250  1.0000
  C   C83       1.0  0.85810  0.99460  0.75750  1.0000
  C   C84       1.0  0.64190  0.50540  0.25750  1.0000
  C   C85       1.0  0.64190  0.49460  0.75750  1.0000
  C   C86       1.0  0.85810  0.00540  0.25750  1.0000
  C   C87       1.0  0.14190  0.00540  0.24250  1.0000
  C   C88       1.0  0.35810  0.49460  0.74250  1.0000
  C   C89       1.0  0.14690  0.32888  0.24550  1.0000
  C   C90       1.0  0.35310  0.17112  0.74550  1.0000
  C   C91       1.0  0.64690  0.17112  0.75450  1.0000
  C   C92       1.0  0.85310  0.32888  0.25450  1.0000
  C   C93       1.0  0.85310  0.67112  0.75450  1.0000
  C   C94       1.0  0.64690  0.82888  0.25450  1.0000
  C   C95       1.0  0.35310  0.82888  0.24550  1.0000
  C   C96       1.0  0.14690  0.67112  0.74550  1.0000
  N   N1        1.0  0.45070  0.30170  0.82836  1.0000
  N   N2        1.0  0.04930  0.19830  0.32836  1.0000
  N   N3        1.0  0.95070  0.19830  0.17164  1.0000
  N   N4        1.0  0.54930  0.30170  0.67164  1.0000
  N   N5        1.0  0.54930  0.69830  0.17164  1.0000
  N   N6        1.0  0.95070  0.80170  0.67164  1.0000
  N   N7        1.0  0.04930  0.80170  0.82836  1.0000
  N   N8        1.0  0.45070  0.69830  0.32836  1.0000
  N   N9        1.0  0.45480  0.35974  0.82937  1.0000
  N   N10       1.0  0.04520  0.14026  0.32937  1.0000
  N   N11       1.0  0.95480  0.14026  0.17063  1.0000
  N   N12       1.0  0.54520  0.35974  0.67063  1.0000
  N   N13       1.0  0.54520  0.64026  0.17063  1.0000
  N   N14       1.0  0.95480  0.85974  0.67063  1.0000
  N   N15       1.0  0.04520  0.85974  0.82937  1.0000
  N   N16       1.0  0.45480  0.64026  0.32937  1.0000
  N   N17       1.0  0.35800  0.37931  0.04041  1.0000
  N   N18       1.0  0.14200  0.12069  0.54041  1.0000
  N   N19       1.0  0.85800  0.12069  0.95959  1.0000
  N   N20       1.0  0.64200  0.37931  0.45959  1.0000
  N   N21       1.0  0.64200  0.62069  0.95959  1.0000
  N   N22       1.0  0.85800  0.87931  0.45959  1.0000
  N   N23       1.0  0.14200  0.87931  0.04041  1.0000
  N   N24       1.0  0.35800  0.62069  0.54041  1.0000
  H   H41       1.0  0.38237  0.40807  0.01835  1.0000
  H   H42       1.0  0.11763  0.09193  0.51835  1.0000
  H   H43       1.0  0.88237  0.09193  0.98165  1.0000
  H   H44       1.0  0.61763  0.40807  0.48165  1.0000
  H   H45       1.0  0.61763  0.59193  0.98165  1.0000
  H   H46       1.0  0.88237  0.90807  0.48165  1.0000
  H   H47       1.0  0.11763  0.90807  0.01835  1.0000
  H   H48       1.0  0.38237  0.59193  0.51835  1.0000
  O   O1        1.0  0.10980  0.29000  0.20708  1.0000
  O   O2        1.0  0.39020  0.21000  0.70708  1.0000
  O   O3        1.0  0.60980  0.21000  0.79292  1.0000
  O   O4        1.0  0.89020  0.29000  0.29292  1.0000
  O   O5        1.0  0.89020  0.71000  0.79292  1.0000
  O   O6        1.0  0.60980  0.79000  0.29292  1.0000
  O   O7        1.0  0.39020  0.79000  0.20708  1.0000
  O   O8        1.0  0.10980  0.71000  0.70708  1.0000
  O   O9        1.0  0.12460  0.33621  0.30744  1.0000
  O   O10       1.0  0.37540  0.16379  0.80744  1.0000
  O   O11       1.0  0.62460  0.16379  0.69256  1.0000
  O   O12       1.0  0.87540  0.33621  0.19256  1.0000
  O   O13       1.0  0.87540  0.66379  0.69256  1.0000
  O   O14       1.0  0.62460  0.83621  0.19256  1.0000
  O   O15       1.0  0.37540  0.83621  0.30744  1.0000
  O   O16       1.0  0.12460  0.66379  0.80744  1.0000
  O   O17       1.0  0.34660  0.51130  0.30720  1.0000
  O   O18       1.0  0.15340  0.98870  0.80720  1.0000
  O   O19       1.0  0.84660  0.98870  0.69280  1.0000
  O   O20       1.0  0.65340  0.51130  0.19280  1.0000
  O   O21       1.0  0.65340  0.48870  0.69280  1.0000
  O   O22       1.0  0.84660  0.01130  0.19280  1.0000
  O   O23       1.0  0.15340  0.01130  0.30720  1.0000
  O   O24       1.0  0.34660  0.48870  0.80720  1.0000
  O   O25       1.0  0.40300  0.54035  0.20497  1.0000
  O   O26       1.0  0.09700  0.95965  0.70497  1.0000
  O   O27       1.0  0.90300  0.95965  0.79503  1.0000
  O   O28       1.0  0.59700  0.54035  0.29503  1.0000
  O   O29       1.0  0.59700  0.45965  0.79503  1.0000
  O   O30       1.0  0.90300  0.04035  0.29503  1.0000
  O   O31       1.0  0.09700  0.04035  0.20497  1.0000
  O   O32       1.0  0.40300  0.45965  0.70497  1.0000
  O   O33       1.0  0.33390  0.28503  0.03250  1.0000
  O   O34       1.0  0.16610  0.21497  0.53250  1.0000
  O   O35       1.0  0.83390  0.21497  0.96750  1.0000
  O   O36       1.0  0.66610  0.28503  0.46750  1.0000
  O   O37       1.0  0.66610  0.71497  0.96750  1.0000
  O   O38       1.0  0.83390  0.78503  0.46750  1.0000
  O   O39       1.0  0.16610  0.78503  0.03250  1.0000
  O   O40       1.0  0.33390  0.71497  0.53250  1.0000
  Zn  Zn1       1.0  0.50000  0.25230  0.75000  1.0000
  Zn  Zn2       1.0  0.00000  0.24770  0.25000  1.0000
  Zn  Zn3       1.0  0.50000  0.74770  0.25000  1.0000
  Zn  Zn4       1.0  0.00000  0.75230  0.75000  1.0000
  Zn  Zn5       1.0  0.50000  0.40813  0.75000  1.0000
  Zn  Zn6       1.0  0.00000  0.09187  0.25000  1.0000
  Zn  Zn7       1.0  0.50000  0.59187  0.25000  1.0000
  Zn  Zn8       1.0  0.00000  0.90813  0.75000  1.0000
