data_image0
_chemical_formula_structural       Zn8O40C2H2O2C2O2C2H2C6H2C2H2C2H2C10H2C6H2C2H2C4H2C4H2C8H2C2H2C2H2C14H2C4H2C4H2C4H2C2H2C2H2C2H2C2H2C12H2C4H2C2H2C4H2C4H2C2H2C4H2O4
_chemical_formula_sum              "Zn8 O48 C120 H56"
_cell_length_a       13.6416
_cell_length_b       16.8885
_cell_length_c       16.1092
_cell_angle_alpha    90
_cell_angle_beta     100.332
_cell_angle_gamma    90

_space_group_name_H-M_alt    "P 1"
_space_group_IT_number       1

loop_
  _space_group_symop_operation_xyz
  'x, y, z'

loop_
  _atom_site_type_symbol
  _atom_site_label
  _atom_site_symmetry_multiplicity
  _atom_site_fract_x
  _atom_site_fract_y
  _atom_site_fract_z
  _atom_site_occupancy
  Zn  Zn1       1.0  0.86884  0.49450  0.56175  1.0000
  Zn  Zn2       1.0  0.13116  0.99450  0.43825  1.0000
  Zn  Zn3       1.0  0.14352  0.00466  0.94222  1.0000
  Zn  Zn4       1.0  0.85648  0.50466  0.05778  1.0000
  Zn  Zn5       1.0  0.86683  0.95426  0.81506  1.0000
  Zn  Zn6       1.0  0.13317  0.45426  0.18494  1.0000
  Zn  Zn7       1.0  0.13919  0.45486  0.69461  1.0000
  Zn  Zn8       1.0  0.86081  0.95486  0.30539  1.0000
  O   O1        1.0  0.82010  0.40080  0.49600  1.0000
  O   O2        1.0  0.17990  0.90080  0.50400  1.0000
  O   O3        1.0  0.18030  0.90950  0.01080  1.0000
  O   O4        1.0  0.81970  0.40950  0.98920  1.0000
  O   O5        1.0  0.08580  0.95710  0.83020  1.0000
  O   O6        1.0  0.91420  0.45710  0.16980  1.0000
  O   O7        1.0  0.96320  0.87080  0.80090  1.0000
  O   O8        1.0  0.03680  0.37080  0.19910  1.0000
  O   O9        1.0  0.92370  0.45550  0.67810  1.0000
  O   O10       1.0  0.07630  0.95550  0.32190  1.0000
  O   O11       1.0  0.90950  0.99390  0.42120  1.0000
  O   O12       1.0  0.09050  0.49390  0.57880  1.0000
  O   O13       1.0  0.04990  0.37370  0.72940  1.0000
  O   O14       1.0  0.95010  0.87370  0.27060  1.0000
  O   O15       1.0  0.07220  0.50280  0.07500  1.0000
  O   O16       1.0  0.92780  0.00280  0.92500  1.0000
  O   O17       1.0  0.25710  0.40080  0.66810  1.0000
  O   O18       1.0  0.74290  0.90080  0.33190  1.0000
  O   O19       1.0  0.18490  0.54940  0.75500  1.0000
  O   O20       1.0  0.81510  0.04940  0.24500  1.0000
  O   O21       1.0  0.74440  0.91290  0.84590  1.0000
  O   O22       1.0  0.25560  0.41290  0.15410  1.0000
  O   O23       1.0  0.82670  0.04780  0.74790  1.0000
  O   O24       1.0  0.17330  0.54780  0.25210  1.0000
  O   O25       1.0  0.25100  0.04510  0.41010  1.0000
  O   O26       1.0  0.74900  0.54510  0.58990  1.0000
  O   O27       1.0  0.73870  0.84730  0.72740  1.0000
  O   O28       1.0  0.26130  0.34730  0.27260  1.0000
  O   O29       1.0  0.95010  0.59000  0.04550  1.0000
  O   O30       1.0  0.04990  0.09000  0.95450  1.0000
  O   O31       1.0  0.27190  0.33380  0.78970  1.0000
  O   O32       1.0  0.72810  0.83380  0.21030  1.0000
  O   O33       1.0  0.03910  0.07300  0.47160  1.0000
  O   O34       1.0  0.96090  0.57300  0.52840  1.0000
  O   O35       1.0  0.73090  0.54090  0.08940  1.0000
  O   O36       1.0  0.26910  0.04090  0.91060  1.0000
  O   O37       1.0  0.04010  0.88080  0.05760  1.0000
  O   O38       1.0  0.95990  0.38080  0.94240  1.0000
  O   O39       1.0  0.26140  0.11110  0.53360  1.0000
  O   O40       1.0  0.73860  0.61110  0.46640  1.0000
  C   C1        1.0  0.44960  0.07970  0.40500  1.0000
  C   C2        1.0  0.55040  0.57970  0.59500  1.0000
  H   H1        1.0  0.41510  0.04330  0.36510  1.0000
  H   H2        1.0  0.58490  0.54330  0.63490  1.0000
  O   O41       1.0  0.72800  0.60960  0.97150  1.0000
  O   O42       1.0  0.27200  0.10960  0.02850  1.0000
  C   C3        1.0  0.70870  0.17100  0.46150  1.0000
  C   C4        1.0  0.29130  0.67100  0.53850  1.0000
  O   O43       1.0  0.97820  0.35130  0.52920  1.0000
  O   O44       1.0  0.02180  0.85130  0.47080  1.0000
  C   C5        1.0  0.53220  0.57690  0.09440  1.0000
  C   C6        1.0  0.46780  0.07690  0.90560  1.0000
  H   H3        1.0  0.56510  0.53880  0.13320  1.0000
  H   H4        1.0  0.43490  0.03880  0.86680  1.0000
  C   C7        1.0  0.95690  0.38880  0.70410  1.0000
  C   C8        1.0  0.04310  0.88880  0.29590  1.0000
  C   C9        1.0  0.59710  0.15300  0.45780  1.0000
  C   C10       1.0  0.40290  0.65300  0.54220  1.0000
  C   C11       1.0  0.08410  0.71560  0.04620  1.0000
  C   C12       1.0  0.91590  0.21560  0.95380  1.0000
  H   H5        1.0  0.01680  0.72890  0.04790  1.0000
  H   H6        1.0  0.98320  0.22890  0.95210  1.0000
  C   C13       1.0  0.44670  0.85760  0.85000  1.0000
  C   C14       1.0  0.55330  0.35760  0.15000  1.0000
  H   H7        1.0  0.41180  0.88260  0.88880  1.0000
  H   H8        1.0  0.58820  0.38260  0.11120  1.0000
  C   C15       1.0  0.55930  0.35530  0.65970  1.0000
  C   C16       1.0  0.44070  0.85530  0.34030  1.0000
  H   H9        1.0  0.59230  0.38250  0.62100  1.0000
  H   H10       1.0  0.40770  0.88250  0.37900  1.0000
  C   C17       1.0  0.29650  0.78390  0.79500  1.0000
  C   C18       1.0  0.70350  0.28390  0.20500  1.0000
  C   C19       1.0  0.05420  0.88880  0.81340  1.0000
  C   C20       1.0  0.94580  0.38880  0.18660  1.0000
  C   C21       1.0  0.85050  0.18020  0.72020  1.0000
  C   C22       1.0  0.14950  0.68020  0.27980  1.0000
  C   C23       1.0  0.39710  0.80220  0.79320  1.0000
  C   C24       1.0  0.60290  0.30220  0.20680  1.0000
  C   C25       1.0  0.55410  0.25470  0.76510  1.0000
  C   C26       1.0  0.44590  0.75470  0.23490  1.0000
  H   H11       1.0  0.58420  0.21220  0.79900  1.0000
  H   H12       1.0  0.41580  0.71220  0.20100  1.0000
  C   C27       1.0  0.38820  0.65650  0.04360  1.0000
  C   C28       1.0  0.61180  0.15650  0.95640  1.0000
  C   C29       1.0  0.28090  0.67780  0.04350  1.0000
  C   C30       1.0  0.71910  0.17780  0.95650  1.0000
  C   C31       1.0  0.21200  0.61660  0.05210  1.0000
  C   C32       1.0  0.78800  0.11660  0.94790  1.0000
  H   H13       1.0  0.23380  0.56320  0.05920  1.0000
  H   H14       1.0  0.76620  0.06320  0.94080  1.0000
  C   C33       1.0  0.77460  0.10950  0.45030  1.0000
  C   C34       1.0  0.22540  0.60950  0.54970  1.0000
  H   H15       1.0  0.74960  0.05790  0.43600  1.0000
  H   H16       1.0  0.25040  0.55790  0.56400  1.0000
  C   C35       1.0  0.71340  0.28010  0.71020  1.0000
  C   C36       1.0  0.28660  0.78010  0.28980  1.0000
  C   C37       1.0  0.78370  0.33860  0.70580  1.0000
  C   C38       1.0  0.21630  0.83860  0.29420  1.0000
  H   H17       1.0  0.76320  0.39240  0.70220  1.0000
  H   H18       1.0  0.23680  0.89240  0.29780  1.0000
  C   C39       1.0  0.70190  0.86850  0.78790  1.0000
  C   C40       1.0  0.29810  0.36850  0.21210  1.0000
  C   C41       1.0  0.45250  0.76440  0.73800  1.0000
  C   C42       1.0  0.54750  0.26440  0.26200  1.0000
  H   H19       1.0  0.42250  0.72460  0.70000  1.0000
  H   H20       1.0  0.57750  0.22460  0.30000  1.0000
  C   C43       1.0  0.61050  0.29830  0.71180  1.0000
  C   C44       1.0  0.38950  0.79830  0.28820  1.0000
  C   C45       1.0  0.87520  0.12400  0.45990  1.0000
  C   C46       1.0  0.12480  0.62400  0.54010  1.0000
  C   C47       1.0  0.30270  0.35760  0.72510  1.0000
  C   C48       1.0  0.69730  0.85760  0.27490  1.0000
  C   C49       1.0  0.25030  0.75350  0.03560  1.0000
  C   C50       1.0  0.74970  0.25350  0.96440  1.0000
  H   H21       1.0  0.29630  0.79360  0.02690  1.0000
  H   H22       1.0  0.70370  0.29360  0.97310  1.0000
  C   C51       1.0  0.22770  0.84010  0.80780  1.0000
  C   C52       1.0  0.77230  0.34010  0.19220  1.0000
  H   H23       1.0  0.24930  0.89300  0.81960  1.0000
  H   H24       1.0  0.75070  0.39300  0.18040  1.0000
  C   C53       1.0  0.91180  0.20030  0.47520  1.0000
  C   C54       1.0  0.08820  0.70030  0.52480  1.0000
  H   H25       1.0  0.98100  0.21080  0.48060  1.0000
  H   H26       1.0  0.01900  0.71080  0.51940  1.0000
  C   C55       1.0  0.16000  0.68530  0.77750  1.0000
  C   C56       1.0  0.84000  0.18530  0.22250  1.0000
  C   C57       1.0  0.39940  0.11670  0.46290  1.0000
  C   C58       1.0  0.60060  0.61670  0.53710  1.0000
  C   C59       1.0  0.04110  0.57240  0.05670  1.0000
  C   C60       1.0  0.95890  0.07240  0.94330  1.0000
  C   C61       1.0  0.94570  0.06140  0.45070  1.0000
  C   C62       1.0  0.05430  0.56140  0.54930  1.0000
  C   C63       1.0  0.58490  0.61550  0.03750  1.0000
  C   C64       1.0  0.41510  0.11550  0.96250  1.0000
  C   C65       1.0  0.11340  0.63540  0.05010  1.0000
  C   C66       1.0  0.88660  0.13540  0.94990  1.0000
  C   C67       1.0  0.74960  0.19810  0.71940  1.0000
  C   C68       1.0  0.25040  0.69810  0.28060  1.0000
  H   H27       1.0  0.70430  0.15650  0.72490  1.0000
  H   H28       1.0  0.29570  0.65650  0.27510  1.0000
  C   C69       1.0  0.59860  0.84300  0.79370  1.0000
  C   C70       1.0  0.40140  0.34300  0.20630  1.0000
  C   C71       1.0  0.54820  0.09560  0.40550  1.0000
  C   C72       1.0  0.45180  0.59560  0.59450  1.0000
  H   H29       1.0  0.58320  0.06660  0.36950  1.0000
  H   H30       1.0  0.41680  0.56660  0.63050  1.0000
  C   C73       1.0  0.88550  0.32020  0.70670  1.0000
  C   C74       1.0  0.11450  0.82020  0.29330  1.0000
  C   C75       1.0  0.25940  0.70200  0.78170  1.0000
  C   C76       1.0  0.74060  0.20200  0.21830  1.0000
  H   H31       1.0  0.30460  0.66050  0.77610  1.0000
  H   H32       1.0  0.69540  0.16050  0.22390  1.0000
  C   C77       1.0  0.68630  0.58990  0.03120  1.0000
  C   C78       1.0  0.31370  0.08990  0.96880  1.0000
  C   C79       1.0  0.44150  0.69560  0.99140  1.0000
  C   C80       1.0  0.55850  0.19560  0.00860  1.0000
  H   H33       1.0  0.41010  0.73750  0.95740  1.0000
  H   H34       1.0  0.58990  0.23750  0.04260  1.0000
  C   C81       1.0  0.45710  0.27540  0.76600  1.0000
  C   C82       1.0  0.54290  0.77540  0.23400  1.0000
  H   H35       1.0  0.42220  0.24820  0.80340  1.0000
  H   H36       1.0  0.57780  0.74820  0.19660  1.0000
  C   C83       1.0  0.55140  0.78620  0.74030  1.0000
  C   C84       1.0  0.44860  0.28620  0.25970  1.0000
  H   H37       1.0  0.58790  0.76050  0.70300  1.0000
  H   H38       1.0  0.41210  0.26050  0.29700  1.0000
  C   C85       1.0  0.54760  0.19260  0.51160  1.0000
  C   C86       1.0  0.45240  0.69260  0.48840  1.0000
  H   H39       1.0  0.58220  0.23260  0.54670  1.0000
  H   H40       1.0  0.41780  0.73260  0.45330  1.0000
  C   C87       1.0  0.43330  0.59470  0.09320  1.0000
  C   C88       1.0  0.56670  0.09470  0.90680  1.0000
  H   H41       1.0  0.39590  0.56470  0.12650  1.0000
  H   H42       1.0  0.60410  0.06470  0.87350  1.0000
  C   C89       1.0  0.15160  0.77490  0.03990  1.0000
  C   C90       1.0  0.84840  0.27490  0.96010  1.0000
  C   C91       1.0  0.29870  0.09080  0.46960  1.0000
  C   C92       1.0  0.70130  0.59080  0.53040  1.0000
  C   C93       1.0  0.12530  0.82150  0.80390  1.0000
  C   C94       1.0  0.87470  0.32150  0.19610  1.0000
  C   C95       1.0  0.40740  0.33450  0.71470  1.0000
  C   C96       1.0  0.59260  0.83450  0.28530  1.0000
  C   C97       1.0  0.12090  0.86130  0.03810  1.0000
  C   C98       1.0  0.87910  0.36130  0.96190  1.0000
  C   C99       1.0  0.45000  0.17730  0.51720  1.0000
  C   C100      1.0  0.55000  0.67730  0.48280  1.0000
  H   H43       1.0  0.41730  0.20550  0.55540  1.0000
  H   H44       1.0  0.58270  0.70550  0.44460  1.0000
  C   C101      1.0  0.84510  0.26070  0.48260  1.0000
  C   C102      1.0  0.15490  0.76070  0.51740  1.0000
  C   C103      1.0  0.74360  0.24600  0.47630  1.0000
  C   C104      1.0  0.25640  0.74600  0.52370  1.0000
  H   H45       1.0  0.69910  0.28800  0.48230  1.0000
  H   H46       1.0  0.30090  0.78800  0.51770  1.0000
  C   C105      1.0  0.53780  0.67690  0.98630  1.0000
  C   C106      1.0  0.46220  0.17690  0.01370  1.0000
  H   H47       1.0  0.57200  0.70470  0.94890  1.0000
  H   H48       1.0  0.42800  0.20470  0.05110  1.0000
  C   C107      1.0  0.88410  0.09480  0.72730  1.0000
  C   C108      1.0  0.11590  0.59480  0.27270  1.0000
  C   C109      1.0  0.45940  0.37420  0.66250  1.0000
  C   C110      1.0  0.54060  0.87420  0.33750  1.0000
  H   H49       1.0  0.42740  0.41530  0.62750  1.0000
  H   H50       1.0  0.57260  0.91530  0.37250  1.0000
  C   C111      1.0  0.12250  0.60190  0.76080  1.0000
  C   C112      1.0  0.87750  0.10190  0.23920  1.0000
  C   C113      1.0  0.91810  0.24180  0.71510  1.0000
  C   C114      1.0  0.08190  0.74180  0.28490  1.0000
  H   H51       1.0  0.98660  0.23000  0.71750  1.0000
  H   H52       1.0  0.01340  0.73000  0.28250  1.0000
  C   C115      1.0  0.54700  0.87710  0.85100  1.0000
  C   C116      1.0  0.45300  0.37710  0.14900  1.0000
  H   H53       1.0  0.57960  0.91390  0.89130  1.0000
  H   H54       1.0  0.42040  0.41390  0.10870  1.0000
  C   C117      1.0  0.88650  0.34160  0.50710  1.0000
  C   C118      1.0  0.11350  0.84160  0.49290  1.0000
  C   C119      1.0  0.09260  0.74560  0.78730  1.0000
  C   C120      1.0  0.90740  0.24560  0.21270  1.0000
  H   H55       1.0  0.02370  0.73380  0.78240  1.0000
  H   H56       1.0  0.97630  0.23380  0.21760  1.0000
  O   O45       1.0  0.96670  0.07830  0.70940  1.0000
  O   O46       1.0  0.03330  0.57830  0.29060  1.0000
  O   O47       1.0  0.03080  0.59640  0.72740  1.0000
  O   O48       1.0  0.96920  0.09640  0.27260  1.0000
