data_image0
_chemical_formula_structural       In4C16H16O16C16H16C32O16C32H16C40H16C16H16C16H16C16H16C16H16C16
_chemical_formula_sum              "In4 C216 H128 O32"
_cell_length_a       10.2202
_cell_length_b       10.2202
_cell_length_c       43.217
_cell_angle_alpha    90
_cell_angle_beta     90
_cell_angle_gamma    90

_space_group_name_H-M_alt    "P 1"
_space_group_IT_number       1

loop_
  _space_group_symop_operation_xyz
  'x, y, z'

loop_
  _atom_site_type_symbol
  _atom_site_label
  _atom_site_symmetry_multiplicity
  _atom_site_fract_x
  _atom_site_fract_y
  _atom_site_fract_z
  _atom_site_occupancy
  In  In1       1.0  0.75000  0.25000  0.50000  1.0000
  In  In2       1.0  0.25000  0.75000  0.50000  1.0000
  In  In3       1.0  0.25000  0.75000  0.00000  1.0000
  In  In4       1.0  0.75000  0.25000  0.00000  1.0000
  C   C1        1.0  0.47880  0.85920  0.28630  1.0000
  C   C2        1.0  0.02120  0.64080  0.28630  1.0000
  C   C3        1.0  0.64080  0.47880  0.28630  1.0000
  C   C4        1.0  0.85920  0.02120  0.28630  1.0000
  C   C5        1.0  0.52120  0.35920  0.21370  1.0000
  C   C6        1.0  0.97880  0.14080  0.21370  1.0000
  C   C7        1.0  0.35920  0.97880  0.21370  1.0000
  C   C8        1.0  0.14080  0.52120  0.21370  1.0000
  C   C9        1.0  0.52120  0.14080  0.71370  1.0000
  C   C10       1.0  0.97880  0.35920  0.71370  1.0000
  C   C11       1.0  0.35920  0.52120  0.71370  1.0000
  C   C12       1.0  0.14080  0.97880  0.71370  1.0000
  C   C13       1.0  0.47880  0.64080  0.78630  1.0000
  C   C14       1.0  0.02120  0.85920  0.78630  1.0000
  C   C15       1.0  0.64080  0.02120  0.78630  1.0000
  C   C16       1.0  0.85920  0.47880  0.78630  1.0000
  H   H1        1.0  0.53750  0.82630  0.27180  1.0000
  H   H2        1.0  0.96250  0.67370  0.27180  1.0000
  H   H3        1.0  0.67370  0.53750  0.27180  1.0000
  H   H4        1.0  0.82630  0.96250  0.27180  1.0000
  H   H5        1.0  0.46250  0.32630  0.22820  1.0000
  H   H6        1.0  0.03750  0.17370  0.22820  1.0000
  H   H7        1.0  0.32630  0.03750  0.22820  1.0000
  H   H8        1.0  0.17370  0.46250  0.22820  1.0000
  H   H9        1.0  0.46250  0.17370  0.72820  1.0000
  H   H10       1.0  0.03750  0.32630  0.72820  1.0000
  H   H11       1.0  0.32630  0.46250  0.72820  1.0000
  H   H12       1.0  0.17370  0.03750  0.72820  1.0000
  H   H13       1.0  0.53750  0.67370  0.77180  1.0000
  H   H14       1.0  0.96250  0.82630  0.77180  1.0000
  H   H15       1.0  0.67370  0.96250  0.77180  1.0000
  H   H16       1.0  0.82630  0.53750  0.77180  1.0000
  O   O1        1.0  0.74870  0.10530  0.46061  1.0000
  O   O2        1.0  0.75130  0.39470  0.46061  1.0000
  O   O3        1.0  0.39470  0.74870  0.46061  1.0000
  O   O4        1.0  0.10530  0.75130  0.46061  1.0000
  O   O5        1.0  0.25130  0.60530  0.03939  1.0000
  O   O6        1.0  0.24870  0.89470  0.03939  1.0000
  O   O7        1.0  0.60530  0.24870  0.03939  1.0000
  O   O8        1.0  0.89470  0.25130  0.03939  1.0000
  O   O9        1.0  0.25130  0.89470  0.53939  1.0000
  O   O10       1.0  0.24870  0.60530  0.53939  1.0000
  O   O11       1.0  0.60530  0.25130  0.53939  1.0000
  O   O12       1.0  0.89470  0.24870  0.53939  1.0000
  O   O13       1.0  0.74870  0.39470  0.96061  1.0000
  O   O14       1.0  0.75130  0.10530  0.96061  1.0000
  O   O15       1.0  0.39470  0.75130  0.96061  1.0000
  O   O16       1.0  0.10530  0.74870  0.96061  1.0000
  C   C17       1.0  0.52380  0.90320  0.31310  1.0000
  C   C18       1.0  0.97620  0.59680  0.31310  1.0000
  C   C19       1.0  0.59680  0.52380  0.31310  1.0000
  C   C20       1.0  0.90320  0.97620  0.31310  1.0000
  C   C21       1.0  0.47620  0.40320  0.18690  1.0000
  C   C22       1.0  0.02380  0.09680  0.18690  1.0000
  C   C23       1.0  0.40320  0.02380  0.18690  1.0000
  C   C24       1.0  0.09680  0.47620  0.18690  1.0000
  C   C25       1.0  0.47620  0.09680  0.68690  1.0000
  C   C26       1.0  0.02380  0.40320  0.68690  1.0000
  C   C27       1.0  0.40320  0.47620  0.68690  1.0000
  C   C28       1.0  0.09680  0.02380  0.68690  1.0000
  C   C29       1.0  0.52380  0.59680  0.81310  1.0000
  C   C30       1.0  0.97620  0.90320  0.81310  1.0000
  C   C31       1.0  0.59680  0.97620  0.81310  1.0000
  C   C32       1.0  0.90320  0.52380  0.81310  1.0000
  H   H17       1.0  0.61300  0.89930  0.31720  1.0000
  H   H18       1.0  0.88700  0.60070  0.31720  1.0000
  H   H19       1.0  0.60070  0.61300  0.31720  1.0000
  H   H20       1.0  0.89930  0.88700  0.31720  1.0000
  H   H21       1.0  0.38700  0.39930  0.18280  1.0000
  H   H22       1.0  0.11300  0.10070  0.18280  1.0000
  H   H23       1.0  0.39930  0.11300  0.18280  1.0000
  H   H24       1.0  0.10070  0.38700  0.18280  1.0000
  H   H25       1.0  0.38700  0.10070  0.68280  1.0000
  H   H26       1.0  0.11300  0.39930  0.68280  1.0000
  H   H27       1.0  0.39930  0.38700  0.68280  1.0000
  H   H28       1.0  0.10070  0.11300  0.68280  1.0000
  H   H29       1.0  0.61300  0.60070  0.81720  1.0000
  H   H30       1.0  0.88700  0.89930  0.81720  1.0000
  H   H31       1.0  0.60070  0.88700  0.81720  1.0000
  H   H32       1.0  0.89930  0.61300  0.81720  1.0000
  C   C33       1.0  0.34600  0.86120  0.27930  1.0000
  C   C34       1.0  0.15400  0.63880  0.27930  1.0000
  C   C35       1.0  0.63880  0.34600  0.27930  1.0000
  C   C36       1.0  0.86120  0.15400  0.27930  1.0000
  C   C37       1.0  0.65400  0.36120  0.22070  1.0000
  C   C38       1.0  0.84600  0.13880  0.22070  1.0000
  C   C39       1.0  0.36120  0.84600  0.22070  1.0000
  C   C40       1.0  0.13880  0.65400  0.22070  1.0000
  C   C41       1.0  0.65400  0.13880  0.72070  1.0000
  C   C42       1.0  0.84600  0.36120  0.72070  1.0000
  C   C43       1.0  0.36120  0.65400  0.72070  1.0000
  C   C44       1.0  0.13880  0.84600  0.72070  1.0000
  C   C45       1.0  0.34600  0.63880  0.77930  1.0000
  C   C46       1.0  0.15400  0.86120  0.77930  1.0000
  C   C47       1.0  0.63880  0.15400  0.77930  1.0000
  C   C48       1.0  0.86120  0.34600  0.77930  1.0000
  C   C49       1.0  0.43670  0.95630  0.33550  1.0000
  C   C50       1.0  0.06330  0.54370  0.33550  1.0000
  C   C51       1.0  0.54370  0.43670  0.33550  1.0000
  C   C52       1.0  0.95630  0.06330  0.33550  1.0000
  C   C53       1.0  0.56330  0.45630  0.16450  1.0000
  C   C54       1.0  0.93670  0.04370  0.16450  1.0000
  C   C55       1.0  0.45630  0.93670  0.16450  1.0000
  C   C56       1.0  0.04370  0.56330  0.16450  1.0000
  C   C57       1.0  0.56330  0.04370  0.66450  1.0000
  C   C58       1.0  0.93670  0.45630  0.66450  1.0000
  C   C59       1.0  0.45630  0.56330  0.66450  1.0000
  C   C60       1.0  0.04370  0.93670  0.66450  1.0000
  C   C61       1.0  0.43670  0.54370  0.83550  1.0000
  C   C62       1.0  0.06330  0.95630  0.83550  1.0000
  C   C63       1.0  0.54370  0.06330  0.83550  1.0000
  C   C64       1.0  0.95630  0.43670  0.83550  1.0000
  O   O17       1.0  0.56000  0.18070  0.47310  1.0000
  O   O18       1.0  0.94000  0.31930  0.47310  1.0000
  O   O19       1.0  0.31930  0.56000  0.47310  1.0000
  O   O20       1.0  0.18070  0.94000  0.47310  1.0000
  O   O21       1.0  0.44000  0.68070  0.02690  1.0000
  O   O22       1.0  0.06000  0.81930  0.02690  1.0000
  O   O23       1.0  0.68070  0.06000  0.02690  1.0000
  O   O24       1.0  0.81930  0.44000  0.02690  1.0000
  O   O25       1.0  0.44000  0.81930  0.52690  1.0000
  O   O26       1.0  0.06000  0.68070  0.52690  1.0000
  O   O27       1.0  0.68070  0.44000  0.52690  1.0000
  O   O28       1.0  0.81930  0.06000  0.52690  1.0000
  O   O29       1.0  0.56000  0.31930  0.97310  1.0000
  O   O30       1.0  0.94000  0.18070  0.97310  1.0000
  O   O31       1.0  0.31930  0.94000  0.97310  1.0000
  O   O32       1.0  0.18070  0.56000  0.97310  1.0000
  C   C65       1.0  0.57600  0.08060  0.42460  1.0000
  C   C66       1.0  0.92400  0.41940  0.42460  1.0000
  C   C67       1.0  0.41940  0.57600  0.42460  1.0000
  C   C68       1.0  0.08060  0.92400  0.42460  1.0000
  C   C69       1.0  0.42400  0.58060  0.07540  1.0000
  C   C70       1.0  0.07600  0.91940  0.07540  1.0000
  C   C71       1.0  0.58060  0.07600  0.07540  1.0000
  C   C72       1.0  0.91940  0.42400  0.07540  1.0000
  C   C73       1.0  0.42400  0.91940  0.57540  1.0000
  C   C74       1.0  0.07600  0.58060  0.57540  1.0000
  C   C75       1.0  0.58060  0.42400  0.57540  1.0000
  C   C76       1.0  0.91940  0.07600  0.57540  1.0000
  C   C77       1.0  0.57600  0.41940  0.92460  1.0000
  C   C78       1.0  0.92400  0.08060  0.92460  1.0000
  C   C79       1.0  0.41940  0.92400  0.92460  1.0000
  C   C80       1.0  0.08060  0.57600  0.92460  1.0000
  C   C81       1.0  0.26280  0.92120  0.29940  1.0000
  C   C82       1.0  0.23720  0.57880  0.29940  1.0000
  C   C83       1.0  0.57880  0.26280  0.29940  1.0000
  C   C84       1.0  0.92120  0.23720  0.29940  1.0000
  C   C85       1.0  0.73720  0.42120  0.20060  1.0000
  C   C86       1.0  0.76280  0.07880  0.20060  1.0000
  C   C87       1.0  0.42120  0.76280  0.20060  1.0000
  C   C88       1.0  0.07880  0.73720  0.20060  1.0000
  C   C89       1.0  0.73720  0.07880  0.70060  1.0000
  C   C90       1.0  0.76280  0.42120  0.70060  1.0000
  C   C91       1.0  0.42120  0.73720  0.70060  1.0000
  C   C92       1.0  0.07880  0.76280  0.70060  1.0000
  C   C93       1.0  0.26280  0.57880  0.79940  1.0000
  C   C94       1.0  0.23720  0.92120  0.79940  1.0000
  C   C95       1.0  0.57880  0.23720  0.79940  1.0000
  C   C96       1.0  0.92120  0.26280  0.79940  1.0000
  H   H33       1.0  0.17480  0.93210  0.29460  1.0000
  H   H34       1.0  0.32520  0.56790  0.29460  1.0000
  H   H35       1.0  0.56790  0.17480  0.29460  1.0000
  H   H36       1.0  0.93210  0.32520  0.29460  1.0000
  H   H37       1.0  0.82520  0.43210  0.20540  1.0000
  H   H38       1.0  0.67480  0.06790  0.20540  1.0000
  H   H39       1.0  0.43210  0.67480  0.20540  1.0000
  H   H40       1.0  0.06790  0.82520  0.20540  1.0000
  H   H41       1.0  0.82520  0.06790  0.70540  1.0000
  H   H42       1.0  0.67480  0.43210  0.70540  1.0000
  H   H43       1.0  0.43210  0.82520  0.70540  1.0000
  H   H44       1.0  0.06790  0.67480  0.70540  1.0000
  H   H45       1.0  0.17480  0.56790  0.79460  1.0000
  H   H46       1.0  0.32520  0.93210  0.79460  1.0000
  H   H47       1.0  0.56790  0.32520  0.79460  1.0000
  H   H48       1.0  0.93210  0.17480  0.79460  1.0000
  C   C97       1.0  0.29550  0.79550  0.25000  1.0000
  C   C98       1.0  0.20450  0.70450  0.25000  1.0000
  C   C99       1.0  0.70450  0.29550  0.25000  1.0000
  C   C100      1.0  0.79550  0.20450  0.25000  1.0000
  C   C101      1.0  0.70450  0.20450  0.75000  1.0000
  C   C102      1.0  0.79550  0.29550  0.75000  1.0000
  C   C103      1.0  0.29550  0.70450  0.75000  1.0000
  C   C104      1.0  0.20450  0.79550  0.75000  1.0000
  C   C105      1.0  0.48320  0.99700  0.36680  1.0000
  C   C106      1.0  0.01680  0.50300  0.36680  1.0000
  C   C107      1.0  0.50300  0.48320  0.36680  1.0000
  C   C108      1.0  0.99700  0.01680  0.36680  1.0000
  C   C109      1.0  0.51680  0.49700  0.13320  1.0000
  C   C110      1.0  0.98320  0.00300  0.13320  1.0000
  C   C111      1.0  0.49700  0.98320  0.13320  1.0000
  C   C112      1.0  0.00300  0.51680  0.13320  1.0000
  C   C113      1.0  0.51680  0.00300  0.63320  1.0000
  C   C114      1.0  0.98320  0.49700  0.63320  1.0000
  C   C115      1.0  0.49700  0.51680  0.63320  1.0000
  C   C116      1.0  0.00300  0.98320  0.63320  1.0000
  C   C117      1.0  0.48320  0.50300  0.86680  1.0000
  C   C118      1.0  0.01680  0.99700  0.86680  1.0000
  C   C119      1.0  0.50300  0.01680  0.86680  1.0000
  C   C120      1.0  0.99700  0.48320  0.86680  1.0000
  C   C121      1.0  0.61720  0.01200  0.37300  1.0000
  C   C122      1.0  0.88280  0.48800  0.37300  1.0000
  C   C123      1.0  0.48800  0.61720  0.37300  1.0000
  C   C124      1.0  0.01200  0.88280  0.37300  1.0000
  C   C125      1.0  0.38280  0.51200  0.12700  1.0000
  C   C126      1.0  0.11720  0.98800  0.12700  1.0000
  C   C127      1.0  0.51200  0.11720  0.12700  1.0000
  C   C128      1.0  0.98800  0.38280  0.12700  1.0000
  C   C129      1.0  0.38280  0.98800  0.62700  1.0000
  C   C130      1.0  0.11720  0.51200  0.62700  1.0000
  C   C131      1.0  0.51200  0.38280  0.62700  1.0000
  C   C132      1.0  0.98800  0.11720  0.62700  1.0000
  C   C133      1.0  0.61720  0.48800  0.87300  1.0000
  C   C134      1.0  0.88280  0.01200  0.87300  1.0000
  C   C135      1.0  0.48800  0.88280  0.87300  1.0000
  C   C136      1.0  0.01200  0.61720  0.87300  1.0000
  H   H49       1.0  0.67660  0.99350  0.35730  1.0000
  H   H50       1.0  0.82340  0.50650  0.35730  1.0000
  H   H51       1.0  0.50650  0.67660  0.35730  1.0000
  H   H52       1.0  0.99350  0.82340  0.35730  1.0000
  H   H53       1.0  0.32340  0.49350  0.14270  1.0000
  H   H54       1.0  0.17660  0.00650  0.14270  1.0000
  H   H55       1.0  0.49350  0.17660  0.14270  1.0000
  H   H56       1.0  0.00650  0.32340  0.14270  1.0000
  H   H57       1.0  0.32340  0.00650  0.64270  1.0000
  H   H58       1.0  0.17660  0.49350  0.64270  1.0000
  H   H59       1.0  0.49350  0.32340  0.64270  1.0000
  H   H60       1.0  0.00650  0.17660  0.64270  1.0000
  H   H61       1.0  0.67660  0.50650  0.85730  1.0000
  H   H62       1.0  0.82340  0.99350  0.85730  1.0000
  H   H63       1.0  0.50650  0.82340  0.85730  1.0000
  H   H64       1.0  0.99350  0.67660  0.85730  1.0000
  C   C137      1.0  0.31360  0.96600  0.32760  1.0000
  C   C138      1.0  0.18640  0.53400  0.32760  1.0000
  C   C139      1.0  0.53400  0.31360  0.32760  1.0000
  C   C140      1.0  0.96600  0.18640  0.32760  1.0000
  C   C141      1.0  0.68640  0.46600  0.17240  1.0000
  C   C142      1.0  0.81360  0.03400  0.17240  1.0000
  C   C143      1.0  0.46600  0.81360  0.17240  1.0000
  C   C144      1.0  0.03400  0.68640  0.17240  1.0000
  C   C145      1.0  0.68640  0.03400  0.67240  1.0000
  C   C146      1.0  0.81360  0.46600  0.67240  1.0000
  C   C147      1.0  0.46600  0.68640  0.67240  1.0000
  C   C148      1.0  0.03400  0.81360  0.67240  1.0000
  C   C149      1.0  0.31360  0.53400  0.82760  1.0000
  C   C150      1.0  0.18640  0.96600  0.82760  1.0000
  C   C151      1.0  0.53400  0.18640  0.82760  1.0000
  C   C152      1.0  0.96600  0.31360  0.82760  1.0000
  H   H65       1.0  0.25620  0.00490  0.34160  1.0000
  H   H66       1.0  0.24380  0.49510  0.34160  1.0000
  H   H67       1.0  0.49510  0.25620  0.34160  1.0000
  H   H68       1.0  0.00490  0.24380  0.34160  1.0000
  H   H69       1.0  0.74380  0.50490  0.15840  1.0000
  H   H70       1.0  0.75620  0.99510  0.15840  1.0000
  H   H71       1.0  0.50490  0.75620  0.15840  1.0000
  H   H72       1.0  0.99510  0.74380  0.15840  1.0000
  H   H73       1.0  0.74380  0.99510  0.65840  1.0000
  H   H74       1.0  0.75620  0.50490  0.65840  1.0000
  H   H75       1.0  0.50490  0.74380  0.65840  1.0000
  H   H76       1.0  0.99510  0.75620  0.65840  1.0000
  H   H77       1.0  0.25620  0.49510  0.84160  1.0000
  H   H78       1.0  0.24380  0.00490  0.84160  1.0000
  H   H79       1.0  0.49510  0.24380  0.84160  1.0000
  H   H80       1.0  0.00490  0.25620  0.84160  1.0000
  C   C153      1.0  0.45000  0.06000  0.41930  1.0000
  C   C154      1.0  0.05000  0.44000  0.41930  1.0000
  C   C155      1.0  0.44000  0.45000  0.41930  1.0000
  C   C156      1.0  0.06000  0.05000  0.41930  1.0000
  C   C157      1.0  0.55000  0.56000  0.08070  1.0000
  C   C158      1.0  0.95000  0.94000  0.08070  1.0000
  C   C159      1.0  0.56000  0.95000  0.08070  1.0000
  C   C160      1.0  0.94000  0.55000  0.08070  1.0000
  C   C161      1.0  0.55000  0.94000  0.58070  1.0000
  C   C162      1.0  0.95000  0.56000  0.58070  1.0000
  C   C163      1.0  0.56000  0.55000  0.58070  1.0000
  C   C164      1.0  0.94000  0.95000  0.58070  1.0000
  C   C165      1.0  0.45000  0.44000  0.91930  1.0000
  C   C166      1.0  0.05000  0.06000  0.91930  1.0000
  C   C167      1.0  0.44000  0.05000  0.91930  1.0000
  C   C168      1.0  0.06000  0.45000  0.91930  1.0000
  H   H81       1.0  0.39130  0.07050  0.43560  1.0000
  H   H82       1.0  0.10870  0.42950  0.43560  1.0000
  H   H83       1.0  0.42950  0.39130  0.43560  1.0000
  H   H84       1.0  0.07050  0.10870  0.43560  1.0000
  H   H85       1.0  0.60870  0.57050  0.06440  1.0000
  H   H86       1.0  0.89130  0.92950  0.06440  1.0000
  H   H87       1.0  0.57050  0.89130  0.06440  1.0000
  H   H88       1.0  0.92950  0.60870  0.06440  1.0000
  H   H89       1.0  0.60870  0.92950  0.56440  1.0000
  H   H90       1.0  0.89130  0.57050  0.56440  1.0000
  H   H91       1.0  0.57050  0.60870  0.56440  1.0000
  H   H92       1.0  0.92950  0.89130  0.56440  1.0000
  H   H93       1.0  0.39130  0.42950  0.93560  1.0000
  H   H94       1.0  0.10870  0.07050  0.93560  1.0000
  H   H95       1.0  0.42950  0.10870  0.93560  1.0000
  H   H96       1.0  0.07050  0.39130  0.93560  1.0000
  C   C169      1.0  0.66510  0.05290  0.40130  1.0000
  C   C170      1.0  0.83490  0.44710  0.40130  1.0000
  C   C171      1.0  0.44710  0.66510  0.40130  1.0000
  C   C172      1.0  0.05290  0.83490  0.40130  1.0000
  C   C173      1.0  0.33490  0.55290  0.09870  1.0000
  C   C174      1.0  0.16510  0.94710  0.09870  1.0000
  C   C175      1.0  0.55290  0.16510  0.09870  1.0000
  C   C176      1.0  0.94710  0.33490  0.09870  1.0000
  C   C177      1.0  0.33490  0.94710  0.59870  1.0000
  C   C178      1.0  0.16510  0.55290  0.59870  1.0000
  C   C179      1.0  0.55290  0.33490  0.59870  1.0000
  C   C180      1.0  0.94710  0.16510  0.59870  1.0000
  C   C181      1.0  0.66510  0.44710  0.90130  1.0000
  C   C182      1.0  0.83490  0.05290  0.90130  1.0000
  C   C183      1.0  0.44710  0.83490  0.90130  1.0000
  C   C184      1.0  0.05290  0.66510  0.90130  1.0000
  H   H97       1.0  0.75460  0.06150  0.40470  1.0000
  H   H98       1.0  0.74540  0.43850  0.40470  1.0000
  H   H99       1.0  0.43850  0.75460  0.40470  1.0000
  H   H100      1.0  0.06150  0.74540  0.40470  1.0000
  H   H101      1.0  0.24540  0.56150  0.09530  1.0000
  H   H102      1.0  0.25460  0.93850  0.09530  1.0000
  H   H103      1.0  0.56150  0.25460  0.09530  1.0000
  H   H104      1.0  0.93850  0.24540  0.09530  1.0000
  H   H105      1.0  0.24540  0.93850  0.59530  1.0000
  H   H106      1.0  0.25460  0.56150  0.59530  1.0000
  H   H107      1.0  0.56150  0.24540  0.59530  1.0000
  H   H108      1.0  0.93850  0.25460  0.59530  1.0000
  H   H109      1.0  0.75460  0.43850  0.90470  1.0000
  H   H110      1.0  0.74540  0.06150  0.90470  1.0000
  H   H111      1.0  0.43850  0.74540  0.90470  1.0000
  H   H112      1.0  0.06150  0.75460  0.90470  1.0000
  C   C185      1.0  0.40100  0.02160  0.39040  1.0000
  C   C186      1.0  0.09900  0.47840  0.39040  1.0000
  C   C187      1.0  0.47840  0.40100  0.39040  1.0000
  C   C188      1.0  0.02160  0.09900  0.39040  1.0000
  C   C189      1.0  0.59900  0.52160  0.10960  1.0000
  C   C190      1.0  0.90100  0.97840  0.10960  1.0000
  C   C191      1.0  0.52160  0.90100  0.10960  1.0000
  C   C192      1.0  0.97840  0.59900  0.10960  1.0000
  C   C193      1.0  0.59900  0.97840  0.60960  1.0000
  C   C194      1.0  0.90100  0.52160  0.60960  1.0000
  C   C195      1.0  0.52160  0.59900  0.60960  1.0000
  C   C196      1.0  0.97840  0.90100  0.60960  1.0000
  C   C197      1.0  0.40100  0.47840  0.89040  1.0000
  C   C198      1.0  0.09900  0.02160  0.89040  1.0000
  C   C199      1.0  0.47840  0.09900  0.89040  1.0000
  C   C200      1.0  0.02160  0.40100  0.89040  1.0000
  H   H113      1.0  0.31070  0.01340  0.38750  1.0000
  H   H114      1.0  0.18930  0.48660  0.38750  1.0000
  H   H115      1.0  0.48660  0.31070  0.38750  1.0000
  H   H116      1.0  0.01340  0.18930  0.38750  1.0000
  H   H117      1.0  0.68930  0.51340  0.11250  1.0000
  H   H118      1.0  0.81070  0.98660  0.11250  1.0000
  H   H119      1.0  0.51340  0.81070  0.11250  1.0000
  H   H120      1.0  0.98660  0.68930  0.11250  1.0000
  H   H121      1.0  0.68930  0.98660  0.61250  1.0000
  H   H122      1.0  0.81070  0.51340  0.61250  1.0000
  H   H123      1.0  0.51340  0.68930  0.61250  1.0000
  H   H124      1.0  0.98660  0.81070  0.61250  1.0000
  H   H125      1.0  0.31070  0.48660  0.88750  1.0000
  H   H126      1.0  0.18930  0.01340  0.88750  1.0000
  H   H127      1.0  0.48660  0.18930  0.88750  1.0000
  H   H128      1.0  0.01340  0.31070  0.88750  1.0000
  C   C201      1.0  0.63100  0.12200  0.45560  1.0000
  C   C202      1.0  0.86900  0.37800  0.45560  1.0000
  C   C203      1.0  0.37800  0.63100  0.45560  1.0000
  C   C204      1.0  0.12200  0.86900  0.45560  1.0000
  C   C205      1.0  0.36900  0.62200  0.04440  1.0000
  C   C206      1.0  0.13100  0.87800  0.04440  1.0000
  C   C207      1.0  0.62200  0.13100  0.04440  1.0000
  C   C208      1.0  0.87800  0.36900  0.04440  1.0000
  C   C209      1.0  0.36900  0.87800  0.54440  1.0000
  C   C210      1.0  0.13100  0.62200  0.54440  1.0000
  C   C211      1.0  0.62200  0.36900  0.54440  1.0000
  C   C212      1.0  0.87800  0.13100  0.54440  1.0000
  C   C213      1.0  0.63100  0.37800  0.95560  1.0000
  C   C214      1.0  0.86900  0.12200  0.95560  1.0000
  C   C215      1.0  0.37800  0.86900  0.95560  1.0000
  C   C216      1.0  0.12200  0.63100  0.95560  1.0000
