data_image0
_chemical_formula_structural       O24N8O24C16H8C16H8C24H8C24H8C8H8C8H8C16H8C8H8C16H8C8H8C8H8C16H8Li8
_chemical_formula_sum              "O48 N8 C168 H96 Li8"
_cell_length_a       15.8425
_cell_length_b       24.624
_cell_length_c       17.549
_cell_angle_alpha    90
_cell_angle_beta     111.466
_cell_angle_gamma    90

_space_group_name_H-M_alt    "P 1"
_space_group_IT_number       1

loop_
  _space_group_symop_operation_xyz
  'x, y, z'

loop_
  _atom_site_type_symbol
  _atom_site_label
  _atom_site_symmetry_multiplicity
  _atom_site_fract_x
  _atom_site_fract_y
  _atom_site_fract_z
  _atom_site_occupancy
  O   O1        1.0  0.41940  0.61831  0.66294  1.0000
  O   O2        1.0  0.58060  0.61831  0.83706  1.0000
  O   O3        1.0  0.91940  0.11831  0.66294  1.0000
  O   O4        1.0  0.08060  0.11831  0.83706  1.0000
  O   O5        1.0  0.58060  0.38169  0.33706  1.0000
  O   O6        1.0  0.41940  0.38169  0.16294  1.0000
  O   O7        1.0  0.08060  0.88169  0.33706  1.0000
  O   O8        1.0  0.91940  0.88169  0.16294  1.0000
  O   O9        1.0  0.26840  0.62268  0.60060  1.0000
  O   O10       1.0  0.73160  0.62268  0.89940  1.0000
  O   O11       1.0  0.76840  0.12268  0.60060  1.0000
  O   O12       1.0  0.23160  0.12268  0.89940  1.0000
  O   O13       1.0  0.73160  0.37732  0.39940  1.0000
  O   O14       1.0  0.26840  0.37732  0.10060  1.0000
  O   O15       1.0  0.23160  0.87732  0.39940  1.0000
  O   O16       1.0  0.76840  0.87732  0.10060  1.0000
  O   O17       1.0  0.63910  0.28889  0.46623  1.0000
  O   O18       1.0  0.36090  0.28889  0.03377  1.0000
  O   O19       1.0  0.13910  0.78889  0.46623  1.0000
  O   O20       1.0  0.86090  0.78889  0.03377  1.0000
  O   O21       1.0  0.36090  0.71111  0.53377  1.0000
  O   O22       1.0  0.63910  0.71111  0.96623  1.0000
  O   O23       1.0  0.86090  0.21111  0.53377  1.0000
  O   O24       1.0  0.13910  0.21111  0.96623  1.0000
  N   N1        1.0  0.33580  0.36682  0.60250  1.0000
  N   N2        1.0  0.66420  0.36682  0.89750  1.0000
  N   N3        1.0  0.83580  0.86682  0.60250  1.0000
  N   N4        1.0  0.16420  0.86682  0.89750  1.0000
  N   N5        1.0  0.66420  0.63318  0.39750  1.0000
  N   N6        1.0  0.33580  0.63318  0.10250  1.0000
  N   N7        1.0  0.16420  0.13318  0.39750  1.0000
  N   N8        1.0  0.83580  0.13318  0.10250  1.0000
  O   O25       1.0  0.65580  0.22686  0.56119  1.0000
  O   O26       1.0  0.34420  0.22686  0.93881  1.0000
  O   O27       1.0  0.15580  0.72686  0.56119  1.0000
  O   O28       1.0  0.84420  0.72686  0.93881  1.0000
  O   O29       1.0  0.34420  0.77314  0.43881  1.0000
  O   O30       1.0  0.65580  0.77314  0.06119  1.0000
  O   O31       1.0  0.84420  0.27314  0.43881  1.0000
  O   O32       1.0  0.15580  0.27314  0.06119  1.0000
  O   O33       1.0  0.13900  0.23543  0.80590  1.0000
  O   O34       1.0  0.86100  0.23543  0.69410  1.0000
  O   O35       1.0  0.63900  0.73543  0.80590  1.0000
  O   O36       1.0  0.36100  0.73543  0.69410  1.0000
  O   O37       1.0  0.86100  0.76457  0.19410  1.0000
  O   O38       1.0  0.13900  0.76457  0.30590  1.0000
  O   O39       1.0  0.36100  0.26457  0.19410  1.0000
  O   O40       1.0  0.63900  0.26457  0.30590  1.0000
  O   O41       1.0  0.06120  0.20652  0.68216  1.0000
  O   O42       1.0  0.93880  0.20652  0.81784  1.0000
  O   O43       1.0  0.56120  0.70652  0.68216  1.0000
  O   O44       1.0  0.43880  0.70652  0.81784  1.0000
  O   O45       1.0  0.93880  0.79348  0.31784  1.0000
  O   O46       1.0  0.06120  0.79348  0.18216  1.0000
  O   O47       1.0  0.43880  0.29348  0.31784  1.0000
  O   O48       1.0  0.56120  0.29348  0.18216  1.0000
  C   C1        1.0  0.33980  0.53647  0.62730  1.0000
  C   C2        1.0  0.66020  0.53647  0.87270  1.0000
  C   C3        1.0  0.83980  0.03647  0.62730  1.0000
  C   C4        1.0  0.16020  0.03647  0.87270  1.0000
  C   C5        1.0  0.66020  0.46353  0.37270  1.0000
  C   C6        1.0  0.33980  0.46353  0.12730  1.0000
  C   C7        1.0  0.16020  0.96353  0.37270  1.0000
  C   C8        1.0  0.83980  0.96353  0.12730  1.0000
  C   C9        1.0  0.41790  0.50734  0.64980  1.0000
  C   C10       1.0  0.58210  0.50734  0.85020  1.0000
  C   C11       1.0  0.91790  0.00734  0.64980  1.0000
  C   C12       1.0  0.08210  0.00734  0.85020  1.0000
  C   C13       1.0  0.58210  0.49266  0.35020  1.0000
  C   C14       1.0  0.41790  0.49266  0.14980  1.0000
  C   C15       1.0  0.08210  0.99266  0.35020  1.0000
  C   C16       1.0  0.91790  0.99266  0.14980  1.0000
  H   H1        1.0  0.47430  0.52586  0.67100  1.0000
  H   H2        1.0  0.52570  0.52586  0.82900  1.0000
  H   H3        1.0  0.97430  0.02586  0.67100  1.0000
  H   H4        1.0  0.02570  0.02586  0.82900  1.0000
  H   H5        1.0  0.52570  0.47414  0.32900  1.0000
  H   H6        1.0  0.47430  0.47414  0.17100  1.0000
  H   H7        1.0  0.02570  0.97414  0.32900  1.0000
  H   H8        1.0  0.97430  0.97414  0.17100  1.0000
  C   C17       1.0  0.40470  0.33973  0.58140  1.0000
  C   C18       1.0  0.59530  0.33973  0.91860  1.0000
  C   C19       1.0  0.90470  0.83973  0.58140  1.0000
  C   C20       1.0  0.09530  0.83973  0.91860  1.0000
  C   C21       1.0  0.59530  0.66027  0.41860  1.0000
  C   C22       1.0  0.40470  0.66027  0.08140  1.0000
  C   C23       1.0  0.09530  0.16027  0.41860  1.0000
  C   C24       1.0  0.90470  0.16027  0.08140  1.0000
  C   C25       1.0  0.41730  0.45004  0.64250  1.0000
  C   C26       1.0  0.58270  0.45004  0.85750  1.0000
  C   C27       1.0  0.91730  0.95004  0.64250  1.0000
  C   C28       1.0  0.08270  0.95004  0.85750  1.0000
  C   C29       1.0  0.58270  0.54996  0.35750  1.0000
  C   C30       1.0  0.41730  0.54996  0.14250  1.0000
  C   C31       1.0  0.08270  0.04996  0.35750  1.0000
  C   C32       1.0  0.91730  0.04996  0.14250  1.0000
  H   H9        1.0  0.47270  0.43046  0.65800  1.0000
  H   H10       1.0  0.52730  0.43046  0.84200  1.0000
  H   H11       1.0  0.97270  0.93046  0.65800  1.0000
  H   H12       1.0  0.02730  0.93046  0.84200  1.0000
  H   H13       1.0  0.52730  0.56954  0.34200  1.0000
  H   H14       1.0  0.47270  0.56954  0.15800  1.0000
  H   H15       1.0  0.02730  0.06954  0.34200  1.0000
  H   H16       1.0  0.97270  0.06954  0.15800  1.0000
  C   C33       1.0  0.34440  0.59698  0.63120  1.0000
  C   C34       1.0  0.65560  0.59698  0.86880  1.0000
  C   C35       1.0  0.84440  0.09698  0.63120  1.0000
  C   C36       1.0  0.15560  0.09698  0.86880  1.0000
  C   C37       1.0  0.65560  0.40302  0.36880  1.0000
  C   C38       1.0  0.34440  0.40302  0.13120  1.0000
  C   C39       1.0  0.15560  0.90302  0.36880  1.0000
  C   C40       1.0  0.84440  0.90302  0.13120  1.0000
  C   C41       1.0  0.54390  0.29337  0.54380  1.0000
  C   C42       1.0  0.45610  0.29337  0.95620  1.0000
  C   C43       1.0  0.04390  0.79337  0.54380  1.0000
  C   C44       1.0  0.95610  0.79337  0.95620  1.0000
  C   C45       1.0  0.45610  0.70663  0.45620  1.0000
  C   C46       1.0  0.54390  0.70663  0.04380  1.0000
  C   C47       1.0  0.95610  0.20663  0.45620  1.0000
  C   C48       1.0  0.04390  0.20663  0.04380  1.0000
  C   C49       1.0  0.44210  0.29244  0.61760  1.0000
  C   C50       1.0  0.55790  0.29244  0.88240  1.0000
  C   C51       1.0  0.94210  0.79244  0.61760  1.0000
  C   C52       1.0  0.05790  0.79244  0.88240  1.0000
  C   C53       1.0  0.55790  0.70756  0.38240  1.0000
  C   C54       1.0  0.44210  0.70756  0.11760  1.0000
  C   C55       1.0  0.05790  0.20756  0.38240  1.0000
  C   C56       1.0  0.94210  0.20756  0.11760  1.0000
  H   H17       1.0  0.42200  0.27506  0.65630  1.0000
  H   H18       1.0  0.57800  0.27506  0.84370  1.0000
  H   H19       1.0  0.92200  0.77506  0.65630  1.0000
  H   H20       1.0  0.07800  0.77506  0.84370  1.0000
  H   H21       1.0  0.57800  0.72494  0.34370  1.0000
  H   H22       1.0  0.42200  0.72494  0.15630  1.0000
  H   H23       1.0  0.07800  0.22494  0.34370  1.0000
  H   H24       1.0  0.92200  0.22494  0.15630  1.0000
  C   C57       1.0  0.28140  0.33498  0.63610  1.0000
  C   C58       1.0  0.71860  0.33498  0.86390  1.0000
  C   C59       1.0  0.78140  0.83498  0.63610  1.0000
  C   C60       1.0  0.21860  0.83498  0.86390  1.0000
  C   C61       1.0  0.71860  0.66502  0.36390  1.0000
  C   C62       1.0  0.28140  0.66502  0.13610  1.0000
  C   C63       1.0  0.21860  0.16502  0.36390  1.0000
  C   C64       1.0  0.78140  0.16502  0.13610  1.0000
  C   C65       1.0  0.33740  0.42361  0.61350  1.0000
  C   C66       1.0  0.66260  0.42361  0.88650  1.0000
  C   C67       1.0  0.83740  0.92361  0.61350  1.0000
  C   C68       1.0  0.16260  0.92361  0.88650  1.0000
  C   C69       1.0  0.66260  0.57639  0.38650  1.0000
  C   C70       1.0  0.33740  0.57639  0.11350  1.0000
  C   C71       1.0  0.16260  0.07639  0.38650  1.0000
  C   C72       1.0  0.83740  0.07639  0.11350  1.0000
  C   C73       1.0  0.50380  0.34097  0.50570  1.0000
  C   C74       1.0  0.49620  0.34097  0.99430  1.0000
  C   C75       1.0  0.00380  0.84097  0.50570  1.0000
  C   C76       1.0  0.99620  0.84097  0.99430  1.0000
  C   C77       1.0  0.49620  0.65903  0.49430  1.0000
  C   C78       1.0  0.50380  0.65903  0.00570  1.0000
  C   C79       1.0  0.99620  0.15903  0.49430  1.0000
  C   C80       1.0  0.00380  0.15903  0.00570  1.0000
  H   H25       1.0  0.52220  0.35716  0.46510  1.0000
  H   H26       1.0  0.47780  0.35716  0.03490  1.0000
  H   H27       1.0  0.02220  0.85716  0.46510  1.0000
  H   H28       1.0  0.97780  0.85716  0.03490  1.0000
  H   H29       1.0  0.47780  0.64284  0.53490  1.0000
  H   H30       1.0  0.52220  0.64284  0.96510  1.0000
  H   H31       1.0  0.97780  0.14284  0.53490  1.0000
  H   H32       1.0  0.02220  0.14284  0.96510  1.0000
  C   C81       1.0  0.43800  0.36424  0.52680  1.0000
  C   C82       1.0  0.56200  0.36424  0.97320  1.0000
  C   C83       1.0  0.93800  0.86424  0.52680  1.0000
  C   C84       1.0  0.06200  0.86424  0.97320  1.0000
  C   C85       1.0  0.56200  0.63576  0.47320  1.0000
  C   C86       1.0  0.43800  0.63576  0.02680  1.0000
  C   C87       1.0  0.06200  0.13576  0.47320  1.0000
  C   C88       1.0  0.93800  0.13576  0.02680  1.0000
  H   H33       1.0  0.41390  0.39833  0.50350  1.0000
  H   H34       1.0  0.58610  0.39833  0.99650  1.0000
  H   H35       1.0  0.91390  0.89833  0.50350  1.0000
  H   H36       1.0  0.08610  0.89833  0.99650  1.0000
  H   H37       1.0  0.58610  0.60167  0.49650  1.0000
  H   H38       1.0  0.41390  0.60167  0.00350  1.0000
  H   H39       1.0  0.08610  0.10167  0.49650  1.0000
  H   H40       1.0  0.91390  0.10167  0.00350  1.0000
  C   C89       1.0  0.25610  0.50593  0.59460  1.0000
  C   C90       1.0  0.74390  0.50593  0.90540  1.0000
  C   C91       1.0  0.75610  0.00593  0.59460  1.0000
  C   C92       1.0  0.24390  0.00593  0.90540  1.0000
  C   C93       1.0  0.74390  0.49407  0.40540  1.0000
  C   C94       1.0  0.25610  0.49407  0.09460  1.0000
  C   C95       1.0  0.24390  0.99407  0.40540  1.0000
  C   C96       1.0  0.75610  0.99407  0.09460  1.0000
  H   H41       1.0  0.19990  0.52484  0.57610  1.0000
  H   H42       1.0  0.80010  0.52484  0.92390  1.0000
  H   H43       1.0  0.69990  0.02484  0.57610  1.0000
  H   H44       1.0  0.30010  0.02484  0.92390  1.0000
  H   H45       1.0  0.80010  0.47516  0.42390  1.0000
  H   H46       1.0  0.19990  0.47516  0.07610  1.0000
  H   H47       1.0  0.30010  0.97516  0.42390  1.0000
  H   H48       1.0  0.69990  0.97516  0.07610  1.0000
  C   C97       1.0  0.61680  0.26760  0.52230  1.0000
  C   C98       1.0  0.38320  0.26760  0.97770  1.0000
  C   C99       1.0  0.11680  0.76760  0.52230  1.0000
  C   C100      1.0  0.88320  0.76760  0.97770  1.0000
  C   C101      1.0  0.38320  0.73240  0.47770  1.0000
  C   C102      1.0  0.61680  0.73240  0.02230  1.0000
  C   C103      1.0  0.88320  0.23240  0.47770  1.0000
  C   C104      1.0  0.11680  0.23240  0.02230  1.0000
  C   C105      1.0  0.25600  0.45173  0.58980  1.0000
  C   C106      1.0  0.74400  0.45173  0.91020  1.0000
  C   C107      1.0  0.75600  0.95173  0.58980  1.0000
  C   C108      1.0  0.24400  0.95173  0.91020  1.0000
  C   C109      1.0  0.74400  0.54827  0.41020  1.0000
  C   C110      1.0  0.25600  0.54827  0.08980  1.0000
  C   C111      1.0  0.24400  0.04827  0.41020  1.0000
  C   C112      1.0  0.75600  0.04827  0.08980  1.0000
  H   H49       1.0  0.20020  0.43249  0.57010  1.0000
  H   H50       1.0  0.79980  0.43249  0.92990  1.0000
  H   H51       1.0  0.70020  0.93249  0.57010  1.0000
  H   H52       1.0  0.29980  0.93249  0.92990  1.0000
  H   H53       1.0  0.79980  0.56751  0.42990  1.0000
  H   H54       1.0  0.20020  0.56751  0.07010  1.0000
  H   H55       1.0  0.29980  0.06751  0.42990  1.0000
  H   H56       1.0  0.70020  0.06751  0.07010  1.0000
  C   C113      1.0  0.51240  0.26981  0.59540  1.0000
  C   C114      1.0  0.48760  0.26981  0.90460  1.0000
  C   C115      1.0  0.01240  0.76981  0.59540  1.0000
  C   C116      1.0  0.98760  0.76981  0.90460  1.0000
  C   C117      1.0  0.48760  0.73019  0.40460  1.0000
  C   C118      1.0  0.51240  0.73019  0.09540  1.0000
  C   C119      1.0  0.98760  0.23019  0.40460  1.0000
  C   C120      1.0  0.01240  0.23019  0.09540  1.0000
  H   H57       1.0  0.53800  0.23608  0.61900  1.0000
  H   H58       1.0  0.46200  0.23608  0.88100  1.0000
  H   H59       1.0  0.03800  0.73608  0.61900  1.0000
  H   H60       1.0  0.96200  0.73608  0.88100  1.0000
  H   H61       1.0  0.46200  0.76392  0.38100  1.0000
  H   H62       1.0  0.53800  0.76392  0.11900  1.0000
  H   H63       1.0  0.96200  0.26392  0.38100  1.0000
  H   H64       1.0  0.03800  0.26392  0.11900  1.0000
  C   C121      1.0  0.18140  0.26989  0.69790  1.0000
  C   C122      1.0  0.81860  0.26989  0.80210  1.0000
  C   C123      1.0  0.68140  0.76989  0.69790  1.0000
  C   C124      1.0  0.31860  0.76989  0.80210  1.0000
  C   C125      1.0  0.81860  0.73011  0.30210  1.0000
  C   C126      1.0  0.18140  0.73011  0.19790  1.0000
  C   C127      1.0  0.31860  0.23011  0.30210  1.0000
  C   C128      1.0  0.68140  0.23011  0.19790  1.0000
  C   C129      1.0  0.24380  0.30505  0.74980  1.0000
  C   C130      1.0  0.75620  0.30505  0.75020  1.0000
  C   C131      1.0  0.74380  0.80505  0.74980  1.0000
  C   C132      1.0  0.25620  0.80505  0.75020  1.0000
  C   C133      1.0  0.75620  0.69495  0.25020  1.0000
  C   C134      1.0  0.24380  0.69495  0.24980  1.0000
  C   C135      1.0  0.25620  0.19495  0.25020  1.0000
  C   C136      1.0  0.74380  0.19495  0.24980  1.0000
  H   H65       1.0  0.25200  0.30771  0.80610  1.0000
  H   H66       1.0  0.74800  0.30771  0.69390  1.0000
  H   H67       1.0  0.75200  0.80771  0.80610  1.0000
  H   H68       1.0  0.24800  0.80771  0.69390  1.0000
  H   H69       1.0  0.74800  0.69229  0.19390  1.0000
  H   H70       1.0  0.25200  0.69229  0.30610  1.0000
  H   H71       1.0  0.24800  0.19229  0.19390  1.0000
  H   H72       1.0  0.75200  0.19229  0.30610  1.0000
  C   C137      1.0  0.21720  0.29814  0.58340  1.0000
  C   C138      1.0  0.78280  0.29814  0.91660  1.0000
  C   C139      1.0  0.71720  0.79814  0.58340  1.0000
  C   C140      1.0  0.28280  0.79814  0.91660  1.0000
  C   C141      1.0  0.78280  0.70186  0.41660  1.0000
  C   C142      1.0  0.21720  0.70186  0.08340  1.0000
  C   C143      1.0  0.28280  0.20186  0.41660  1.0000
  C   C144      1.0  0.71720  0.20186  0.08340  1.0000
  H   H73       1.0  0.20890  0.29522  0.52720  1.0000
  H   H74       1.0  0.79110  0.29522  0.97280  1.0000
  H   H75       1.0  0.70890  0.79522  0.52720  1.0000
  H   H76       1.0  0.29110  0.79522  0.97280  1.0000
  H   H77       1.0  0.79110  0.70478  0.47280  1.0000
  H   H78       1.0  0.20890  0.70478  0.02720  1.0000
  H   H79       1.0  0.29110  0.20478  0.47280  1.0000
  H   H80       1.0  0.70890  0.20478  0.02720  1.0000
  C   C145      1.0  0.29360  0.33614  0.71630  1.0000
  C   C146      1.0  0.70640  0.33614  0.78370  1.0000
  C   C147      1.0  0.79360  0.83614  0.71630  1.0000
  C   C148      1.0  0.20640  0.83614  0.78370  1.0000
  C   C149      1.0  0.70640  0.66386  0.28370  1.0000
  C   C150      1.0  0.29360  0.66386  0.21630  1.0000
  C   C151      1.0  0.20640  0.16386  0.28370  1.0000
  C   C152      1.0  0.79360  0.16386  0.21630  1.0000
  H   H81       1.0  0.33880  0.35959  0.75140  1.0000
  H   H82       1.0  0.66120  0.35959  0.74860  1.0000
  H   H83       1.0  0.83880  0.85959  0.75140  1.0000
  H   H84       1.0  0.16120  0.85959  0.74860  1.0000
  H   H85       1.0  0.66120  0.64041  0.24860  1.0000
  H   H86       1.0  0.33880  0.64041  0.25140  1.0000
  H   H87       1.0  0.16120  0.14041  0.24860  1.0000
  H   H88       1.0  0.83880  0.14041  0.25140  1.0000
  C   C153      1.0  0.11820  0.23520  0.72870  1.0000
  C   C154      1.0  0.88180  0.23520  0.77130  1.0000
  C   C155      1.0  0.61820  0.73520  0.72870  1.0000
  C   C156      1.0  0.38180  0.73520  0.77130  1.0000
  C   C157      1.0  0.88180  0.76480  0.27130  1.0000
  C   C158      1.0  0.11820  0.76480  0.22870  1.0000
  C   C159      1.0  0.38180  0.26480  0.27130  1.0000
  C   C160      1.0  0.61820  0.26480  0.22870  1.0000
  C   C161      1.0  0.16710  0.26668  0.61690  1.0000
  C   C162      1.0  0.83290  0.26668  0.88310  1.0000
  C   C163      1.0  0.66710  0.76668  0.61690  1.0000
  C   C164      1.0  0.33290  0.76668  0.88310  1.0000
  C   C165      1.0  0.83290  0.73332  0.38310  1.0000
  C   C166      1.0  0.16710  0.73332  0.11690  1.0000
  C   C167      1.0  0.33290  0.23332  0.38310  1.0000
  C   C168      1.0  0.66710  0.23332  0.11690  1.0000
  H   H89       1.0  0.12230  0.24260  0.58290  1.0000
  H   H90       1.0  0.87770  0.24260  0.91710  1.0000
  H   H91       1.0  0.62230  0.74260  0.58290  1.0000
  H   H92       1.0  0.37770  0.74260  0.91710  1.0000
  H   H93       1.0  0.87770  0.75740  0.41710  1.0000
  H   H94       1.0  0.12230  0.75740  0.08290  1.0000
  H   H95       1.0  0.37770  0.25740  0.41710  1.0000
  H   H96       1.0  0.62230  0.25740  0.08290  1.0000
  Li  Li1       1.0  0.93460  0.19480  0.64890  1.0000
  Li  Li2       1.0  0.06540  0.19480  0.85110  1.0000
  Li  Li3       1.0  0.43460  0.69480  0.64890  1.0000
  Li  Li4       1.0  0.56540  0.69480  0.85110  1.0000
  Li  Li5       1.0  0.06540  0.80520  0.35110  1.0000
  Li  Li6       1.0  0.93460  0.80520  0.14890  1.0000
  Li  Li7       1.0  0.56540  0.30520  0.35110  1.0000
  Li  Li8       1.0  0.43460  0.30520  0.14890  1.0000
