data_image0
_chemical_formula_structural       Hg2Cl2O6N2C6H2C2H2C2H2C4O2
_chemical_formula_sum              "Hg2 Cl2 O8 N2 C14 H6"
_cell_length_a       7.078
_cell_length_b       10.152
_cell_length_c       10.784
_cell_angle_alpha    96.107
_cell_angle_beta     99.163
_cell_angle_gamma    101.792

_space_group_name_H-M_alt    "P 1"
_space_group_IT_number       1

loop_
  _space_group_symop_operation_xyz
  'x, y, z'

loop_
  _atom_site_type_symbol
  _atom_site_label
  _atom_site_symmetry_multiplicity
  _atom_site_fract_x
  _atom_site_fract_y
  _atom_site_fract_z
  _atom_site_occupancy
  Hg  Hg1       1.0  0.00954  0.74661  0.87493  1.0000
  Hg  Hg2       1.0  0.99046  0.25339  0.12507  1.0000
  Cl  Cl1       1.0  0.01280  0.71920  0.65993  1.0000
  Cl  Cl2       1.0  0.98720  0.28080  0.34007  1.0000
  O   O1        1.0  0.73350  0.43930  0.09650  1.0000
  O   O2        1.0  0.26650  0.56070  0.90350  1.0000
  O   O3        1.0  0.79700  0.53500  0.92530  1.0000
  O   O4        1.0  0.20300  0.46500  0.07470  1.0000
  O   O5        1.0  0.21960  0.97320  0.97170  1.0000
  O   O6        1.0  0.78040  0.02680  0.02830  1.0000
  N   N1        1.0  0.01710  0.76810  0.08080  1.0000
  N   N2        1.0  0.98290  0.23190  0.91920  1.0000
  C   C1        1.0  0.81140  0.53510  0.04350  1.0000
  C   C2        1.0  0.18860  0.46490  0.95650  1.0000
  C   C3        1.0  0.92790  0.66200  0.13260  1.0000
  C   C4        1.0  0.07210  0.33800  0.86740  1.0000
  C   C5        1.0  0.93920  0.67250  0.26170  1.0000
  C   C6        1.0  0.06080  0.32750  0.73830  1.0000
  H   H1        1.0  0.88280  0.58710  0.29340  1.0000
  H   H2        1.0  0.11720  0.41290  0.70660  1.0000
  C   C7        1.0  0.01530  0.78320  0.35000  1.0000
  C   C8        1.0  0.98470  0.21680  0.65000  1.0000
  H   H3        1.0  0.00460  0.78600  0.44300  1.0000
  H   H4        1.0  0.99540  0.21400  0.55700  1.0000
  C   C9        1.0  0.11740  0.90300  0.28290  1.0000
  C   C10       1.0  0.88260  0.09700  0.71710  1.0000
  H   H5        1.0  0.18800  0.99230  0.33410  1.0000
  H   H6        1.0  0.81200  0.00770  0.66590  1.0000
  C   C11       1.0  0.11250  0.88560  0.15140  1.0000
  C   C12       1.0  0.88750  0.11440  0.84860  1.0000
  C   C13       1.0  0.20970  0.00210  0.08860  1.0000
  C   C14       1.0  0.79030  0.99790  0.91140  1.0000
  O   O7        1.0  0.27070  0.11420  0.15450  1.0000
  O   O8        1.0  0.72930  0.88580  0.84550  1.0000
