data_image0
_chemical_formula_structural       Pb8I12O32C16H8C8H8C16H8C8H8C16
_chemical_formula_sum              "Pb8 I12 O32 C64 H32"
_cell_length_a       13.9741
_cell_length_b       13.9741
_cell_length_c       17.0429
_cell_angle_alpha    90
_cell_angle_beta     90
_cell_angle_gamma    90

_space_group_name_H-M_alt    "P 1"
_space_group_IT_number       1

loop_
  _space_group_symop_operation_xyz
  'x, y, z'

loop_
  _atom_site_type_symbol
  _atom_site_label
  _atom_site_symmetry_multiplicity
  _atom_site_fract_x
  _atom_site_fract_y
  _atom_site_fract_z
  _atom_site_occupancy
  Pb  Pb1       1.0  0.36844  0.41709  0.17816  1.0000
  Pb  Pb2       1.0  0.08291  0.86844  0.92816  1.0000
  Pb  Pb3       1.0  0.63156  0.58291  0.67816  1.0000
  Pb  Pb4       1.0  0.91709  0.13156  0.42816  1.0000
  Pb  Pb5       1.0  0.86844  0.08291  0.07184  1.0000
  Pb  Pb6       1.0  0.41709  0.36844  0.82184  1.0000
  Pb  Pb7       1.0  0.13156  0.91709  0.57184  1.0000
  Pb  Pb8       1.0  0.58291  0.63156  0.32184  1.0000
  I   I1        1.0  0.37759  0.48030  0.35400  1.0000
  I   I2        1.0  0.01970  0.87759  0.10400  1.0000
  I   I3        1.0  0.62241  0.51970  0.85400  1.0000
  I   I4        1.0  0.98030  0.12241  0.60400  1.0000
  I   I5        1.0  0.87759  0.01970  0.89600  1.0000
  I   I6        1.0  0.48030  0.37759  0.64600  1.0000
  I   I7        1.0  0.12241  0.98030  0.39600  1.0000
  I   I8        1.0  0.51970  0.62241  0.14600  1.0000
  I   I9        1.0  0.33017  0.33017  0.00000  1.0000
  I   I10       1.0  0.16983  0.83017  0.75000  1.0000
  I   I11       1.0  0.66983  0.66983  0.50000  1.0000
  I   I12       1.0  0.83017  0.16983  0.25000  1.0000
  O   O1        1.0  0.45250  0.77640  0.32650  1.0000
  O   O2        1.0  0.72360  0.95250  0.07650  1.0000
  O   O3        1.0  0.54750  0.22360  0.82650  1.0000
  O   O4        1.0  0.27640  0.04750  0.57650  1.0000
  O   O5        1.0  0.95250  0.72360  0.92350  1.0000
  O   O6        1.0  0.77640  0.45250  0.67350  1.0000
  O   O7        1.0  0.04750  0.27640  0.42350  1.0000
  O   O8        1.0  0.22360  0.54750  0.17350  1.0000
  O   O9        1.0  0.60650  0.80160  0.30340  1.0000
  O   O10       1.0  0.69840  0.10650  0.05340  1.0000
  O   O11       1.0  0.39350  0.19840  0.80340  1.0000
  O   O12       1.0  0.30160  0.89350  0.55340  1.0000
  O   O13       1.0  0.10650  0.69840  0.94660  1.0000
  O   O14       1.0  0.80160  0.60650  0.69660  1.0000
  O   O15       1.0  0.89350  0.30160  0.44660  1.0000
  O   O16       1.0  0.19840  0.39350  0.19660  1.0000
  O   O17       1.0  0.35150  0.25110  0.22370  1.0000
  O   O18       1.0  0.24890  0.85150  0.97370  1.0000
  O   O19       1.0  0.64850  0.74890  0.72370  1.0000
  O   O20       1.0  0.75110  0.14850  0.47370  1.0000
  O   O21       1.0  0.85150  0.24890  0.02630  1.0000
  O   O22       1.0  0.25110  0.35150  0.77630  1.0000
  O   O23       1.0  0.14850  0.75110  0.52630  1.0000
  O   O24       1.0  0.74890  0.64850  0.27630  1.0000
  O   O25       1.0  0.50430  0.27280  0.19090  1.0000
  O   O26       1.0  0.22720  0.00430  0.94090  1.0000
  O   O27       1.0  0.49570  0.72720  0.69090  1.0000
  O   O28       1.0  0.77280  0.99570  0.44090  1.0000
  O   O29       1.0  0.00430  0.22720  0.05910  1.0000
  O   O30       1.0  0.27280  0.50430  0.80910  1.0000
  O   O31       1.0  0.99570  0.77280  0.55910  1.0000
  O   O32       1.0  0.72720  0.49570  0.30910  1.0000
  C   C1        1.0  0.46000  0.12120  0.24350  1.0000
  C   C2        1.0  0.37880  0.96000  0.99350  1.0000
  C   C3        1.0  0.54000  0.87880  0.74350  1.0000
  C   C4        1.0  0.62120  0.04000  0.49350  1.0000
  C   C5        1.0  0.96000  0.37880  0.00650  1.0000
  C   C6        1.0  0.12120  0.46000  0.75650  1.0000
  C   C7        1.0  0.04000  0.62120  0.50650  1.0000
  C   C8        1.0  0.87880  0.54000  0.25650  1.0000
  C   C9        1.0  0.38980  0.06550  0.27800  1.0000
  C   C10       1.0  0.43450  0.88980  0.02800  1.0000
  C   C11       1.0  0.61020  0.93450  0.77800  1.0000
  C   C12       1.0  0.56550  0.11020  0.52800  1.0000
  C   C13       1.0  0.88980  0.43450  0.97200  1.0000
  C   C14       1.0  0.06550  0.38980  0.72200  1.0000
  C   C15       1.0  0.11020  0.56550  0.47200  1.0000
  C   C16       1.0  0.93450  0.61020  0.22200  1.0000
  H   H1        1.0  0.32920  0.09110  0.28630  1.0000
  H   H2        1.0  0.40890  0.82920  0.03630  1.0000
  H   H3        1.0  0.67080  0.90890  0.78630  1.0000
  H   H4        1.0  0.59110  0.17080  0.53630  1.0000
  H   H5        1.0  0.82920  0.40890  0.96370  1.0000
  H   H6        1.0  0.09110  0.32920  0.71370  1.0000
  H   H7        1.0  0.17080  0.59110  0.46370  1.0000
  H   H8        1.0  0.90890  0.67080  0.21370  1.0000
  C   C17       1.0  0.40870  0.97170  0.30050  1.0000
  C   C18       1.0  0.52830  0.90870  0.05050  1.0000
  C   C19       1.0  0.59130  0.02830  0.80050  1.0000
  C   C20       1.0  0.47170  0.09130  0.55050  1.0000
  C   C21       1.0  0.90870  0.52830  0.94950  1.0000
  C   C22       1.0  0.97170  0.40870  0.69950  1.0000
  C   C23       1.0  0.09130  0.47170  0.44950  1.0000
  C   C24       1.0  0.02830  0.59130  0.19950  1.0000
  H   H9        1.0  0.36110  0.93530  0.32430  1.0000
  H   H10       1.0  0.56470  0.86110  0.07430  1.0000
  H   H11       1.0  0.63890  0.06470  0.82430  1.0000
  H   H12       1.0  0.43530  0.13890  0.57430  1.0000
  H   H13       1.0  0.86110  0.56470  0.92570  1.0000
  H   H14       1.0  0.93530  0.36110  0.67570  1.0000
  H   H15       1.0  0.13890  0.43530  0.42570  1.0000
  H   H16       1.0  0.06470  0.63890  0.17570  1.0000
  C   C25       1.0  0.49950  0.93210  0.28740  1.0000
  C   C26       1.0  0.56790  0.99950  0.03740  1.0000
  C   C27       1.0  0.50050  0.06790  0.78740  1.0000
  C   C28       1.0  0.43210  0.00050  0.53740  1.0000
  C   C29       1.0  0.99950  0.56790  0.96260  1.0000
  C   C30       1.0  0.93210  0.49950  0.71260  1.0000
  C   C31       1.0  0.00050  0.43210  0.46260  1.0000
  C   C32       1.0  0.06790  0.50050  0.21260  1.0000
  C   C33       1.0  0.57030  0.98760  0.25300  1.0000
  C   C34       1.0  0.51240  0.07030  0.00300  1.0000
  C   C35       1.0  0.42970  0.01240  0.75300  1.0000
  C   C36       1.0  0.48760  0.92970  0.50300  1.0000
  C   C37       1.0  0.07030  0.51240  0.99700  1.0000
  C   C38       1.0  0.98760  0.57030  0.74700  1.0000
  C   C39       1.0  0.92970  0.48760  0.49700  1.0000
  C   C40       1.0  0.01240  0.42970  0.24700  1.0000
  H   H17       1.0  0.63100  0.96230  0.24440  1.0000
  H   H18       1.0  0.53770  0.13100  0.99440  1.0000
  H   H19       1.0  0.36900  0.03770  0.74440  1.0000
  H   H20       1.0  0.46230  0.86900  0.49440  1.0000
  H   H21       1.0  0.13100  0.53770  0.00560  1.0000
  H   H22       1.0  0.96230  0.63100  0.75560  1.0000
  H   H23       1.0  0.86900  0.46230  0.50560  1.0000
  H   H24       1.0  0.03770  0.36900  0.25560  1.0000
  C   C41       1.0  0.54910  0.08350  0.23100  1.0000
  C   C42       1.0  0.41650  0.04910  0.98100  1.0000
  C   C43       1.0  0.45090  0.91650  0.73100  1.0000
  C   C44       1.0  0.58350  0.95090  0.48100  1.0000
  C   C45       1.0  0.04910  0.41650  0.01900  1.0000
  C   C46       1.0  0.08350  0.54910  0.76900  1.0000
  C   C47       1.0  0.95090  0.58350  0.51900  1.0000
  C   C48       1.0  0.91650  0.45090  0.26900  1.0000
  H   H25       1.0  0.59640  0.12100  0.20800  1.0000
  H   H26       1.0  0.37900  0.09640  0.95800  1.0000
  H   H27       1.0  0.40360  0.87900  0.70800  1.0000
  H   H28       1.0  0.62100  0.90360  0.45800  1.0000
  H   H29       1.0  0.09640  0.37900  0.04200  1.0000
  H   H30       1.0  0.12100  0.59640  0.79200  1.0000
  H   H31       1.0  0.90360  0.62100  0.54200  1.0000
  H   H32       1.0  0.87900  0.40360  0.29200  1.0000
  C   C49       1.0  0.43640  0.22160  0.21630  1.0000
  C   C50       1.0  0.27840  0.93640  0.96630  1.0000
  C   C51       1.0  0.56360  0.77840  0.71630  1.0000
  C   C52       1.0  0.72160  0.06360  0.46630  1.0000
  C   C53       1.0  0.93640  0.27840  0.03370  1.0000
  C   C54       1.0  0.22160  0.43640  0.78370  1.0000
  C   C55       1.0  0.06360  0.72160  0.53370  1.0000
  C   C56       1.0  0.77840  0.56360  0.28370  1.0000
  C   C57       1.0  0.51880  0.82910  0.30670  1.0000
  C   C58       1.0  0.67090  0.01880  0.05670  1.0000
  C   C59       1.0  0.48120  0.17090  0.80670  1.0000
  C   C60       1.0  0.32910  0.98120  0.55670  1.0000
  C   C61       1.0  0.01880  0.67090  0.94330  1.0000
  C   C62       1.0  0.82910  0.51880  0.69330  1.0000
  C   C63       1.0  0.98120  0.32910  0.44330  1.0000
  C   C64       1.0  0.17090  0.48120  0.19330  1.0000
