data_image0
_chemical_formula_structural       Pb8Cl8O8C8Cl4O8C8O8C8H8C8H8O8C16H8C8H8C8
_chemical_formula_sum              "Pb8 Cl12 O32 C64 H32"
_cell_length_a       13.7687
_cell_length_b       13.7687
_cell_length_c       16.0091
_cell_angle_alpha    90
_cell_angle_beta     90
_cell_angle_gamma    90

_space_group_name_H-M_alt    "P 1"
_space_group_IT_number       1

loop_
  _space_group_symop_operation_xyz
  'x, y, z'

loop_
  _atom_site_type_symbol
  _atom_site_label
  _atom_site_symmetry_multiplicity
  _atom_site_fract_x
  _atom_site_fract_y
  _atom_site_fract_z
  _atom_site_occupancy
  Pb  Pb1       1.0  0.12542  0.07708  0.32680  1.0000
  Pb  Pb2       1.0  0.87458  0.92293  0.82680  1.0000
  Pb  Pb3       1.0  0.42292  0.62542  0.57680  1.0000
  Pb  Pb4       1.0  0.57708  0.37458  0.07680  1.0000
  Pb  Pb5       1.0  0.37458  0.57708  0.92320  1.0000
  Pb  Pb6       1.0  0.62542  0.42292  0.42320  1.0000
  Pb  Pb7       1.0  0.07708  0.12542  0.67320  1.0000
  Pb  Pb8       1.0  0.92293  0.87458  0.17320  1.0000
  Cl  Cl1       1.0  0.11660  0.02041  0.16244  1.0000
  Cl  Cl2       1.0  0.88340  0.97959  0.66244  1.0000
  Cl  Cl3       1.0  0.47959  0.61660  0.41244  1.0000
  Cl  Cl4       1.0  0.52041  0.38340  0.91244  1.0000
  Cl  Cl5       1.0  0.38340  0.52041  0.08756  1.0000
  Cl  Cl6       1.0  0.61660  0.47959  0.58756  1.0000
  Cl  Cl7       1.0  0.02041  0.11660  0.83756  1.0000
  Cl  Cl8       1.0  0.97959  0.88340  0.33756  1.0000
  O   O1        1.0  0.75700  0.85740  0.22480  1.0000
  O   O2        1.0  0.24300  0.14260  0.72480  1.0000
  O   O3        1.0  0.64260  0.25700  0.47480  1.0000
  O   O4        1.0  0.35740  0.74300  0.97480  1.0000
  O   O5        1.0  0.74300  0.35740  0.02520  1.0000
  O   O6        1.0  0.25700  0.64260  0.52520  1.0000
  O   O7        1.0  0.85740  0.75700  0.77520  1.0000
  O   O8        1.0  0.14260  0.24300  0.27520  1.0000
  C   C1        1.0  0.72530  0.94200  0.21690  1.0000
  C   C2        1.0  0.27470  0.05800  0.71690  1.0000
  C   C3        1.0  0.55800  0.22530  0.46690  1.0000
  C   C4        1.0  0.44200  0.77470  0.96690  1.0000
  C   C5        1.0  0.77470  0.44200  0.03310  1.0000
  C   C6        1.0  0.22530  0.55800  0.53310  1.0000
  C   C7        1.0  0.94200  0.72530  0.78310  1.0000
  C   C8        1.0  0.05800  0.27470  0.28310  1.0000
  Cl  Cl9       1.0  0.16422  0.16422  0.50000  1.0000
  Cl  Cl10      1.0  0.83578  0.83578  0.00000  1.0000
  Cl  Cl11      1.0  0.33578  0.66422  0.75000  1.0000
  Cl  Cl12      1.0  0.66422  0.33578  0.25000  1.0000
  O   O9        1.0  0.77470  0.00910  0.18690  1.0000
  O   O10       1.0  0.22530  0.99090  0.68690  1.0000
  O   O11       1.0  0.49090  0.27470  0.43690  1.0000
  O   O12       1.0  0.50910  0.72530  0.93690  1.0000
  O   O13       1.0  0.72530  0.50910  0.06310  1.0000
  O   O14       1.0  0.27470  0.49090  0.56310  1.0000
  O   O15       1.0  0.00910  0.77470  0.81310  1.0000
  O   O16       1.0  0.99090  0.22530  0.31310  1.0000
  C   C9        1.0  0.62320  0.96350  0.24490  1.0000
  C   C10       1.0  0.37680  0.03650  0.74490  1.0000
  C   C11       1.0  0.53650  0.12320  0.49490  1.0000
  C   C12       1.0  0.46350  0.87680  0.99490  1.0000
  C   C13       1.0  0.87680  0.46350  0.00510  1.0000
  C   C14       1.0  0.12320  0.53650  0.50510  1.0000
  C   C15       1.0  0.96350  0.62320  0.75510  1.0000
  C   C16       1.0  0.03650  0.37680  0.25510  1.0000
  O   O17       1.0  0.27370  0.94710  0.32970  1.0000
  O   O18       1.0  0.72630  0.05290  0.82970  1.0000
  O   O19       1.0  0.55290  0.77370  0.57970  1.0000
  O   O20       1.0  0.44710  0.22630  0.07970  1.0000
  O   O21       1.0  0.22630  0.44710  0.92030  1.0000
  O   O22       1.0  0.77370  0.55290  0.42030  1.0000
  O   O23       1.0  0.94710  0.27370  0.67030  1.0000
  O   O24       1.0  0.05290  0.72630  0.17030  1.0000
  C   C17       1.0  0.56690  0.89090  0.27970  1.0000
  C   C18       1.0  0.43310  0.10910  0.77970  1.0000
  C   C19       1.0  0.60910  0.06690  0.52970  1.0000
  C   C20       1.0  0.39090  0.93310  0.02970  1.0000
  C   C21       1.0  0.93310  0.39090  0.97030  1.0000
  C   C22       1.0  0.06690  0.60910  0.47030  1.0000
  C   C23       1.0  0.89090  0.56690  0.72030  1.0000
  C   C24       1.0  0.10910  0.43310  0.22030  1.0000
  H   H1        1.0  0.59380  0.82970  0.28800  1.0000
  H   H2        1.0  0.40620  0.17030  0.78800  1.0000
  H   H3        1.0  0.67030  0.09380  0.53800  1.0000
  H   H4        1.0  0.32970  0.90620  0.03800  1.0000
  H   H5        1.0  0.90620  0.32970  0.96200  1.0000
  H   H6        1.0  0.09380  0.67030  0.46200  1.0000
  H   H7        1.0  0.82970  0.59380  0.71200  1.0000
  H   H8        1.0  0.17030  0.40620  0.21200  1.0000
  C   C25       1.0  0.47250  0.90740  0.30210  1.0000
  C   C26       1.0  0.52750  0.09260  0.80210  1.0000
  C   C27       1.0  0.59260  0.97250  0.55210  1.0000
  C   C28       1.0  0.40740  0.02750  0.05210  1.0000
  C   C29       1.0  0.02750  0.40740  0.94790  1.0000
  C   C30       1.0  0.97250  0.59260  0.44790  1.0000
  C   C31       1.0  0.90740  0.47250  0.69790  1.0000
  C   C32       1.0  0.09260  0.52750  0.19790  1.0000
  H   H9        1.0  0.43540  0.85780  0.32520  1.0000
  H   H10       1.0  0.56460  0.14220  0.82520  1.0000
  H   H11       1.0  0.64220  0.93540  0.57520  1.0000
  H   H12       1.0  0.35780  0.06460  0.07520  1.0000
  H   H13       1.0  0.06460  0.35780  0.92480  1.0000
  H   H14       1.0  0.93540  0.64220  0.42480  1.0000
  H   H15       1.0  0.85780  0.43540  0.67480  1.0000
  H   H16       1.0  0.14220  0.56460  0.17480  1.0000
  O   O25       1.0  0.29670  0.10340  0.30450  1.0000
  O   O26       1.0  0.70330  0.89660  0.80450  1.0000
  O   O27       1.0  0.39660  0.79670  0.55450  1.0000
  O   O28       1.0  0.60340  0.20330  0.05450  1.0000
  O   O29       1.0  0.20330  0.60340  0.94550  1.0000
  O   O30       1.0  0.79670  0.39660  0.44550  1.0000
  O   O31       1.0  0.10340  0.29670  0.69550  1.0000
  O   O32       1.0  0.89660  0.70330  0.19550  1.0000
  C   C33       1.0  0.43210  0.00000  0.28980  1.0000
  C   C34       1.0  0.56790  0.00000  0.78980  1.0000
  C   C35       1.0  0.50000  0.93210  0.53980  1.0000
  C   C36       1.0  0.50000  0.06790  0.03980  1.0000
  C   C37       1.0  0.06790  0.50000  0.96020  1.0000
  C   C38       1.0  0.93210  0.50000  0.46020  1.0000
  C   C39       1.0  0.00000  0.43210  0.71020  1.0000
  C   C40       1.0  0.00000  0.56790  0.21020  1.0000
  C   C41       1.0  0.48980  0.07360  0.25940  1.0000
  C   C42       1.0  0.51020  0.92640  0.75940  1.0000
  C   C43       1.0  0.42640  0.98980  0.50940  1.0000
  C   C44       1.0  0.57360  0.01020  0.00940  1.0000
  C   C45       1.0  0.01020  0.57360  0.99060  1.0000
  C   C46       1.0  0.98980  0.42640  0.49060  1.0000
  C   C47       1.0  0.07360  0.48980  0.74060  1.0000
  C   C48       1.0  0.92640  0.51020  0.24060  1.0000
  H   H17       1.0  0.46440  0.13590  0.25400  1.0000
  H   H18       1.0  0.53560  0.86410  0.75400  1.0000
  H   H19       1.0  0.36410  0.96440  0.50400  1.0000
  H   H20       1.0  0.63590  0.03560  0.00400  1.0000
  H   H21       1.0  0.03560  0.63590  0.99600  1.0000
  H   H22       1.0  0.96440  0.36410  0.49600  1.0000
  H   H23       1.0  0.13590  0.46440  0.74600  1.0000
  H   H24       1.0  0.86410  0.53560  0.24600  1.0000
  C   C49       1.0  0.58470  0.05600  0.23670  1.0000
  C   C50       1.0  0.41530  0.94400  0.73670  1.0000
  C   C51       1.0  0.44400  0.08470  0.48670  1.0000
  C   C52       1.0  0.55600  0.91530  0.98670  1.0000
  C   C53       1.0  0.91530  0.55600  0.01330  1.0000
  C   C54       1.0  0.08470  0.44400  0.51330  1.0000
  C   C55       1.0  0.05600  0.58470  0.76330  1.0000
  C   C56       1.0  0.94400  0.41530  0.26330  1.0000
  H   H25       1.0  0.62290  0.10610  0.21590  1.0000
  H   H26       1.0  0.37710  0.89390  0.71590  1.0000
  H   H27       1.0  0.39390  0.12290  0.46590  1.0000
  H   H28       1.0  0.60610  0.87710  0.96590  1.0000
  H   H29       1.0  0.87710  0.60610  0.03410  1.0000
  H   H30       1.0  0.12290  0.39390  0.53410  1.0000
  H   H31       1.0  0.10610  0.62290  0.78410  1.0000
  H   H32       1.0  0.89390  0.37710  0.28410  1.0000
  C   C57       1.0  0.32680  0.01790  0.30970  1.0000
  C   C58       1.0  0.67320  0.98210  0.80970  1.0000
  C   C59       1.0  0.48210  0.82680  0.55970  1.0000
  C   C60       1.0  0.51790  0.17320  0.05970  1.0000
  C   C61       1.0  0.17320  0.51790  0.94030  1.0000
  C   C62       1.0  0.82680  0.48210  0.44030  1.0000
  C   C63       1.0  0.01790  0.32680  0.69030  1.0000
  C   C64       1.0  0.98210  0.67320  0.19030  1.0000
