data_image0
_chemical_formula_structural       Cd3O12C18H6C6H6C12H6C6O12C6N6O12
_chemical_formula_sum              "Cd3 O36 C48 H18 N6"
_cell_length_a       13.9484
_cell_length_b       13.9484
_cell_length_c       13.1157
_cell_angle_alpha    90
_cell_angle_beta     90
_cell_angle_gamma    120

_space_group_name_H-M_alt    "P 1"
_space_group_IT_number       1

loop_
  _space_group_symop_operation_xyz
  'x, y, z'

loop_
  _atom_site_type_symbol
  _atom_site_label
  _atom_site_symmetry_multiplicity
  _atom_site_fract_x
  _atom_site_fract_y
  _atom_site_fract_z
  _atom_site_occupancy
  Cd  Cd1       1.0  0.47065  0.47065  0.00000  1.0000
  Cd  Cd2       1.0  0.52935  0.00000  0.33333  1.0000
  Cd  Cd3       1.0  0.00000  0.52935  0.66667  1.0000
  O   O1        1.0  0.43200  0.55380  0.13160  1.0000
  O   O2        1.0  0.44620  0.87820  0.46493  1.0000
  O   O3        1.0  0.12180  0.56800  0.79827  1.0000
  O   O4        1.0  0.87820  0.44620  0.53507  1.0000
  O   O5        1.0  0.56800  0.12180  0.20173  1.0000
  O   O6        1.0  0.55380  0.43200  0.86840  1.0000
  O   O7        1.0  0.31130  0.37710  0.12280  1.0000
  O   O8        1.0  0.62290  0.93420  0.45613  1.0000
  O   O9        1.0  0.06580  0.68870  0.78947  1.0000
  O   O10       1.0  0.93420  0.62290  0.54387  1.0000
  O   O11       1.0  0.68870  0.06580  0.21053  1.0000
  O   O12       1.0  0.37710  0.31130  0.87720  1.0000
  C   C1        1.0  0.34800  0.46750  0.16520  1.0000
  C   C2        1.0  0.53250  0.88050  0.49853  1.0000
  C   C3        1.0  0.11950  0.65200  0.83187  1.0000
  C   C4        1.0  0.88050  0.53250  0.50147  1.0000
  C   C5        1.0  0.65200  0.11950  0.16813  1.0000
  C   C6        1.0  0.46750  0.34800  0.83480  1.0000
  C   C7        1.0  0.29780  0.48000  0.26360  1.0000
  C   C8        1.0  0.52000  0.81780  0.59693  1.0000
  C   C9        1.0  0.18220  0.70220  0.93027  1.0000
  C   C10       1.0  0.81780  0.52000  0.40307  1.0000
  C   C11       1.0  0.70220  0.18220  0.06973  1.0000
  C   C12       1.0  0.48000  0.29780  0.73640  1.0000
  C   C13       1.0  0.27990  0.56940  0.26860  1.0000
  C   C14       1.0  0.43060  0.71050  0.60193  1.0000
  C   C15       1.0  0.28950  0.72010  0.93527  1.0000
  C   C16       1.0  0.71050  0.43060  0.39807  1.0000
  C   C17       1.0  0.72010  0.28950  0.06473  1.0000
  C   C18       1.0  0.56940  0.27990  0.73140  1.0000
  H   H1        1.0  0.30160  0.61940  0.21480  1.0000
  H   H2        1.0  0.38060  0.68220  0.54813  1.0000
  H   H3        1.0  0.31780  0.69840  0.88147  1.0000
  H   H4        1.0  0.68220  0.38060  0.45187  1.0000
  H   H5        1.0  0.69840  0.31780  0.11853  1.0000
  H   H6        1.0  0.61940  0.30160  0.78520  1.0000
  C   C19       1.0  0.22960  0.58410  0.35400  1.0000
  C   C20       1.0  0.41590  0.64550  0.68733  1.0000
  C   C21       1.0  0.35450  0.77040  0.02067  1.0000
  C   C22       1.0  0.64550  0.41590  0.31267  1.0000
  C   C23       1.0  0.77040  0.35450  0.97933  1.0000
  C   C24       1.0  0.58410  0.22960  0.64600  1.0000
  H   H7        1.0  0.21770  0.64390  0.35740  1.0000
  H   H8        1.0  0.35610  0.57380  0.69073  1.0000
  H   H9        1.0  0.42620  0.78230  0.02407  1.0000
  H   H10       1.0  0.57380  0.35610  0.30927  1.0000
  H   H11       1.0  0.78230  0.42620  0.97593  1.0000
  H   H12       1.0  0.64390  0.21770  0.64260  1.0000
  C   C25       1.0  0.19720  0.50940  0.43440  1.0000
  C   C26       1.0  0.49060  0.68780  0.76773  1.0000
  C   C27       1.0  0.31220  0.80280  0.10107  1.0000
  C   C28       1.0  0.68780  0.49060  0.23227  1.0000
  C   C29       1.0  0.80280  0.31220  0.89893  1.0000
  C   C30       1.0  0.50940  0.19720  0.56560  1.0000
  C   C31       1.0  0.21500  0.42000  0.42940  1.0000
  C   C32       1.0  0.58000  0.79500  0.76273  1.0000
  C   C33       1.0  0.20500  0.78500  0.09607  1.0000
  C   C34       1.0  0.79500  0.58000  0.23727  1.0000
  C   C35       1.0  0.78500  0.20500  0.90393  1.0000
  C   C36       1.0  0.42000  0.21500  0.57060  1.0000
  H   H13       1.0  0.19330  0.37000  0.48320  1.0000
  H   H14       1.0  0.63000  0.82330  0.81653  1.0000
  H   H15       1.0  0.17670  0.80670  0.14987  1.0000
  H   H16       1.0  0.82330  0.63000  0.18347  1.0000
  H   H17       1.0  0.80670  0.17670  0.85013  1.0000
  H   H18       1.0  0.37000  0.19330  0.51680  1.0000
  C   C37       1.0  0.26530  0.40530  0.34400  1.0000
  C   C38       1.0  0.59470  0.86000  0.67733  1.0000
  C   C39       1.0  0.14000  0.73470  0.01067  1.0000
  C   C40       1.0  0.86000  0.59470  0.32267  1.0000
  C   C41       1.0  0.73470  0.14000  0.98933  1.0000
  C   C42       1.0  0.40530  0.26530  0.65600  1.0000
  O   O13       1.0  0.14650  0.61390  0.54040  1.0000
  O   O14       1.0  0.38610  0.53260  0.87373  1.0000
  O   O15       1.0  0.46740  0.85350  0.20707  1.0000
  O   O16       1.0  0.53260  0.38610  0.12627  1.0000
  O   O17       1.0  0.85350  0.46740  0.79293  1.0000
  O   O18       1.0  0.61390  0.14650  0.45960  1.0000
  O   O19       1.0  0.08760  0.44680  0.57780  1.0000
  O   O20       1.0  0.55320  0.64080  0.91113  1.0000
  O   O21       1.0  0.35920  0.91240  0.24447  1.0000
  O   O22       1.0  0.64080  0.55320  0.08887  1.0000
  O   O23       1.0  0.91240  0.35920  0.75553  1.0000
  O   O24       1.0  0.44680  0.08760  0.42220  1.0000
  C   C43       1.0  0.14240  0.52730  0.52480  1.0000
  C   C44       1.0  0.47270  0.61510  0.85813  1.0000
  C   C45       1.0  0.38490  0.85760  0.19147  1.0000
  C   C46       1.0  0.61510  0.47270  0.14187  1.0000
  C   C47       1.0  0.85760  0.38490  0.80853  1.0000
  C   C48       1.0  0.52730  0.14240  0.47520  1.0000
  N   N1        1.0  0.27800  0.31150  0.34680  1.0000
  N   N2        1.0  0.68850  0.96650  0.68013  1.0000
  N   N3        1.0  0.03350  0.72200  0.01347  1.0000
  N   N4        1.0  0.96650  0.68850  0.31987  1.0000
  N   N5        1.0  0.72200  0.03350  0.98653  1.0000
  N   N6        1.0  0.31150  0.27800  0.65320  1.0000
  O   O25       1.0  0.38400  0.33900  0.32910  1.0000
  O   O26       1.0  0.66100  0.04500  0.66243  1.0000
  O   O27       1.0  0.95500  0.61600  0.99577  1.0000
  O   O28       1.0  0.04500  0.66100  0.33757  1.0000
  O   O29       1.0  0.61600  0.95500  0.00423  1.0000
  O   O30       1.0  0.33900  0.38400  0.67090  1.0000
  O   O31       1.0  0.21400  0.22600  0.39400  1.0000
  O   O32       1.0  0.77400  0.98800  0.72733  1.0000
  O   O33       1.0  0.01200  0.78600  0.06067  1.0000
  O   O34       1.0  0.98800  0.77400  0.27267  1.0000
  O   O35       1.0  0.78600  0.01200  0.93933  1.0000
  O   O36       1.0  0.22600  0.21400  0.60600  1.0000
