data_image0
_chemical_formula_structural       Cd3O6C24H6C12H6C6H6O6C6O18N6O6
_chemical_formula_sum              "Cd3 O36 C48 H18 N6"
_cell_length_a       14.366
_cell_length_b       14.366
_cell_length_c       12.8607
_cell_angle_alpha    90
_cell_angle_beta     90
_cell_angle_gamma    120

_space_group_name_H-M_alt    "P 1"
_space_group_IT_number       1

loop_
  _space_group_symop_operation_xyz
  'x, y, z'

loop_
  _atom_site_type_symbol
  _atom_site_label
  _atom_site_symmetry_multiplicity
  _atom_site_fract_x
  _atom_site_fract_y
  _atom_site_fract_z
  _atom_site_occupancy
  Cd  Cd1       1.0  0.00000  0.52020  0.16667  1.0000
  Cd  Cd2       1.0  0.47980  0.47980  0.50000  1.0000
  Cd  Cd3       1.0  0.52020  0.00000  0.83334  1.0000
  O   O1        1.0  0.93800  0.60200  0.04800  1.0000
  O   O2        1.0  0.39800  0.33600  0.38133  1.0000
  O   O3        1.0  0.66400  0.06200  0.71467  1.0000
  O   O4        1.0  0.33600  0.39800  0.61867  1.0000
  O   O5        1.0  0.06200  0.66400  0.28533  1.0000
  O   O6        1.0  0.60200  0.93800  0.95200  1.0000
  C   C1        1.0  0.87000  0.52400  0.00700  1.0000
  C   C2        1.0  0.47600  0.34600  0.34033  1.0000
  C   C3        1.0  0.65400  0.13000  0.67367  1.0000
  C   C4        1.0  0.34600  0.47600  0.65967  1.0000
  C   C5        1.0  0.13000  0.65400  0.32633  1.0000
  C   C6        1.0  0.52400  0.87000  0.99300  1.0000
  C   C7        1.0  0.80100  0.50200  0.91900  1.0000
  C   C8        1.0  0.49800  0.29900  0.25233  1.0000
  C   C9        1.0  0.70100  0.19900  0.58567  1.0000
  C   C10       1.0  0.29900  0.49800  0.74767  1.0000
  C   C11       1.0  0.19900  0.70100  0.41433  1.0000
  C   C12       1.0  0.50200  0.80100  0.08100  1.0000
  C   C13       1.0  0.83800  0.58600  0.84800  1.0000
  C   C14       1.0  0.41400  0.25200  0.18133  1.0000
  C   C15       1.0  0.74800  0.16200  0.51467  1.0000
  C   C16       1.0  0.25200  0.41400  0.81867  1.0000
  C   C17       1.0  0.16200  0.74800  0.48533  1.0000
  C   C18       1.0  0.58600  0.83800  0.15200  1.0000
  C   C19       1.0  0.77700  0.57900  0.76200  1.0000
  C   C20       1.0  0.42100  0.19800  0.09533  1.0000
  C   C21       1.0  0.80200  0.22300  0.42867  1.0000
  C   C22       1.0  0.19800  0.42100  0.90467  1.0000
  C   C23       1.0  0.22300  0.80200  0.57133  1.0000
  C   C24       1.0  0.57900  0.77700  0.23800  1.0000
  H   H1        1.0  0.80190  0.63499  0.71442  1.0000
  H   H2        1.0  0.36501  0.16691  0.04775  1.0000
  H   H3        1.0  0.83309  0.19810  0.38109  1.0000
  H   H4        1.0  0.16691  0.36501  0.95225  1.0000
  H   H5        1.0  0.19810  0.83309  0.61891  1.0000
  H   H6        1.0  0.63499  0.80190  0.28558  1.0000
  C   C25       1.0  0.67700  0.48700  0.74700  1.0000
  C   C26       1.0  0.51300  0.19000  0.08033  1.0000
  C   C27       1.0  0.81000  0.32300  0.41367  1.0000
  C   C28       1.0  0.19000  0.51300  0.91967  1.0000
  C   C29       1.0  0.32300  0.81000  0.58633  1.0000
  C   C30       1.0  0.48700  0.67700  0.25300  1.0000
  C   C31       1.0  0.63900  0.40300  0.81700  1.0000
  C   C32       1.0  0.59700  0.23600  0.15033  1.0000
  C   C33       1.0  0.76400  0.36100  0.48367  1.0000
  C   C34       1.0  0.23600  0.59700  0.84967  1.0000
  C   C35       1.0  0.36100  0.76400  0.51633  1.0000
  C   C36       1.0  0.40300  0.63900  0.18300  1.0000
  H   H7        1.0  0.57277  0.34166  0.80728  1.0000
  H   H8        1.0  0.65834  0.23111  0.14061  1.0000
  H   H9        1.0  0.76889  0.42723  0.47395  1.0000
  H   H10       1.0  0.23111  0.65834  0.85939  1.0000
  H   H11       1.0  0.42723  0.76889  0.52605  1.0000
  H   H12       1.0  0.34166  0.57277  0.19272  1.0000
  C   C37       1.0  0.70100  0.41000  0.90400  1.0000
  C   C38       1.0  0.59000  0.29100  0.23733  1.0000
  C   C39       1.0  0.70900  0.29900  0.57067  1.0000
  C   C40       1.0  0.29100  0.59000  0.76267  1.0000
  C   C41       1.0  0.29900  0.70900  0.42933  1.0000
  C   C42       1.0  0.41000  0.70100  0.09600  1.0000
  H   H13       1.0  0.67591  0.35391  0.95100  1.0000
  H   H14       1.0  0.64609  0.32200  0.28433  1.0000
  H   H15       1.0  0.67800  0.32409  0.61767  1.0000
  H   H16       1.0  0.32200  0.64609  0.71567  1.0000
  H   H17       1.0  0.32409  0.67800  0.38233  1.0000
  H   H18       1.0  0.35391  0.67591  0.04900  1.0000
  O   O7        1.0  0.62300  0.55100  0.60000  1.0000
  O   O8        1.0  0.44900  0.07200  0.93333  1.0000
  O   O9        1.0  0.92800  0.37700  0.26667  1.0000
  O   O10       1.0  0.07200  0.44900  0.06667  1.0000
  O   O11       1.0  0.37700  0.92800  0.73333  1.0000
  O   O12       1.0  0.55100  0.62300  0.40000  1.0000
  C   C43       1.0  0.62200  0.47700  0.64900  1.0000
  C   C44       1.0  0.52300  0.14500  0.98233  1.0000
  C   C45       1.0  0.85500  0.37800  0.31567  1.0000
  C   C46       1.0  0.14500  0.52300  0.01767  1.0000
  C   C47       1.0  0.37800  0.85500  0.68433  1.0000
  C   C48       1.0  0.47700  0.62200  0.35100  1.0000
  O   O13       1.0  0.53600  0.39700  0.63600  1.0000
  O   O14       1.0  0.60300  0.13900  0.96933  1.0000
  O   O15       1.0  0.86100  0.46400  0.30267  1.0000
  O   O16       1.0  0.13900  0.60300  0.03067  1.0000
  O   O17       1.0  0.46400  0.86100  0.69733  1.0000
  O   O18       1.0  0.39700  0.53600  0.36400  1.0000
  O   O19       1.0  0.87000  0.44200  0.02700  1.0000
  O   O20       1.0  0.55800  0.42800  0.36033  1.0000
  O   O21       1.0  0.57200  0.13000  0.69367  1.0000
  O   O22       1.0  0.42800  0.55800  0.63967  1.0000
  O   O23       1.0  0.13000  0.57200  0.30633  1.0000
  O   O24       1.0  0.44200  0.87000  0.97300  1.0000
  O   O25       1.0  0.00700  0.73300  0.83700  1.0000
  O   O26       1.0  0.26700  0.27400  0.17033  1.0000
  O   O27       1.0  0.72600  0.99300  0.50367  1.0000
  O   O28       1.0  0.27400  0.26700  0.82967  1.0000
  O   O29       1.0  0.99300  0.72600  0.49633  1.0000
  O   O30       1.0  0.73300  0.00700  0.16300  1.0000
  N   N1        1.0  0.92000  0.69700  0.87900  1.0000
  N   N2        1.0  0.30300  0.22300  0.21233  1.0000
  N   N3        1.0  0.77700  0.08000  0.54567  1.0000
  N   N4        1.0  0.22300  0.30300  0.78767  1.0000
  N   N5        1.0  0.08000  0.77700  0.45433  1.0000
  N   N6        1.0  0.69700  0.92000  0.12100  1.0000
  O   O31       1.0  0.88500  0.74600  0.92900  1.0000
  O   O32       1.0  0.25400  0.13900  0.26233  1.0000
  O   O33       1.0  0.86100  0.11500  0.59567  1.0000
  O   O34       1.0  0.13900  0.25400  0.73767  1.0000
  O   O35       1.0  0.11500  0.86100  0.40433  1.0000
  O   O36       1.0  0.74600  0.88500  0.07100  1.0000
