data_image0
_chemical_formula_structural       Cd3O6C6O6C12H6C6H6C18H6N6O12C6O12
_chemical_formula_sum              "Cd3 O36 C48 H18 N6"
_cell_length_a       13.7702
_cell_length_b       13.7702
_cell_length_c       13.2048
_cell_angle_alpha    90
_cell_angle_beta     90
_cell_angle_gamma    120

_space_group_name_H-M_alt    "P 1"
_space_group_IT_number       1

loop_
  _space_group_symop_operation_xyz
  'x, y, z'

loop_
  _atom_site_type_symbol
  _atom_site_label
  _atom_site_symmetry_multiplicity
  _atom_site_fract_x
  _atom_site_fract_y
  _atom_site_fract_z
  _atom_site_occupancy
  Cd  Cd1       1.0  0.47134  0.00000  0.83333  1.0000
  Cd  Cd2       1.0  0.00000  0.47134  0.16666  1.0000
  Cd  Cd3       1.0  0.52866  0.52866  0.50000  1.0000
  O   O1        1.0  0.38780  0.85110  0.95710  1.0000
  O   O2        1.0  0.14890  0.53670  0.29043  1.0000
  O   O3        1.0  0.46330  0.61220  0.62377  1.0000
  O   O4        1.0  0.53670  0.14890  0.70957  1.0000
  O   O5        1.0  0.61220  0.46330  0.37623  1.0000
  O   O6        1.0  0.85110  0.38780  0.04290  1.0000
  C   C1        1.0  0.47170  0.85920  0.96670  1.0000
  C   C2        1.0  0.14080  0.61250  0.30003  1.0000
  C   C3        1.0  0.38750  0.52830  0.63337  1.0000
  C   C4        1.0  0.61250  0.14080  0.69997  1.0000
  C   C5        1.0  0.52830  0.38750  0.36663  1.0000
  C   C6        1.0  0.85920  0.47170  0.03330  1.0000
  O   O7        1.0  0.54900  0.90100  0.91570  1.0000
  O   O8        1.0  0.09900  0.64800  0.24903  1.0000
  O   O9        1.0  0.35200  0.45100  0.58237  1.0000
  O   O10       1.0  0.64800  0.09900  0.75097  1.0000
  O   O11       1.0  0.45100  0.35200  0.41763  1.0000
  O   O12       1.0  0.90100  0.54900  0.08430  1.0000
  C   C7        1.0  0.48980  0.79720  0.06010  1.0000
  C   C8        1.0  0.20280  0.69260  0.39343  1.0000
  C   C9        1.0  0.30740  0.51020  0.72677  1.0000
  C   C10       1.0  0.69260  0.20280  0.60657  1.0000
  C   C11       1.0  0.51020  0.30740  0.27323  1.0000
  C   C12       1.0  0.79720  0.48980  0.93990  1.0000
  C   C13       1.0  0.41690  0.76880  0.14180  1.0000
  C   C14       1.0  0.23120  0.64810  0.47513  1.0000
  C   C15       1.0  0.35190  0.58310  0.80847  1.0000
  C   C16       1.0  0.64810  0.23120  0.52487  1.0000
  C   C17       1.0  0.58310  0.35190  0.19153  1.0000
  C   C18       1.0  0.76880  0.41690  0.85820  1.0000
  H   H1        1.0  0.35424  0.77983  0.13801  1.0000
  H   H2        1.0  0.22017  0.57441  0.47134  1.0000
  H   H3        1.0  0.42559  0.64576  0.80468  1.0000
  H   H4        1.0  0.57441  0.22017  0.52866  1.0000
  H   H5        1.0  0.64576  0.42559  0.19532  1.0000
  H   H6        1.0  0.77983  0.35424  0.86199  1.0000
  C   C19       1.0  0.43580  0.72420  0.22910  1.0000
  C   C20       1.0  0.27580  0.71160  0.56243  1.0000
  C   C21       1.0  0.28840  0.56420  0.89577  1.0000
  C   C22       1.0  0.71160  0.27580  0.43757  1.0000
  C   C23       1.0  0.56420  0.28840  0.10423  1.0000
  C   C24       1.0  0.72420  0.43580  0.77090  1.0000
  H   H7        1.0  0.38596  0.70478  0.28496  1.0000
  H   H8        1.0  0.29522  0.68118  0.61829  1.0000
  H   H9        1.0  0.31882  0.61404  0.95163  1.0000
  H   H10       1.0  0.68118  0.29522  0.38171  1.0000
  H   H11       1.0  0.61404  0.31882  0.04837  1.0000
  H   H12       1.0  0.70478  0.38596  0.71504  1.0000
  C   C25       1.0  0.52750  0.70800  0.23470  1.0000
  C   C26       1.0  0.29200  0.81950  0.56803  1.0000
  C   C27       1.0  0.18050  0.47250  0.90137  1.0000
  C   C28       1.0  0.81950  0.29200  0.43197  1.0000
  C   C29       1.0  0.47250  0.18050  0.09863  1.0000
  C   C30       1.0  0.70800  0.52750  0.76530  1.0000
  C   C31       1.0  0.60040  0.73640  0.15300  1.0000
  C   C32       1.0  0.26360  0.86400  0.48633  1.0000
  C   C33       1.0  0.13600  0.39960  0.81967  1.0000
  C   C34       1.0  0.86400  0.26360  0.51367  1.0000
  C   C35       1.0  0.39960  0.13600  0.18033  1.0000
  C   C36       1.0  0.73640  0.60040  0.84700  1.0000
  C   C37       1.0  0.58150  0.78100  0.06570  1.0000
  C   C38       1.0  0.21900  0.80050  0.39903  1.0000
  C   C39       1.0  0.19950  0.41850  0.73237  1.0000
  C   C40       1.0  0.80050  0.21900  0.60097  1.0000
  C   C41       1.0  0.41850  0.19950  0.26763  1.0000
  C   C42       1.0  0.78100  0.58150  0.93430  1.0000
  H   H13       1.0  0.63135  0.80037  0.00982  1.0000
  H   H14       1.0  0.19963  0.83098  0.34315  1.0000
  H   H15       1.0  0.16902  0.36865  0.67649  1.0000
  H   H16       1.0  0.83098  0.19963  0.65685  1.0000
  H   H17       1.0  0.36865  0.16902  0.32351  1.0000
  H   H18       1.0  0.80037  0.63135  0.99018  1.0000
  N   N1        1.0  0.69000  0.71000  0.14200  1.0000
  N   N2        1.0  0.29000  0.98000  0.47533  1.0000
  N   N3        1.0  0.02000  0.31000  0.80867  1.0000
  N   N4        1.0  0.98000  0.29000  0.52467  1.0000
  N   N5        1.0  0.31000  0.02000  0.19133  1.0000
  N   N6        1.0  0.71000  0.69000  0.85800  1.0000
  O   O13       1.0  0.66900  0.62100  0.16400  1.0000
  O   O14       1.0  0.37900  0.04800  0.49733  1.0000
  O   O15       1.0  0.95200  0.33100  0.83067  1.0000
  O   O16       1.0  0.04800  0.37900  0.50267  1.0000
  O   O17       1.0  0.33100  0.95200  0.16933  1.0000
  O   O18       1.0  0.62100  0.66900  0.83600  1.0000
  O   O19       1.0  0.78900  0.79400  0.10900  1.0000
  O   O20       1.0  0.20600  0.99500  0.44233  1.0000
  O   O21       1.0  0.00500  0.21100  0.77567  1.0000
  O   O22       1.0  0.99500  0.20600  0.55767  1.0000
  O   O23       1.0  0.21100  0.00500  0.22433  1.0000
  O   O24       1.0  0.79400  0.78900  0.89100  1.0000
  C   C43       1.0  0.51600  0.64100  0.32990  1.0000
  C   C44       1.0  0.35900  0.87500  0.66323  1.0000
  C   C45       1.0  0.12500  0.48400  0.99657  1.0000
  C   C46       1.0  0.87500  0.35900  0.33677  1.0000
  C   C47       1.0  0.48400  0.12500  0.00343  1.0000
  C   C48       1.0  0.64100  0.51600  0.67010  1.0000
  O   O25       1.0  0.62800  0.69100  0.37320  1.0000
  O   O26       1.0  0.30900  0.93700  0.70653  1.0000
  O   O27       1.0  0.06300  0.37200  0.03987  1.0000
  O   O28       1.0  0.93700  0.30900  0.29347  1.0000
  O   O29       1.0  0.37200  0.06300  0.96013  1.0000
  O   O30       1.0  0.69100  0.62800  0.62680  1.0000
  O   O31       1.0  0.43700  0.55900  0.36330  1.0000
  O   O32       1.0  0.44100  0.87800  0.69663  1.0000
  O   O33       1.0  0.12200  0.56300  0.02997  1.0000
  O   O34       1.0  0.87800  0.44100  0.30337  1.0000
  O   O35       1.0  0.56300  0.12200  0.97003  1.0000
  O   O36       1.0  0.55900  0.43700  0.63670  1.0000
