data_image0
_chemical_formula_structural       Cd3O12C24H6C12H6C6H6O12C6N6O12
_chemical_formula_sum              "Cd3 O36 C48 H18 N6"
_cell_length_a       14.0982
_cell_length_b       14.0982
_cell_length_c       13.0538
_cell_angle_alpha    90
_cell_angle_beta     90
_cell_angle_gamma    120

_space_group_name_H-M_alt    "P 1"
_space_group_IT_number       1

loop_
  _space_group_symop_operation_xyz
  'x, y, z'

loop_
  _atom_site_type_symbol
  _atom_site_label
  _atom_site_symmetry_multiplicity
  _atom_site_fract_x
  _atom_site_fract_y
  _atom_site_fract_z
  _atom_site_occupancy
  Cd  Cd1       1.0  0.47128  0.47128  0.00000  1.0000
  Cd  Cd2       1.0  0.52872  1.00000  0.33333  1.0000
  Cd  Cd3       1.0  0.00000  0.52872  0.66667  1.0000
  O   O1        1.0  0.42900  0.55900  0.12900  1.0000
  O   O2        1.0  0.44100  0.87000  0.46233  1.0000
  O   O3        1.0  0.13000  0.57100  0.79567  1.0000
  O   O4        1.0  0.87000  0.44100  0.53767  1.0000
  O   O5        1.0  0.57100  0.13000  0.20433  1.0000
  O   O6        1.0  0.55900  0.42900  0.87100  1.0000
  O   O7        1.0  0.31280  0.37800  0.12120  1.0000
  O   O8        1.0  0.62200  0.93480  0.45453  1.0000
  O   O9        1.0  0.06520  0.68720  0.78787  1.0000
  O   O10       1.0  0.93480  0.62200  0.54547  1.0000
  O   O11       1.0  0.68720  0.06520  0.21213  1.0000
  O   O12       1.0  0.37800  0.31280  0.87880  1.0000
  C   C1        1.0  0.34900  0.47400  0.16310  1.0000
  C   C2        1.0  0.52600  0.87500  0.49643  1.0000
  C   C3        1.0  0.12500  0.65100  0.82977  1.0000
  C   C4        1.0  0.87500  0.52600  0.50357  1.0000
  C   C5        1.0  0.65100  0.12500  0.17023  1.0000
  C   C6        1.0  0.47400  0.34900  0.83690  1.0000
  C   C7        1.0  0.29860  0.48340  0.26060  1.0000
  C   C8        1.0  0.51660  0.81520  0.59393  1.0000
  C   C9        1.0  0.18480  0.70140  0.92727  1.0000
  C   C10       1.0  0.81520  0.51660  0.40607  1.0000
  C   C11       1.0  0.70140  0.18480  0.07273  1.0000
  C   C12       1.0  0.48340  0.29860  0.73940  1.0000
  C   C13       1.0  0.26230  0.40630  0.33890  1.0000
  C   C14       1.0  0.59370  0.85600  0.67223  1.0000
  C   C15       1.0  0.14400  0.73770  0.00557  1.0000
  C   C16       1.0  0.85600  0.59370  0.32777  1.0000
  C   C17       1.0  0.73770  0.14400  0.99443  1.0000
  C   C18       1.0  0.40630  0.26230  0.66110  1.0000
  C   C19       1.0  0.21060  0.41900  0.42420  1.0000
  C   C20       1.0  0.58100  0.79160  0.75753  1.0000
  C   C21       1.0  0.20840  0.78940  0.09087  1.0000
  C   C22       1.0  0.79160  0.58100  0.24247  1.0000
  C   C23       1.0  0.78940  0.20840  0.90913  1.0000
  C   C24       1.0  0.41900  0.21060  0.57580  1.0000
  H   H1        1.0  0.18640  0.36740  0.47660  1.0000
  H   H2        1.0  0.63260  0.81900  0.80993  1.0000
  H   H3        1.0  0.18100  0.81360  0.14327  1.0000
  H   H4        1.0  0.81900  0.63260  0.19007  1.0000
  H   H5        1.0  0.81360  0.18100  0.85673  1.0000
  H   H6        1.0  0.36740  0.18640  0.52340  1.0000
  C   C25       1.0  0.19520  0.50870  0.43110  1.0000
  C   C26       1.0  0.49130  0.68650  0.76443  1.0000
  C   C27       1.0  0.31350  0.80480  0.09777  1.0000
  C   C28       1.0  0.68650  0.49130  0.23557  1.0000
  C   C29       1.0  0.80480  0.31350  0.90223  1.0000
  C   C30       1.0  0.50870  0.19520  0.56890  1.0000
  C   C31       1.0  0.23150  0.58580  0.35280  1.0000
  C   C32       1.0  0.41420  0.64570  0.68613  1.0000
  C   C33       1.0  0.35430  0.76850  0.01947  1.0000
  C   C34       1.0  0.64570  0.41420  0.31387  1.0000
  C   C35       1.0  0.76850  0.35430  0.98053  1.0000
  C   C36       1.0  0.58580  0.23150  0.64720  1.0000
  H   H7        1.0  0.22120  0.64590  0.35750  1.0000
  H   H8        1.0  0.35410  0.57530  0.69083  1.0000
  H   H9        1.0  0.42470  0.77880  0.02417  1.0000
  H   H10       1.0  0.57530  0.35410  0.30917  1.0000
  H   H11       1.0  0.77880  0.42470  0.97583  1.0000
  H   H12       1.0  0.64590  0.22120  0.64250  1.0000
  C   C37       1.0  0.28320  0.57320  0.26760  1.0000
  C   C38       1.0  0.42680  0.71000  0.60093  1.0000
  C   C39       1.0  0.29000  0.71680  0.93427  1.0000
  C   C40       1.0  0.71000  0.42680  0.39907  1.0000
  C   C41       1.0  0.71680  0.29000  0.06573  1.0000
  C   C42       1.0  0.57320  0.28320  0.73240  1.0000
  H   H13       1.0  0.30750  0.62480  0.21520  1.0000
  H   H14       1.0  0.37520  0.68270  0.54853  1.0000
  H   H15       1.0  0.31730  0.69250  0.88187  1.0000
  H   H16       1.0  0.68270  0.37520  0.45147  1.0000
  H   H17       1.0  0.69250  0.31730  0.11813  1.0000
  H   H18       1.0  0.62480  0.30750  0.78480  1.0000
  O   O13       1.0  0.08400  0.44600  0.57470  1.0000
  O   O14       1.0  0.55400  0.63800  0.90803  1.0000
  O   O15       1.0  0.36200  0.91600  0.24137  1.0000
  O   O16       1.0  0.63800  0.55400  0.09197  1.0000
  O   O17       1.0  0.91600  0.36200  0.75863  1.0000
  O   O18       1.0  0.44600  0.08400  0.42530  1.0000
  O   O19       1.0  0.14250  0.61090  0.53630  1.0000
  O   O20       1.0  0.38910  0.53160  0.86963  1.0000
  O   O21       1.0  0.46840  0.85750  0.20297  1.0000
  O   O22       1.0  0.53160  0.38910  0.13037  1.0000
  O   O23       1.0  0.85750  0.46840  0.79703  1.0000
  O   O24       1.0  0.61090  0.14250  0.46370  1.0000
  C   C43       1.0  0.14040  0.52600  0.52250  1.0000
  C   C44       1.0  0.47400  0.61440  0.85583  1.0000
  C   C45       1.0  0.38560  0.85960  0.18917  1.0000
  C   C46       1.0  0.61440  0.47400  0.14417  1.0000
  C   C47       1.0  0.85960  0.38560  0.81083  1.0000
  C   C48       1.0  0.52600  0.14040  0.47750  1.0000
  N   N1        1.0  0.27200  0.31400  0.34300  1.0000
  N   N2        1.0  0.68600  0.95800  0.67633  1.0000
  N   N3        1.0  0.04200  0.72800  0.00967  1.0000
  N   N4        1.0  0.95800  0.68600  0.32367  1.0000
  N   N5        1.0  0.72800  0.04200  0.99033  1.0000
  N   N6        1.0  0.31400  0.27200  0.65700  1.0000
  O   O25       1.0  0.38000  0.34200  0.33700  1.0000
  O   O26       1.0  0.65800  0.03800  0.67033  1.0000
  O   O27       1.0  0.96200  0.62000  0.00367  1.0000
  O   O28       1.0  0.03800  0.65800  0.32967  1.0000
  O   O29       1.0  0.62000  0.96200  0.99633  1.0000
  O   O30       1.0  0.34200  0.38000  0.66300  1.0000
  O   O31       1.0  0.22700  0.24800  0.43000  1.0000
  O   O32       1.0  0.75200  0.97900  0.76333  1.0000
  O   O33       1.0  0.02100  0.77300  0.09667  1.0000
  O   O34       1.0  0.97900  0.75200  0.23667  1.0000
  O   O35       1.0  0.77300  0.02100  0.90333  1.0000
  O   O36       1.0  0.24800  0.22700  0.57000  1.0000
