data_image0
_chemical_formula_structural       Cd3O12C24H6C12H6C6H6O12C6O12N6
_chemical_formula_sum              "Cd3 O36 C48 H18 N6"
_cell_length_a       14.9689
_cell_length_b       14.9689
_cell_length_c       12.6934
_cell_angle_alpha    90
_cell_angle_beta     90
_cell_angle_gamma    120

_space_group_name_H-M_alt    "P 1"
_space_group_IT_number       1

loop_
  _space_group_symop_operation_xyz
  'x, y, z'

loop_
  _atom_site_type_symbol
  _atom_site_label
  _atom_site_symmetry_multiplicity
  _atom_site_fract_x
  _atom_site_fract_y
  _atom_site_fract_z
  _atom_site_occupancy
  Cd  Cd1       1.0  0.49978  0.49978  0.00000  1.0000
  Cd  Cd2       1.0  0.50022  0.00000  0.33333  1.0000
  Cd  Cd3       1.0  0.00000  0.50022  0.66667  1.0000
  O   O1        1.0  0.42250  0.35600  0.88550  1.0000
  O   O2        1.0  0.64400  0.06650  0.21883  1.0000
  O   O3        1.0  0.93350  0.57750  0.55217  1.0000
  O   O4        1.0  0.06650  0.64400  0.78117  1.0000
  O   O5        1.0  0.57750  0.93350  0.44783  1.0000
  O   O6        1.0  0.35600  0.42250  0.11450  1.0000
  O   O7        1.0  0.58990  0.44020  0.88190  1.0000
  O   O8        1.0  0.55980  0.14970  0.21523  1.0000
  O   O9        1.0  0.85030  0.41010  0.54857  1.0000
  O   O10       1.0  0.14970  0.55980  0.78477  1.0000
  O   O11       1.0  0.41010  0.85030  0.45143  1.0000
  O   O12       1.0  0.44020  0.58990  0.11810  1.0000
  C   C1        1.0  0.49750  0.36790  0.84390  1.0000
  C   C2        1.0  0.63210  0.12960  0.17723  1.0000
  C   C3        1.0  0.87040  0.50250  0.51057  1.0000
  C   C4        1.0  0.12960  0.63210  0.82277  1.0000
  C   C5        1.0  0.50250  0.87040  0.48943  1.0000
  C   C6        1.0  0.36790  0.49750  0.15610  1.0000
  C   C7        1.0  0.50230  0.30370  0.75610  1.0000
  C   C8        1.0  0.69630  0.19860  0.08943  1.0000
  C   C9        1.0  0.80140  0.49770  0.42277  1.0000
  C   C10       1.0  0.19860  0.69630  0.91057  1.0000
  C   C11       1.0  0.49770  0.80140  0.57723  1.0000
  C   C12       1.0  0.30370  0.50230  0.24390  1.0000
  C   C13       1.0  0.41090  0.22190  0.71800  1.0000
  C   C14       1.0  0.77810  0.18900  0.05133  1.0000
  C   C15       1.0  0.81100  0.58910  0.38467  1.0000
  C   C16       1.0  0.18900  0.77810  0.94867  1.0000
  C   C17       1.0  0.58910  0.81100  0.61533  1.0000
  C   C18       1.0  0.22190  0.41090  0.28200  1.0000
  C   C19       1.0  0.41240  0.16640  0.63090  1.0000
  C   C20       1.0  0.83360  0.24600  0.96423  1.0000
  C   C21       1.0  0.75400  0.58760  0.29757  1.0000
  C   C22       1.0  0.24600  0.83360  0.03577  1.0000
  C   C23       1.0  0.58760  0.75400  0.70243  1.0000
  C   C24       1.0  0.16640  0.41240  0.36910  1.0000
  H   H1        1.0  0.34988  0.11048  0.60481  1.0000
  H   H2        1.0  0.88952  0.23940  0.93814  1.0000
  H   H3        1.0  0.76060  0.65012  0.27148  1.0000
  H   H4        1.0  0.23940  0.88952  0.06186  1.0000
  H   H5        1.0  0.65012  0.76060  0.72852  1.0000
  H   H6        1.0  0.11048  0.34988  0.39519  1.0000
  C   C25       1.0  0.50540  0.19270  0.58190  1.0000
  C   C26       1.0  0.80730  0.31270  0.91523  1.0000
  C   C27       1.0  0.68730  0.49460  0.24857  1.0000
  C   C28       1.0  0.31270  0.80730  0.08477  1.0000
  C   C29       1.0  0.49460  0.68730  0.75143  1.0000
  C   C30       1.0  0.19270  0.50540  0.41810  1.0000
  C   C31       1.0  0.59690  0.27450  0.62000  1.0000
  C   C32       1.0  0.72550  0.32240  0.95333  1.0000
  C   C33       1.0  0.67760  0.40310  0.28667  1.0000
  C   C34       1.0  0.32240  0.72550  0.04667  1.0000
  C   C35       1.0  0.40310  0.67760  0.71333  1.0000
  C   C36       1.0  0.27450  0.59690  0.38000  1.0000
  H   H7        1.0  0.66049  0.29250  0.58657  1.0000
  H   H8        1.0  0.70750  0.36799  0.91990  1.0000
  H   H9        1.0  0.63201  0.33951  0.25324  1.0000
  H   H10       1.0  0.36799  0.70750  0.08010  1.0000
  H   H11       1.0  0.33951  0.63201  0.74676  1.0000
  H   H12       1.0  0.29250  0.66049  0.41343  1.0000
  C   C37       1.0  0.59540  0.33000  0.70710  1.0000
  C   C38       1.0  0.67000  0.26540  0.04043  1.0000
  C   C39       1.0  0.73460  0.40460  0.37377  1.0000
  C   C40       1.0  0.26540  0.67000  0.95957  1.0000
  C   C41       1.0  0.40460  0.73460  0.62623  1.0000
  C   C42       1.0  0.33000  0.59540  0.29290  1.0000
  H   H13       1.0  0.65789  0.38590  0.73321  1.0000
  H   H14       1.0  0.61410  0.27199  0.06654  1.0000
  H   H15       1.0  0.72801  0.34211  0.39988  1.0000
  H   H16       1.0  0.27199  0.61410  0.93346  1.0000
  H   H17       1.0  0.34211  0.72801  0.60012  1.0000
  H   H18       1.0  0.38590  0.65789  0.26679  1.0000
  O   O13       1.0  0.42810  0.07390  0.44370  1.0000
  O   O14       1.0  0.92610  0.35420  0.77703  1.0000
  O   O15       1.0  0.64580  0.57190  0.11037  1.0000
  O   O16       1.0  0.35420  0.92610  0.22297  1.0000
  O   O17       1.0  0.57190  0.64580  0.88963  1.0000
  O   O18       1.0  0.07390  0.42810  0.55630  1.0000
  O   O19       1.0  0.59430  0.13830  0.46740  1.0000
  O   O20       1.0  0.86170  0.45600  0.80073  1.0000
  O   O21       1.0  0.54400  0.40570  0.13407  1.0000
  O   O22       1.0  0.45600  0.86170  0.19927  1.0000
  O   O23       1.0  0.40570  0.54400  0.86593  1.0000
  O   O24       1.0  0.13830  0.59430  0.53260  1.0000
  C   C43       1.0  0.51560  0.13450  0.48520  1.0000
  C   C44       1.0  0.86550  0.38110  0.81853  1.0000
  C   C45       1.0  0.61890  0.48440  0.15187  1.0000
  C   C46       1.0  0.38110  0.86550  0.18147  1.0000
  C   C47       1.0  0.48440  0.61890  0.84813  1.0000
  C   C48       1.0  0.13450  0.51560  0.51480  1.0000
  O   O25       1.0  0.29900  0.13300  0.85600  1.0000
  O   O26       1.0  0.86700  0.16600  0.18933  1.0000
  O   O27       1.0  0.83400  0.70100  0.52267  1.0000
  O   O28       1.0  0.16600  0.86700  0.81067  1.0000
  O   O29       1.0  0.70100  0.83400  0.47733  1.0000
  O   O30       1.0  0.13300  0.29900  0.14400  1.0000
  O   O31       1.0  0.25000  0.18700  0.72500  1.0000
  O   O32       1.0  0.81300  0.06300  0.05833  1.0000
  O   O33       1.0  0.93700  0.75000  0.39167  1.0000
  O   O34       1.0  0.06300  0.81300  0.94167  1.0000
  O   O35       1.0  0.75000  0.93700  0.60833  1.0000
  O   O36       1.0  0.18700  0.25000  0.27500  1.0000
  N   N1        1.0  0.31940  0.17990  0.76380  1.0000
  N   N2        1.0  0.82010  0.13950  0.09713  1.0000
  N   N3        1.0  0.86050  0.68060  0.43047  1.0000
  N   N4        1.0  0.13950  0.82010  0.90287  1.0000
  N   N5        1.0  0.68060  0.86050  0.56953  1.0000
  N   N6        1.0  0.17990  0.31940  0.23620  1.0000
