data_image0
_chemical_formula_structural       Cd3O36N6C24H6C6H6C12H6C6
_chemical_formula_sum              "Cd3 O36 N6 C48 H18"
_cell_length_a       14.8922
_cell_length_b       14.8922
_cell_length_c       12.7663
_cell_angle_alpha    90
_cell_angle_beta     90
_cell_angle_gamma    120

_space_group_name_H-M_alt    "P 1"
_space_group_IT_number       1

loop_
  _space_group_symop_operation_xyz
  'x, y, z'

loop_
  _atom_site_type_symbol
  _atom_site_label
  _atom_site_symmetry_multiplicity
  _atom_site_fract_x
  _atom_site_fract_y
  _atom_site_fract_z
  _atom_site_occupancy
  Cd  Cd1       1.0  0.49970  0.49970  0.00000  1.0000
  Cd  Cd2       1.0  0.50030  0.00000  0.66667  1.0000
  Cd  Cd3       1.0  0.00000  0.50030  0.33333  1.0000
  O   O1        1.0  0.42010  0.34300  0.11300  1.0000
  O   O2        1.0  0.65700  0.07710  0.77967  1.0000
  O   O3        1.0  0.92290  0.57990  0.44633  1.0000
  O   O4        1.0  0.07710  0.65700  0.22033  1.0000
  O   O5        1.0  0.57990  0.92290  0.55367  1.0000
  O   O6        1.0  0.34300  0.42010  0.88700  1.0000
  O   O7        1.0  0.59350  0.43850  0.11910  1.0000
  O   O8        1.0  0.56150  0.15500  0.78577  1.0000
  O   O9        1.0  0.84500  0.40650  0.45243  1.0000
  O   O10       1.0  0.15500  0.56150  0.21423  1.0000
  O   O11       1.0  0.40650  0.84500  0.54757  1.0000
  O   O12       1.0  0.43850  0.59350  0.88090  1.0000
  O   O13       1.0  0.59010  0.13620  0.53770  1.0000
  O   O14       1.0  0.86380  0.45390  0.20437  1.0000
  O   O15       1.0  0.54610  0.40990  0.87103  1.0000
  O   O16       1.0  0.45390  0.86380  0.79563  1.0000
  O   O17       1.0  0.40990  0.54610  0.12897  1.0000
  O   O18       1.0  0.13620  0.59010  0.46230  1.0000
  O   O19       1.0  0.42520  0.06890  0.55690  1.0000
  O   O20       1.0  0.93110  0.35630  0.22357  1.0000
  O   O21       1.0  0.64370  0.57480  0.89023  1.0000
  O   O22       1.0  0.35630  0.93110  0.77643  1.0000
  O   O23       1.0  0.57480  0.64370  0.10977  1.0000
  O   O24       1.0  0.06890  0.42520  0.44310  1.0000
  O   O25       1.0  0.29100  0.12400  0.15500  1.0000
  O   O26       1.0  0.87600  0.16700  0.82167  1.0000
  O   O27       1.0  0.83300  0.70900  0.48833  1.0000
  O   O28       1.0  0.16700  0.87600  0.17833  1.0000
  O   O29       1.0  0.70900  0.83300  0.51167  1.0000
  O   O30       1.0  0.12400  0.29100  0.84500  1.0000
  O   O31       1.0  0.23680  0.17500  0.29070  1.0000
  O   O32       1.0  0.82500  0.06180  0.95737  1.0000
  O   O33       1.0  0.93820  0.76320  0.62403  1.0000
  O   O34       1.0  0.06180  0.82500  0.04263  1.0000
  O   O35       1.0  0.76320  0.93820  0.37597  1.0000
  O   O36       1.0  0.17500  0.23680  0.70930  1.0000
  N   N1        1.0  0.30670  0.17140  0.23890  1.0000
  N   N2        1.0  0.82860  0.13530  0.90557  1.0000
  N   N3        1.0  0.86470  0.69330  0.57223  1.0000
  N   N4        1.0  0.13530  0.82860  0.09443  1.0000
  N   N5        1.0  0.69330  0.86470  0.42777  1.0000
  N   N6        1.0  0.17140  0.30670  0.76110  1.0000
  C   C1        1.0  0.49710  0.37020  0.15250  1.0000
  C   C2        1.0  0.62980  0.12690  0.81917  1.0000
  C   C3        1.0  0.87310  0.50290  0.48583  1.0000
  C   C4        1.0  0.12690  0.62980  0.18083  1.0000
  C   C5        1.0  0.50290  0.87310  0.51417  1.0000
  C   C6        1.0  0.37020  0.49710  0.84750  1.0000
  C   C7        1.0  0.40700  0.22190  0.28510  1.0000
  C   C8        1.0  0.77810  0.18510  0.95177  1.0000
  C   C9        1.0  0.81490  0.59300  0.61843  1.0000
  C   C10       1.0  0.18510  0.77810  0.04823  1.0000
  C   C11       1.0  0.59300  0.81490  0.38157  1.0000
  C   C12       1.0  0.22190  0.40700  0.71490  1.0000
  C   C13       1.0  0.49850  0.30430  0.24650  1.0000
  C   C14       1.0  0.69570  0.19420  0.91317  1.0000
  C   C15       1.0  0.80580  0.50150  0.57983  1.0000
  C   C16       1.0  0.19420  0.69570  0.08683  1.0000
  C   C17       1.0  0.50150  0.80580  0.42017  1.0000
  C   C18       1.0  0.30430  0.49850  0.75350  1.0000
  C   C19       1.0  0.59230  0.33190  0.29500  1.0000
  C   C20       1.0  0.66810  0.26040  0.96167  1.0000
  C   C21       1.0  0.73960  0.40770  0.62833  1.0000
  C   C22       1.0  0.26040  0.66810  0.03833  1.0000
  C   C23       1.0  0.40770  0.73960  0.37167  1.0000
  C   C24       1.0  0.33190  0.59230  0.70500  1.0000
  H   H1        1.0  0.65351  0.38710  0.26927  1.0000
  H   H2        1.0  0.61290  0.26641  0.93594  1.0000
  H   H3        1.0  0.73359  0.34649  0.60260  1.0000
  H   H4        1.0  0.26641  0.61290  0.06406  1.0000
  H   H5        1.0  0.34649  0.73359  0.39740  1.0000
  H   H6        1.0  0.38710  0.65351  0.73073  1.0000
  C   C25       1.0  0.59470  0.27710  0.38210  1.0000
  C   C26       1.0  0.72290  0.31760  0.04877  1.0000
  C   C27       1.0  0.68240  0.40530  0.71543  1.0000
  C   C28       1.0  0.31760  0.72290  0.95123  1.0000
  C   C29       1.0  0.40530  0.68240  0.28457  1.0000
  C   C30       1.0  0.27710  0.59470  0.61790  1.0000
  H   H7        1.0  0.65756  0.29558  0.41453  1.0000
  H   H8        1.0  0.70442  0.36198  0.08120  1.0000
  H   H9        1.0  0.63802  0.34244  0.74786  1.0000
  H   H10       1.0  0.36198  0.70442  0.91880  1.0000
  H   H11       1.0  0.34244  0.63802  0.25214  1.0000
  H   H12       1.0  0.29558  0.65756  0.58547  1.0000
  C   C31       1.0  0.50330  0.19470  0.42060  1.0000
  C   C32       1.0  0.80530  0.30860  0.08727  1.0000
  C   C33       1.0  0.69140  0.49670  0.75393  1.0000
  C   C34       1.0  0.30860  0.80530  0.91273  1.0000
  C   C35       1.0  0.49670  0.69140  0.24607  1.0000
  C   C36       1.0  0.19470  0.50330  0.57940  1.0000
  C   C37       1.0  0.40940  0.16700  0.37210  1.0000
  C   C38       1.0  0.83300  0.24240  0.03877  1.0000
  C   C39       1.0  0.75760  0.59060  0.70543  1.0000
  C   C40       1.0  0.24240  0.83300  0.96123  1.0000
  C   C41       1.0  0.59060  0.75760  0.29457  1.0000
  C   C42       1.0  0.16700  0.40940  0.62790  1.0000
  H   H13       1.0  0.34823  0.11187  0.39786  1.0000
  H   H14       1.0  0.88813  0.23636  0.06453  1.0000
  H   H15       1.0  0.76364  0.65177  0.73119  1.0000
  H   H16       1.0  0.23636  0.88813  0.93547  1.0000
  H   H17       1.0  0.65177  0.76364  0.26881  1.0000
  H   H18       1.0  0.11187  0.34823  0.60214  1.0000
  C   C43       1.0  0.51740  0.13860  0.51300  1.0000
  C   C44       1.0  0.86140  0.37880  0.17967  1.0000
  C   C45       1.0  0.62120  0.48260  0.84633  1.0000
  C   C46       1.0  0.37880  0.86140  0.82033  1.0000
  C   C47       1.0  0.48260  0.62120  0.15367  1.0000
  C   C48       1.0  0.13860  0.51740  0.48700  1.0000
