data_image0
_chemical_formula_structural       Br32C16H8C16H8C16H8C56H8C16H8C16H8C32H8C16H8C16H8C24H8C16H8C16H8O128Zn24
_chemical_formula_sum              "Br32 C256 H96 O128 Zn24"
_cell_length_a       20.892
_cell_length_b       24.47
_cell_length_c       25.238
_cell_angle_alpha    90
_cell_angle_beta     90
_cell_angle_gamma    90

_space_group_name_H-M_alt    "P 1"
_space_group_IT_number       1

loop_
  _space_group_symop_operation_xyz
  'x, y, z'

loop_
  _atom_site_type_symbol
  _atom_site_label
  _atom_site_symmetry_multiplicity
  _atom_site_fract_x
  _atom_site_fract_y
  _atom_site_fract_z
  _atom_site_occupancy
  Br  Br1       1.0  0.81163  0.58577  0.06750  1.0000
  Br  Br2       1.0  0.68837  0.41423  0.56750  1.0000
  Br  Br3       1.0  0.31163  0.91423  0.93250  1.0000
  Br  Br4       1.0  0.18837  0.08577  0.43250  1.0000
  Br  Br5       1.0  0.18837  0.41423  0.93250  1.0000
  Br  Br6       1.0  0.31163  0.58577  0.43250  1.0000
  Br  Br7       1.0  0.68837  0.08577  0.06750  1.0000
  Br  Br8       1.0  0.81163  0.91423  0.56750  1.0000
  Br  Br9       1.0  0.79954  0.99957  0.99019  1.0000
  Br  Br10      1.0  0.70046  0.00043  0.49019  1.0000
  Br  Br11      1.0  0.29954  0.50043  0.00981  1.0000
  Br  Br12      1.0  0.20046  0.49957  0.50981  1.0000
  Br  Br13      1.0  0.20046  0.00043  0.00981  1.0000
  Br  Br14      1.0  0.29954  0.99957  0.50981  1.0000
  Br  Br15      1.0  0.70046  0.49957  0.99019  1.0000
  Br  Br16      1.0  0.79954  0.50043  0.49019  1.0000
  Br  Br17      1.0  0.22811  0.24469  0.86447  1.0000
  Br  Br18      1.0  0.27189  0.75531  0.36447  1.0000
  Br  Br19      1.0  0.72811  0.25531  0.13553  1.0000
  Br  Br20      1.0  0.77189  0.74469  0.63553  1.0000
  Br  Br21      1.0  0.77189  0.75531  0.13553  1.0000
  Br  Br22      1.0  0.72811  0.24469  0.63553  1.0000
  Br  Br23      1.0  0.27189  0.74469  0.86447  1.0000
  Br  Br24      1.0  0.22811  0.25531  0.36447  1.0000
  Br  Br25      1.0  0.78009  0.41054  0.08519  1.0000
  Br  Br26      1.0  0.71991  0.58946  0.58519  1.0000
  Br  Br27      1.0  0.28009  0.08946  0.91481  1.0000
  Br  Br28      1.0  0.21991  0.91054  0.41481  1.0000
  Br  Br29      1.0  0.21991  0.58946  0.91481  1.0000
  Br  Br30      1.0  0.28009  0.41054  0.41481  1.0000
  Br  Br31      1.0  0.71991  0.91054  0.08519  1.0000
  Br  Br32      1.0  0.78009  0.08946  0.58519  1.0000
  C   C1        1.0  0.89990  0.65310  0.19800  1.0000
  C   C2        1.0  0.60010  0.34690  0.69800  1.0000
  C   C3        1.0  0.39990  0.84690  0.80200  1.0000
  C   C4        1.0  0.10010  0.15310  0.30200  1.0000
  C   C5        1.0  0.10010  0.34690  0.80200  1.0000
  C   C6        1.0  0.39990  0.65310  0.30200  1.0000
  C   C7        1.0  0.60010  0.15310  0.19800  1.0000
  C   C8        1.0  0.89990  0.84690  0.69800  1.0000
  C   C9        1.0  0.94190  0.69110  0.17410  1.0000
  C   C10       1.0  0.55810  0.30890  0.67410  1.0000
  C   C11       1.0  0.44190  0.80890  0.82590  1.0000
  C   C12       1.0  0.05810  0.19110  0.32590  1.0000
  C   C13       1.0  0.05810  0.30890  0.82590  1.0000
  C   C14       1.0  0.44190  0.69110  0.32590  1.0000
  C   C15       1.0  0.55810  0.19110  0.17410  1.0000
  C   C16       1.0  0.94190  0.80890  0.67410  1.0000
  H   H1        1.0  0.96860  0.71220  0.19540  1.0000
  H   H2        1.0  0.53140  0.28780  0.69540  1.0000
  H   H3        1.0  0.46860  0.78780  0.80460  1.0000
  H   H4        1.0  0.03140  0.21220  0.30460  1.0000
  H   H5        1.0  0.03140  0.28780  0.80460  1.0000
  H   H6        1.0  0.46860  0.71220  0.30460  1.0000
  H   H7        1.0  0.53140  0.21220  0.19540  1.0000
  H   H8        1.0  0.96860  0.78780  0.69540  1.0000
  C   C17       1.0  0.94410  0.69760  0.12030  1.0000
  C   C18       1.0  0.55590  0.30240  0.62030  1.0000
  C   C19       1.0  0.44410  0.80240  0.87970  1.0000
  C   C20       1.0  0.05590  0.19760  0.37970  1.0000
  C   C21       1.0  0.05590  0.30240  0.87970  1.0000
  C   C22       1.0  0.44410  0.69760  0.37970  1.0000
  C   C23       1.0  0.55590  0.19760  0.12030  1.0000
  C   C24       1.0  0.94410  0.80240  0.62030  1.0000
  C   C25       1.0  0.90560  0.66590  0.08990  1.0000
  C   C26       1.0  0.59440  0.33410  0.58990  1.0000
  C   C27       1.0  0.40560  0.83410  0.91010  1.0000
  C   C28       1.0  0.09440  0.16590  0.41010  1.0000
  C   C29       1.0  0.09440  0.33410  0.91010  1.0000
  C   C30       1.0  0.40560  0.66590  0.41010  1.0000
  C   C31       1.0  0.59440  0.16590  0.08990  1.0000
  C   C32       1.0  0.90560  0.83410  0.58990  1.0000
  H   H9        1.0  0.90780  0.66850  0.05310  1.0000
  H   H10       1.0  0.59220  0.33150  0.55310  1.0000
  H   H11       1.0  0.40780  0.83150  0.94690  1.0000
  H   H12       1.0  0.09220  0.16850  0.44690  1.0000
  H   H13       1.0  0.09220  0.33150  0.94690  1.0000
  H   H14       1.0  0.40780  0.66850  0.44690  1.0000
  H   H15       1.0  0.59220  0.16850  0.05310  1.0000
  H   H16       1.0  0.90780  0.83150  0.55310  1.0000
  C   C33       1.0  0.86420  0.63060  0.11230  1.0000
  C   C34       1.0  0.63580  0.36940  0.61230  1.0000
  C   C35       1.0  0.36420  0.86940  0.88770  1.0000
  C   C36       1.0  0.13580  0.13060  0.38770  1.0000
  C   C37       1.0  0.13580  0.36940  0.88770  1.0000
  C   C38       1.0  0.36420  0.63060  0.38770  1.0000
  C   C39       1.0  0.63580  0.13060  0.11230  1.0000
  C   C40       1.0  0.86420  0.86940  0.61230  1.0000
  C   C41       1.0  0.86170  0.62300  0.16510  1.0000
  C   C42       1.0  0.63830  0.37700  0.66510  1.0000
  C   C43       1.0  0.36170  0.87700  0.83490  1.0000
  C   C44       1.0  0.13830  0.12300  0.33490  1.0000
  C   C45       1.0  0.13830  0.37700  0.83490  1.0000
  C   C46       1.0  0.36170  0.62300  0.33490  1.0000
  C   C47       1.0  0.63830  0.12300  0.16510  1.0000
  C   C48       1.0  0.86170  0.87700  0.66510  1.0000
  H   H17       1.0  0.83390  0.59710  0.17920  1.0000
  H   H18       1.0  0.66610  0.40290  0.67920  1.0000
  H   H19       1.0  0.33390  0.90290  0.82080  1.0000
  H   H20       1.0  0.16610  0.09710  0.32080  1.0000
  H   H21       1.0  0.16610  0.40290  0.82080  1.0000
  H   H22       1.0  0.33390  0.59710  0.32080  1.0000
  H   H23       1.0  0.66610  0.09710  0.17920  1.0000
  H   H24       1.0  0.83390  0.90290  0.67920  1.0000
  C   C49       1.0  0.89660  0.64710  0.25780  1.0000
  C   C50       1.0  0.60340  0.35290  0.75780  1.0000
  C   C51       1.0  0.39660  0.85290  0.74220  1.0000
  C   C52       1.0  0.10340  0.14710  0.24220  1.0000
  C   C53       1.0  0.10340  0.35290  0.74220  1.0000
  C   C54       1.0  0.39660  0.64710  0.24220  1.0000
  C   C55       1.0  0.60340  0.14710  0.25780  1.0000
  C   C56       1.0  0.89660  0.85290  0.75780  1.0000
  C   C57       1.0  0.98500  0.73940  0.09590  1.0000
  C   C58       1.0  0.51500  0.26060  0.59590  1.0000
  C   C59       1.0  0.48500  0.76060  0.90410  1.0000
  C   C60       1.0  0.01500  0.23940  0.40410  1.0000
  C   C61       1.0  0.01500  0.26060  0.90410  1.0000
  C   C62       1.0  0.48500  0.73940  0.40410  1.0000
  C   C63       1.0  0.51500  0.23940  0.09590  1.0000
  C   C64       1.0  0.98500  0.76060  0.59590  1.0000
  C   C65       1.0  0.34600  0.29080  0.04560  1.0000
  C   C66       1.0  0.15400  0.70920  0.54560  1.0000
  C   C67       1.0  0.84600  0.20920  0.95440  1.0000
  C   C68       1.0  0.65400  0.79080  0.45440  1.0000
  C   C69       1.0  0.65400  0.70920  0.95440  1.0000
  C   C70       1.0  0.84600  0.29080  0.45440  1.0000
  C   C71       1.0  0.15400  0.79080  0.04560  1.0000
  C   C72       1.0  0.34600  0.20920  0.54560  1.0000
  C   C73       1.0  0.87710  0.35660  0.27240  1.0000
  C   C74       1.0  0.62290  0.64340  0.77240  1.0000
  C   C75       1.0  0.37710  0.14340  0.72760  1.0000
  C   C76       1.0  0.12290  0.85660  0.22760  1.0000
  C   C77       1.0  0.12290  0.64340  0.72760  1.0000
  C   C78       1.0  0.37710  0.35660  0.22760  1.0000
  C   C79       1.0  0.62290  0.85660  0.27240  1.0000
  C   C80       1.0  0.87710  0.14340  0.77240  1.0000
  C   C81       1.0  0.00290  0.90010  0.06850  1.0000
  C   C82       1.0  0.49710  0.09990  0.56850  1.0000
  C   C83       1.0  0.50290  0.59990  0.93150  1.0000
  C   C84       1.0  0.99710  0.40010  0.43150  1.0000
  C   C85       1.0  0.99710  0.09990  0.93150  1.0000
  C   C86       1.0  0.50290  0.90010  0.43150  1.0000
  C   C87       1.0  0.49710  0.40010  0.06850  1.0000
  C   C88       1.0  0.00290  0.59990  0.56850  1.0000
  C   C89       1.0  0.96780  0.95460  0.06090  1.0000
  C   C90       1.0  0.53220  0.04540  0.56090  1.0000
  C   C91       1.0  0.46780  0.54540  0.93910  1.0000
  C   C92       1.0  0.03220  0.45460  0.43910  1.0000
  C   C93       1.0  0.03220  0.04540  0.93910  1.0000
  C   C94       1.0  0.46780  0.95460  0.43910  1.0000
  C   C95       1.0  0.53220  0.45460  0.06090  1.0000
  C   C96       1.0  0.96780  0.54540  0.56090  1.0000
  C   C97       1.0  0.99340  0.00280  0.07620  1.0000
  C   C98       1.0  0.50660  0.99720  0.57620  1.0000
  C   C99       1.0  0.49340  0.49720  0.92380  1.0000
  C   C100      1.0  0.00660  0.50280  0.42380  1.0000
  C   C101      1.0  0.00660  0.99720  0.92380  1.0000
  C   C102      1.0  0.49340  0.00280  0.42380  1.0000
  C   C103      1.0  0.50660  0.50280  0.07620  1.0000
  C   C104      1.0  0.99340  0.49720  0.57620  1.0000
  H   H25       1.0  0.03310  0.00360  0.09280  1.0000
  H   H26       1.0  0.46690  0.99640  0.59280  1.0000
  H   H27       1.0  0.53310  0.49640  0.90720  1.0000
  H   H28       1.0  0.96690  0.50360  0.40720  1.0000
  H   H29       1.0  0.96690  0.99640  0.90720  1.0000
  H   H30       1.0  0.53310  0.00360  0.40720  1.0000
  H   H31       1.0  0.46690  0.50360  0.09280  1.0000
  H   H32       1.0  0.03310  0.49640  0.59280  1.0000
  C   C105      1.0  0.96150  0.04960  0.06710  1.0000
  C   C106      1.0  0.53850  0.95040  0.56710  1.0000
  C   C107      1.0  0.46150  0.45040  0.93290  1.0000
  C   C108      1.0  0.03850  0.54960  0.43290  1.0000
  C   C109      1.0  0.03850  0.95040  0.93290  1.0000
  C   C110      1.0  0.46150  0.04960  0.43290  1.0000
  C   C111      1.0  0.53850  0.54960  0.06710  1.0000
  C   C112      1.0  0.96150  0.45040  0.56710  1.0000
  C   C113      1.0  0.90600  0.04830  0.04110  1.0000
  C   C114      1.0  0.59400  0.95170  0.54110  1.0000
  C   C115      1.0  0.40600  0.45170  0.95890  1.0000
  C   C116      1.0  0.09400  0.54830  0.45890  1.0000
  C   C117      1.0  0.09400  0.95170  0.95890  1.0000
  C   C118      1.0  0.40600  0.04830  0.45890  1.0000
  C   C119      1.0  0.59400  0.54830  0.04110  1.0000
  C   C120      1.0  0.90600  0.45170  0.54110  1.0000
  H   H33       1.0  0.88480  0.08090  0.03400  1.0000
  H   H34       1.0  0.61520  0.91910  0.53400  1.0000
  H   H35       1.0  0.38480  0.41910  0.96600  1.0000
  H   H36       1.0  0.11520  0.58090  0.46600  1.0000
  H   H37       1.0  0.11520  0.91910  0.96600  1.0000
  H   H38       1.0  0.38480  0.08090  0.46600  1.0000
  H   H39       1.0  0.61520  0.58090  0.03400  1.0000
  H   H40       1.0  0.88480  0.41910  0.53400  1.0000
  C   C121      1.0  0.87980  0.00040  0.02460  1.0000
  C   C122      1.0  0.62020  0.99960  0.52460  1.0000
  C   C123      1.0  0.37980  0.49960  0.97540  1.0000
  C   C124      1.0  0.12020  0.50040  0.47540  1.0000
  C   C125      1.0  0.12020  0.99960  0.97540  1.0000
  C   C126      1.0  0.37980  0.00040  0.47540  1.0000
  C   C127      1.0  0.62020  0.50040  0.02460  1.0000
  C   C128      1.0  0.87980  0.49960  0.52460  1.0000
  C   C129      1.0  0.91110  0.95310  0.03340  1.0000
  C   C130      1.0  0.58890  0.04690  0.53340  1.0000
  C   C131      1.0  0.41110  0.54690  0.96660  1.0000
  C   C132      1.0  0.08890  0.45310  0.46660  1.0000
  C   C133      1.0  0.08890  0.04690  0.96660  1.0000
  C   C134      1.0  0.41110  0.95310  0.46660  1.0000
  C   C135      1.0  0.58890  0.45310  0.03340  1.0000
  C   C136      1.0  0.91110  0.54690  0.53340  1.0000
  H   H41       1.0  0.89470  0.92010  0.02110  1.0000
  H   H42       1.0  0.60530  0.07990  0.52110  1.0000
  H   H43       1.0  0.39470  0.57990  0.97890  1.0000
  H   H44       1.0  0.10530  0.42010  0.47890  1.0000
  H   H45       1.0  0.10530  0.07990  0.97890  1.0000
  H   H46       1.0  0.39470  0.92010  0.47890  1.0000
  H   H47       1.0  0.60530  0.42010  0.02110  1.0000
  H   H48       1.0  0.89470  0.57990  0.52110  1.0000
  C   C137      1.0  0.98770  0.10580  0.08440  1.0000
  C   C138      1.0  0.51230  0.89420  0.58440  1.0000
  C   C139      1.0  0.48770  0.39420  0.91560  1.0000
  C   C140      1.0  0.01230  0.60580  0.41560  1.0000
  C   C141      1.0  0.01230  0.89420  0.91560  1.0000
  C   C142      1.0  0.48770  0.10580  0.41560  1.0000
  C   C143      1.0  0.51230  0.60580  0.08440  1.0000
  C   C144      1.0  0.98770  0.39420  0.58440  1.0000
  C   C145      1.0  0.13300  0.20730  0.05590  1.0000
  C   C146      1.0  0.36700  0.79270  0.55590  1.0000
  C   C147      1.0  0.63300  0.29270  0.94410  1.0000
  C   C148      1.0  0.86700  0.70730  0.44410  1.0000
  C   C149      1.0  0.86700  0.79270  0.94410  1.0000
  C   C150      1.0  0.63300  0.20730  0.44410  1.0000
  C   C151      1.0  0.36700  0.70730  0.05590  1.0000
  C   C152      1.0  0.13300  0.29270  0.55590  1.0000
  C   C153      1.0  0.18660  0.22600  0.02310  1.0000
  C   C154      1.0  0.31340  0.77400  0.52310  1.0000
  C   C155      1.0  0.68660  0.27400  0.97690  1.0000
  C   C156      1.0  0.81340  0.72600  0.47690  1.0000
  C   C157      1.0  0.81340  0.77400  0.97690  1.0000
  C   C158      1.0  0.68660  0.22600  0.47690  1.0000
  C   C159      1.0  0.31340  0.72600  0.02310  1.0000
  C   C160      1.0  0.18660  0.27400  0.52310  1.0000
  C   C161      1.0  0.24250  0.24590  0.04750  1.0000
  C   C162      1.0  0.25750  0.75410  0.54750  1.0000
  C   C163      1.0  0.74250  0.25410  0.95250  1.0000
  C   C164      1.0  0.75750  0.74590  0.45250  1.0000
  C   C165      1.0  0.75750  0.75410  0.95250  1.0000
  C   C166      1.0  0.74250  0.24590  0.45250  1.0000
  C   C167      1.0  0.25750  0.74590  0.04750  1.0000
  C   C168      1.0  0.24250  0.25410  0.54750  1.0000
  H   H49       1.0  0.24560  0.24560  0.08430  1.0000
  H   H50       1.0  0.25440  0.75440  0.58430  1.0000
  H   H51       1.0  0.74560  0.25440  0.91570  1.0000
  H   H52       1.0  0.75440  0.74560  0.41570  1.0000
  H   H53       1.0  0.75440  0.75440  0.91570  1.0000
  H   H54       1.0  0.74560  0.24560  0.41570  1.0000
  H   H55       1.0  0.25440  0.74560  0.08430  1.0000
  H   H56       1.0  0.24560  0.25440  0.58430  1.0000
  C   C169      1.0  0.29180  0.26570  0.01820  1.0000
  C   C170      1.0  0.20820  0.73430  0.51820  1.0000
  C   C171      1.0  0.79180  0.23430  0.98180  1.0000
  C   C172      1.0  0.70820  0.76570  0.48180  1.0000
  C   C173      1.0  0.70820  0.73430  0.98180  1.0000
  C   C174      1.0  0.79180  0.26570  0.48180  1.0000
  C   C175      1.0  0.20820  0.76570  0.01820  1.0000
  C   C176      1.0  0.29180  0.23430  0.51820  1.0000
  C   C177      1.0  0.28490  0.26540  0.96420  1.0000
  C   C178      1.0  0.21510  0.73460  0.46420  1.0000
  C   C179      1.0  0.78490  0.23460  0.03580  1.0000
  C   C180      1.0  0.71510  0.76540  0.53580  1.0000
  C   C181      1.0  0.71510  0.73460  0.03580  1.0000
  C   C182      1.0  0.78490  0.26540  0.53580  1.0000
  C   C183      1.0  0.21510  0.76540  0.96420  1.0000
  C   C184      1.0  0.28490  0.23460  0.46420  1.0000
  H   H57       1.0  0.31720  0.28080  0.94380  1.0000
  H   H58       1.0  0.18280  0.71920  0.44380  1.0000
  H   H59       1.0  0.81720  0.21920  0.05620  1.0000
  H   H60       1.0  0.68280  0.78080  0.55620  1.0000
  H   H61       1.0  0.68280  0.71920  0.05620  1.0000
  H   H62       1.0  0.81720  0.28080  0.55620  1.0000
  H   H63       1.0  0.18280  0.78080  0.94380  1.0000
  H   H64       1.0  0.31720  0.21920  0.44380  1.0000
  C   C185      1.0  0.23270  0.24330  0.93850  1.0000
  C   C186      1.0  0.26730  0.75670  0.43850  1.0000
  C   C187      1.0  0.73270  0.25670  0.06150  1.0000
  C   C188      1.0  0.76730  0.74330  0.56150  1.0000
  C   C189      1.0  0.76730  0.75670  0.06150  1.0000
  C   C190      1.0  0.73270  0.24330  0.56150  1.0000
  C   C191      1.0  0.26730  0.74330  0.93850  1.0000
  C   C192      1.0  0.23270  0.25670  0.43850  1.0000
  C   C193      1.0  0.18410  0.22590  0.96860  1.0000
  C   C194      1.0  0.31590  0.77410  0.46860  1.0000
  C   C195      1.0  0.68410  0.27410  0.03140  1.0000
  C   C196      1.0  0.81590  0.72590  0.53140  1.0000
  C   C197      1.0  0.81590  0.77410  0.03140  1.0000
  C   C198      1.0  0.68410  0.22590  0.53140  1.0000
  C   C199      1.0  0.31590  0.72590  0.96860  1.0000
  C   C200      1.0  0.18410  0.27410  0.46860  1.0000
  H   H65       1.0  0.14720  0.21320  0.95210  1.0000
  H   H66       1.0  0.35280  0.78680  0.45210  1.0000
  H   H67       1.0  0.64720  0.28680  0.04790  1.0000
  H   H68       1.0  0.85280  0.71320  0.54790  1.0000
  H   H69       1.0  0.85280  0.78680  0.04790  1.0000
  H   H70       1.0  0.64720  0.21320  0.54790  1.0000
  H   H71       1.0  0.35280  0.71320  0.95210  1.0000
  H   H72       1.0  0.14720  0.28680  0.45210  1.0000
  C   C201      1.0  0.96470  0.26580  0.10970  1.0000
  C   C202      1.0  0.53530  0.73420  0.60970  1.0000
  C   C203      1.0  0.46470  0.23420  0.89030  1.0000
  C   C204      1.0  0.03530  0.76580  0.39030  1.0000
  C   C205      1.0  0.03530  0.73420  0.89030  1.0000
  C   C206      1.0  0.46470  0.26580  0.39030  1.0000
  C   C207      1.0  0.53530  0.76580  0.10970  1.0000
  C   C208      1.0  0.96470  0.23420  0.60970  1.0000
  C   C209      1.0  0.91860  0.30470  0.13520  1.0000
  C   C210      1.0  0.58140  0.69530  0.63520  1.0000
  C   C211      1.0  0.41860  0.19530  0.86480  1.0000
  C   C212      1.0  0.08140  0.80470  0.36480  1.0000
  C   C213      1.0  0.08140  0.69530  0.86480  1.0000
  C   C214      1.0  0.41860  0.30470  0.36480  1.0000
  C   C215      1.0  0.58140  0.80470  0.13520  1.0000
  C   C216      1.0  0.91860  0.19530  0.63520  1.0000
  C   C217      1.0  0.91840  0.31080  0.19110  1.0000
  C   C218      1.0  0.58160  0.68920  0.69110  1.0000
  C   C219      1.0  0.41840  0.18920  0.80890  1.0000
  C   C220      1.0  0.08160  0.81080  0.30890  1.0000
  C   C221      1.0  0.08160  0.68920  0.80890  1.0000
  C   C222      1.0  0.41840  0.31080  0.30890  1.0000
  C   C223      1.0  0.58160  0.81080  0.19110  1.0000
  C   C224      1.0  0.91840  0.18920  0.69110  1.0000
  H   H73       1.0  0.94560  0.28980  0.21200  1.0000
  H   H74       1.0  0.55440  0.71020  0.71200  1.0000
  H   H75       1.0  0.44560  0.21020  0.78800  1.0000
  H   H76       1.0  0.05440  0.78980  0.28800  1.0000
  H   H77       1.0  0.05440  0.71020  0.78800  1.0000
  H   H78       1.0  0.44560  0.28980  0.28800  1.0000
  H   H79       1.0  0.55440  0.78980  0.21200  1.0000
  H   H80       1.0  0.94560  0.21020  0.71200  1.0000
  C   C225      1.0  0.87740  0.34820  0.21450  1.0000
  C   C226      1.0  0.62260  0.65180  0.71450  1.0000
  C   C227      1.0  0.37740  0.15180  0.78550  1.0000
  C   C228      1.0  0.12260  0.84820  0.28550  1.0000
  C   C229      1.0  0.12260  0.65180  0.78550  1.0000
  C   C230      1.0  0.37740  0.34820  0.28550  1.0000
  C   C231      1.0  0.62260  0.84820  0.21450  1.0000
  C   C232      1.0  0.87740  0.15180  0.71450  1.0000
  C   C233      1.0  0.83600  0.37720  0.18230  1.0000
  C   C234      1.0  0.66400  0.62280  0.68230  1.0000
  C   C235      1.0  0.33600  0.12280  0.81770  1.0000
  C   C236      1.0  0.16400  0.87720  0.31770  1.0000
  C   C237      1.0  0.16400  0.62280  0.81770  1.0000
  C   C238      1.0  0.33600  0.37720  0.31770  1.0000
  C   C239      1.0  0.66400  0.87720  0.18230  1.0000
  C   C240      1.0  0.83600  0.12280  0.68230  1.0000
  H   H81       1.0  0.80680  0.40150  0.19730  1.0000
  H   H82       1.0  0.69320  0.59850  0.69730  1.0000
  H   H83       1.0  0.30680  0.09850  0.80270  1.0000
  H   H84       1.0  0.19320  0.90150  0.30270  1.0000
  H   H85       1.0  0.19320  0.59850  0.80270  1.0000
  H   H86       1.0  0.30680  0.40150  0.30270  1.0000
  H   H87       1.0  0.69320  0.90150  0.19730  1.0000
  H   H88       1.0  0.80680  0.09850  0.69730  1.0000
  C   C241      1.0  0.83770  0.37050  0.12890  1.0000
  C   C242      1.0  0.66230  0.62950  0.62890  1.0000
  C   C243      1.0  0.33770  0.12950  0.87110  1.0000
  C   C244      1.0  0.16230  0.87050  0.37110  1.0000
  C   C245      1.0  0.16230  0.62950  0.87110  1.0000
  C   C246      1.0  0.33770  0.37050  0.37110  1.0000
  C   C247      1.0  0.66230  0.87050  0.12890  1.0000
  C   C248      1.0  0.83770  0.12950  0.62890  1.0000
  C   C249      1.0  0.87780  0.33440  0.10420  1.0000
  C   C250      1.0  0.62220  0.66560  0.60420  1.0000
  C   C251      1.0  0.37780  0.16560  0.89580  1.0000
  C   C252      1.0  0.12220  0.83440  0.39580  1.0000
  C   C253      1.0  0.12220  0.66560  0.89580  1.0000
  C   C254      1.0  0.37780  0.33440  0.39580  1.0000
  C   C255      1.0  0.62220  0.83440  0.10420  1.0000
  C   C256      1.0  0.87780  0.16560  0.60420  1.0000
  H   H89       1.0  0.87730  0.33030  0.06760  1.0000
  H   H90       1.0  0.62270  0.66970  0.56760  1.0000
  H   H91       1.0  0.37730  0.16970  0.93240  1.0000
  H   H92       1.0  0.12270  0.83030  0.43240  1.0000
  H   H93       1.0  0.12270  0.66970  0.93240  1.0000
  H   H94       1.0  0.37730  0.33030  0.43240  1.0000
  H   H95       1.0  0.62270  0.83030  0.06760  1.0000
  H   H96       1.0  0.87730  0.16970  0.56760  1.0000
  O   O1        1.0  0.85990  0.61280  0.27610  1.0000
  O   O2        1.0  0.64010  0.38720  0.77610  1.0000
  O   O3        1.0  0.35990  0.88720  0.72390  1.0000
  O   O4        1.0  0.14010  0.11280  0.22390  1.0000
  O   O5        1.0  0.14010  0.38720  0.72390  1.0000
  O   O6        1.0  0.35990  0.61280  0.22390  1.0000
  O   O7        1.0  0.64010  0.11280  0.27610  1.0000
  O   O8        1.0  0.85990  0.88720  0.77610  1.0000
  O   O9        1.0  0.93230  0.67770  0.28350  1.0000
  O   O10       1.0  0.56770  0.32230  0.78350  1.0000
  O   O11       1.0  0.43230  0.82230  0.71650  1.0000
  O   O12       1.0  0.06770  0.17770  0.21650  1.0000
  O   O13       1.0  0.06770  0.32230  0.71650  1.0000
  O   O14       1.0  0.43230  0.67770  0.21650  1.0000
  O   O15       1.0  0.56770  0.17770  0.28350  1.0000
  O   O16       1.0  0.93230  0.82230  0.78350  1.0000
  O   O17       1.0  0.01230  0.77110  0.12740  1.0000
  O   O18       1.0  0.48770  0.22890  0.62740  1.0000
  O   O19       1.0  0.51230  0.72890  0.87260  1.0000
  O   O20       1.0  0.98770  0.27110  0.37260  1.0000
  O   O21       1.0  0.98770  0.22890  0.87260  1.0000
  O   O22       1.0  0.51230  0.77110  0.37260  1.0000
  O   O23       1.0  0.48770  0.27110  0.12740  1.0000
  O   O24       1.0  0.01230  0.72890  0.62740  1.0000
  O   O25       1.0  0.98810  0.74220  0.04660  1.0000
  O   O26       1.0  0.51190  0.25780  0.54660  1.0000
  O   O27       1.0  0.48810  0.75780  0.95340  1.0000
  O   O28       1.0  0.01190  0.24220  0.45340  1.0000
  O   O29       1.0  0.01190  0.25780  0.95340  1.0000
  O   O30       1.0  0.48810  0.74220  0.45340  1.0000
  O   O31       1.0  0.51190  0.24220  0.04660  1.0000
  O   O32       1.0  0.98810  0.75780  0.54660  1.0000
  O   O33       1.0  0.34590  0.29860  0.09260  1.0000
  O   O34       1.0  0.15410  0.70140  0.59260  1.0000
  O   O35       1.0  0.84590  0.20140  0.90740  1.0000
  O   O36       1.0  0.65410  0.79860  0.40740  1.0000
  O   O37       1.0  0.65410  0.70140  0.90740  1.0000
  O   O38       1.0  0.84590  0.29860  0.40740  1.0000
  O   O39       1.0  0.15410  0.79860  0.09260  1.0000
  O   O40       1.0  0.34590  0.20140  0.59260  1.0000
  O   O41       1.0  0.39420  0.30210  0.01510  1.0000
  O   O42       1.0  0.10580  0.69790  0.51510  1.0000
  O   O43       1.0  0.89420  0.19790  0.98490  1.0000
  O   O44       1.0  0.60580  0.80210  0.48490  1.0000
  O   O45       1.0  0.60580  0.69790  0.98490  1.0000
  O   O46       1.0  0.89420  0.30210  0.48490  1.0000
  O   O47       1.0  0.10580  0.80210  0.01510  1.0000
  O   O48       1.0  0.39420  0.19790  0.51510  1.0000
  O   O49       1.0  0.91660  0.32890  0.29860  1.0000
  O   O50       1.0  0.58340  0.67110  0.79860  1.0000
  O   O51       1.0  0.41660  0.17110  0.70140  1.0000
  O   O52       1.0  0.08340  0.82890  0.20140  1.0000
  O   O53       1.0  0.08340  0.67110  0.70140  1.0000
  O   O54       1.0  0.41660  0.32890  0.20140  1.0000
  O   O55       1.0  0.58340  0.82890  0.29860  1.0000
  O   O56       1.0  0.91660  0.17110  0.79860  1.0000
  O   O57       1.0  0.83500  0.38590  0.29350  1.0000
  O   O58       1.0  0.66500  0.61410  0.79350  1.0000
  O   O59       1.0  0.33500  0.11410  0.70650  1.0000
  O   O60       1.0  0.16500  0.88590  0.20650  1.0000
  O   O61       1.0  0.16500  0.61410  0.70650  1.0000
  O   O62       1.0  0.33500  0.38590  0.20650  1.0000
  O   O63       1.0  0.66500  0.88590  0.29350  1.0000
  O   O64       1.0  0.83500  0.11410  0.79350  1.0000
  O   O65       1.0  0.04630  0.89960  0.10300  1.0000
  O   O66       1.0  0.45370  0.10040  0.60300  1.0000
  O   O67       1.0  0.54630  0.60040  0.89700  1.0000
  O   O68       1.0  0.95370  0.39960  0.39700  1.0000
  O   O69       1.0  0.95370  0.10040  0.89700  1.0000
  O   O70       1.0  0.54630  0.89960  0.39700  1.0000
  O   O71       1.0  0.45370  0.39960  0.10300  1.0000
  O   O72       1.0  0.04630  0.60040  0.60300  1.0000
  O   O73       1.0  0.98620  0.85960  0.04100  1.0000
  O   O74       1.0  0.51380  0.14040  0.54100  1.0000
  O   O75       1.0  0.48620  0.64040  0.95900  1.0000
  O   O76       1.0  0.01380  0.35960  0.45900  1.0000
  O   O77       1.0  0.01380  0.14040  0.95900  1.0000
  O   O78       1.0  0.48620  0.85960  0.45900  1.0000
  O   O79       1.0  0.51380  0.35960  0.04100  1.0000
  O   O80       1.0  0.98620  0.64040  0.54100  1.0000
  O   O81       1.0  0.03250  0.10340  0.11720  1.0000
  O   O82       1.0  0.46750  0.89660  0.61720  1.0000
  O   O83       1.0  0.53250  0.39660  0.88280  1.0000
  O   O84       1.0  0.96750  0.60340  0.38280  1.0000
  O   O85       1.0  0.96750  0.89660  0.88280  1.0000
  O   O86       1.0  0.53250  0.10340  0.38280  1.0000
  O   O87       1.0  0.46750  0.60340  0.11720  1.0000
  O   O88       1.0  0.03250  0.39660  0.61720  1.0000
  O   O89       1.0  0.96300  0.14510  0.06480  1.0000
  O   O90       1.0  0.53700  0.85490  0.56480  1.0000
  O   O91       1.0  0.46300  0.35490  0.93520  1.0000
  O   O92       1.0  0.03700  0.64510  0.43520  1.0000
  O   O93       1.0  0.03700  0.85490  0.93520  1.0000
  O   O94       1.0  0.46300  0.14510  0.43520  1.0000
  O   O95       1.0  0.53700  0.64510  0.06480  1.0000
  O   O96       1.0  0.96300  0.35490  0.56480  1.0000
  O   O97       1.0  0.13960  0.19920  0.10570  1.0000
  O   O98       1.0  0.36040  0.80080  0.60570  1.0000
  O   O99       1.0  0.63960  0.30080  0.89430  1.0000
  O   O100      1.0  0.86040  0.69920  0.39430  1.0000
  O   O101      1.0  0.86040  0.80080  0.89430  1.0000
  O   O102      1.0  0.63960  0.19920  0.39430  1.0000
  O   O103      1.0  0.36040  0.69920  0.10570  1.0000
  O   O104      1.0  0.13960  0.30080  0.60570  1.0000
  O   O105      1.0  0.08020  0.19660  0.03160  1.0000
  O   O106      1.0  0.41980  0.80340  0.53160  1.0000
  O   O107      1.0  0.58020  0.30340  0.96840  1.0000
  O   O108      1.0  0.91980  0.69660  0.46840  1.0000
  O   O109      1.0  0.91980  0.80340  0.96840  1.0000
  O   O110      1.0  0.58020  0.19660  0.46840  1.0000
  O   O111      1.0  0.41980  0.69660  0.03160  1.0000
  O   O112      1.0  0.08020  0.30340  0.53160  1.0000
  O   O113      1.0  0.99870  0.23850  0.14230  1.0000
  O   O114      1.0  0.50130  0.76150  0.64230  1.0000
  O   O115      1.0  0.49870  0.26150  0.85770  1.0000
  O   O116      1.0  0.00130  0.73850  0.35770  1.0000
  O   O117      1.0  0.00130  0.76150  0.85770  1.0000
  O   O118      1.0  0.49870  0.23850  0.35770  1.0000
  O   O119      1.0  0.50130  0.73850  0.14230  1.0000
  O   O120      1.0  0.99870  0.26150  0.64230  1.0000
  O   O121      1.0  0.96490  0.26210  0.06210  1.0000
  O   O122      1.0  0.53510  0.73790  0.56210  1.0000
  O   O123      1.0  0.46490  0.23790  0.93790  1.0000
  O   O124      1.0  0.03510  0.76210  0.43790  1.0000
  O   O125      1.0  0.03510  0.73790  0.93790  1.0000
  O   O126      1.0  0.46490  0.26210  0.43790  1.0000
  O   O127      1.0  0.53510  0.76210  0.06210  1.0000
  O   O128      1.0  0.96490  0.23790  0.56210  1.0000
  Zn  Zn1       1.0  0.05968  0.17808  0.13982  1.0000
  Zn  Zn2       1.0  0.44032  0.82192  0.63982  1.0000
  Zn  Zn3       1.0  0.55968  0.32192  0.86018  1.0000
  Zn  Zn4       1.0  0.94032  0.67808  0.36018  1.0000
  Zn  Zn5       1.0  0.94032  0.82192  0.86018  1.0000
  Zn  Zn6       1.0  0.55968  0.17808  0.36018  1.0000
  Zn  Zn7       1.0  0.44032  0.67808  0.13982  1.0000
  Zn  Zn8       1.0  0.05968  0.32192  0.63982  1.0000
  Zn  Zn9       1.0  0.01187  0.79855  0.99140  1.0000
  Zn  Zn10      1.0  0.48813  0.20145  0.49140  1.0000
  Zn  Zn11      1.0  0.51187  0.70145  0.00860  1.0000
  Zn  Zn12      1.0  0.98813  0.29855  0.50860  1.0000
  Zn  Zn13      1.0  0.98813  0.20145  0.00860  1.0000
  Zn  Zn14      1.0  0.51187  0.79855  0.50860  1.0000
  Zn  Zn15      1.0  0.48813  0.29855  0.99140  1.0000
  Zn  Zn16      1.0  0.01187  0.70145  0.49140  1.0000
  Zn  Zn17      1.0  0.07744  0.82843  0.12470  1.0000
  Zn  Zn18      1.0  0.42256  0.17157  0.62470  1.0000
  Zn  Zn19      1.0  0.57744  0.67157  0.87530  1.0000
  Zn  Zn20      1.0  0.92256  0.32843  0.37530  1.0000
  Zn  Zn21      1.0  0.92256  0.17157  0.87530  1.0000
  Zn  Zn22      1.0  0.57744  0.82843  0.37530  1.0000
  Zn  Zn23      1.0  0.42256  0.32843  0.12470  1.0000
  Zn  Zn24      1.0  0.07744  0.67157  0.62470  1.0000
