data_image0
_chemical_formula_structural       U4S6O32C6H2C2H2C10H2C2H2C10H2C2H2C4
_chemical_formula_sum              "U4 S6 O32 C36 H12"
_cell_length_a       13.7311
_cell_length_b       15.5105
_cell_length_c       17.8862
_cell_angle_alpha    68.574
_cell_angle_beta     70.094
_cell_angle_gamma    76.948

_space_group_name_H-M_alt    "P 1"
_space_group_IT_number       1

loop_
  _space_group_symop_operation_xyz
  'x, y, z'

loop_
  _atom_site_type_symbol
  _atom_site_label
  _atom_site_symmetry_multiplicity
  _atom_site_fract_x
  _atom_site_fract_y
  _atom_site_fract_z
  _atom_site_occupancy
  U   U1        1.0  0.36431  0.24770  0.06941  1.0000
  U   U2        1.0  0.63569  0.75230  0.93059  1.0000
  U   U3        1.0  0.69678  0.59197  0.41716  1.0000
  U   U4        1.0  0.30322  0.40803  0.58284  1.0000
  S   S1        1.0  0.52006  0.41902  0.73944  1.0000
  S   S2        1.0  0.47994  0.58098  0.26056  1.0000
  S   S3        1.0  0.03710  0.42251  0.25028  1.0000
  S   S4        1.0  0.96290  0.57749  0.74972  1.0000
  S   S5        1.0  0.54201  0.92395  0.23686  1.0000
  S   S6        1.0  0.45799  0.07605  0.76314  1.0000
  O   O1        1.0  0.45270  0.30000  0.08720  1.0000
  O   O2        1.0  0.54730  0.70000  0.91280  1.0000
  O   O3        1.0  0.27840  0.19400  0.05010  1.0000
  O   O4        1.0  0.72160  0.80600  0.94990  1.0000
  O   O5        1.0  0.76720  0.65760  0.43900  1.0000
  O   O6        1.0  0.23280  0.34240  0.56100  1.0000
  O   O7        1.0  0.62710  0.52660  0.39530  1.0000
  O   O8        1.0  0.37290  0.47340  0.60470  1.0000
  O   O9        1.0  0.45400  0.29770  0.91840  1.0000
  O   O10       1.0  0.54600  0.70230  0.08160  1.0000
  O   O11       1.0  0.33080  0.39990  0.96480  1.0000
  O   O12       1.0  0.66920  0.60010  0.03520  1.0000
  O   O13       1.0  0.64060  0.49370  0.56230  1.0000
  O   O14       1.0  0.35940  0.50630  0.43770  1.0000
  O   O15       1.0  0.54880  0.63080  0.53250  1.0000
  O   O16       1.0  0.45120  0.36920  0.46750  1.0000
  O   O17       1.0  0.21110  0.34790  0.12720  1.0000
  O   O18       1.0  0.78890  0.65210  0.87280  1.0000
  O   O19       1.0  0.25720  0.21790  0.21660  1.0000
  O   O20       1.0  0.74280  0.78210  0.78340  1.0000
  O   O21       1.0  0.85800  0.53860  0.32330  1.0000
  O   O22       1.0  0.14200  0.46140  0.67670  1.0000
  O   O23       1.0  0.82680  0.45100  0.45510  1.0000
  O   O24       1.0  0.17320  0.54900  0.54490  1.0000
  O   O25       1.0  0.59390  0.73840  0.35670  1.0000
  O   O26       1.0  0.40610  0.26160  0.64330  1.0000
  O   O27       1.0  0.73260  0.69290  0.26710  1.0000
  O   O28       1.0  0.26740  0.30710  0.73290  1.0000
  O   O29       1.0  0.42190  0.09980  0.16480  1.0000
  O   O30       1.0  0.57810  0.90020  0.83520  1.0000
  O   O31       1.0  0.51010  0.12530  0.03290  1.0000
  O   O32       1.0  0.48990  0.87470  0.96710  1.0000
  C   C1        1.0  0.40370  0.37940  0.90540  1.0000
  C   C2        1.0  0.59630  0.62060  0.09460  1.0000
  C   C3        1.0  0.42910  0.44900  0.82200  1.0000
  C   C4        1.0  0.57090  0.55100  0.17800  1.0000
  C   C5        1.0  0.39350  0.54200  0.80000  1.0000
  C   C6        1.0  0.60650  0.45800  0.20000  1.0000
  H   H1        1.0  0.34480  0.57170  0.83810  1.0000
  H   H2        1.0  0.65520  0.42830  0.16190  1.0000
  C   C7        1.0  0.43710  0.58830  0.71530  1.0000
  C   C8        1.0  0.56290  0.41170  0.28470  1.0000
  H   H3        1.0  0.41970  0.65280  0.68910  1.0000
  H   H4        1.0  0.58030  0.34720  0.31090  1.0000
  C   C9        1.0  0.50740  0.53120  0.67400  1.0000
  C   C10       1.0  0.49260  0.46880  0.32600  1.0000
  C   C11       1.0  0.56750  0.55360  0.58480  1.0000
  C   C12       1.0  0.43250  0.44640  0.41520  1.0000
  C   C13       1.0  0.19920  0.29360  0.20190  1.0000
  C   C14       1.0  0.80080  0.70640  0.79810  1.0000
  C   C15       1.0  0.11670  0.31900  0.27070  1.0000
  C   C16       1.0  0.88330  0.68100  0.72930  1.0000
  C   C17       1.0  0.09210  0.27120  0.35470  1.0000
  C   C18       1.0  0.90790  0.72880  0.64530  1.0000
  H   H5        1.0  0.12820  0.21270  0.37780  1.0000
  H   H6        1.0  0.87180  0.78730  0.62220  1.0000
  C   C19       1.0  0.00940  0.31630  0.40310  1.0000
  C   C20       1.0  0.99060  0.68370  0.59690  1.0000
  H   H7        1.0  0.98340  0.29260  0.46240  1.0000
  H   H8        1.0  0.01660  0.70740  0.53760  1.0000
  C   C21       1.0  0.97010  0.39920  0.35450  1.0000
  C   C22       1.0  0.02990  0.60080  0.64550  1.0000
  C   C23       1.0  0.88050  0.46600  0.37990  1.0000
  C   C24       1.0  0.11950  0.53400  0.62010  1.0000
  C   C25       1.0  0.65380  0.74960  0.28200  1.0000
  C   C26       1.0  0.34620  0.25040  0.71800  1.0000
  C   C27       1.0  0.62890  0.83180  0.21430  1.0000
  C   C28       1.0  0.37110  0.16820  0.78570  1.0000
  C   C29       1.0  0.66660  0.84610  0.12860  1.0000
  C   C30       1.0  0.33340  0.15390  0.87140  1.0000
  H   H9        1.0  0.71530  0.80290  0.10400  1.0000
  H   H10       1.0  0.28470  0.19710  0.89600  1.0000
  C   C31       1.0  0.62390  0.93300  0.08230  1.0000
  C   C32       1.0  0.37610  0.06700  0.91770  1.0000
  H   H11       1.0  0.63980  0.95400  0.02300  1.0000
  H   H12       1.0  0.36020  0.04600  0.97700  1.0000
  C   C33       1.0  0.55750  0.98340  0.13160  1.0000
  C   C34       1.0  0.44250  0.01660  0.86840  1.0000
  C   C35       1.0  0.49340  0.07400  0.10780  1.0000
  C   C36       1.0  0.50660  0.92600  0.89220  1.0000
