data_image0
_chemical_formula_structural       U16S24O128C12H4C4H4C20H4C4H4C20H4C4H4C20H4C4H4C20H4C4H4C20H4C4H4C8
_chemical_formula_sum              "U16 S24 O128 C144 H48"
_cell_length_a       18.4849
_cell_length_b       26.8834
_cell_length_c       31.5917
_cell_angle_alpha    90
_cell_angle_beta     90
_cell_angle_gamma    90

_space_group_name_H-M_alt    "P 1"
_space_group_IT_number       1

loop_
  _space_group_symop_operation_xyz
  'x, y, z'

loop_
  _atom_site_type_symbol
  _atom_site_label
  _atom_site_symmetry_multiplicity
  _atom_site_fract_x
  _atom_site_fract_y
  _atom_site_fract_z
  _atom_site_occupancy
  U   U1        1.0  0.08577  0.67056  0.45736  1.0000
  U   U2        1.0  0.41423  0.32944  0.95736  1.0000
  U   U3        1.0  0.91423  0.17056  0.04264  1.0000
  U   U4        1.0  0.58577  0.82944  0.54264  1.0000
  U   U5        1.0  0.06864  0.32654  0.30027  1.0000
  U   U6        1.0  0.43136  0.67346  0.80027  1.0000
  U   U7        1.0  0.93136  0.82654  0.19973  1.0000
  U   U8        1.0  0.56864  0.17346  0.69973  1.0000
  U   U9        1.0  0.56933  0.17995  0.19655  1.0000
  U   U10       1.0  0.93067  0.82005  0.69655  1.0000
  U   U11       1.0  0.43067  0.67995  0.30345  1.0000
  U   U12       1.0  0.06933  0.32005  0.80345  1.0000
  U   U13       1.0  0.56028  0.83013  0.04717  1.0000
  U   U14       1.0  0.93972  0.16987  0.54717  1.0000
  U   U15       1.0  0.43972  0.33013  0.45283  1.0000
  U   U16       1.0  0.06028  0.66987  0.95283  1.0000
  S   S1        1.0  0.06954  0.49303  0.38473  1.0000
  S   S2        1.0  0.43046  0.50697  0.88473  1.0000
  S   S3        1.0  0.93046  0.99303  0.11527  1.0000
  S   S4        1.0  0.56954  0.00697  0.61527  1.0000
  S   S5        1.0  0.34129  0.75105  0.48920  1.0000
  S   S6        1.0  0.15871  0.24895  0.98920  1.0000
  S   S7        1.0  0.65871  0.25105  0.01080  1.0000
  S   S8        1.0  0.84129  0.74895  0.51080  1.0000
  S   S9        1.0  0.32414  0.25566  0.25316  1.0000
  S   S10       1.0  0.17586  0.74434  0.75316  1.0000
  S   S11       1.0  0.67586  0.75566  0.24684  1.0000
  S   S12       1.0  0.82414  0.24434  0.74684  1.0000
  S   S13       1.0  0.82406  0.25507  0.23915  1.0000
  S   S14       1.0  0.67594  0.74493  0.73915  1.0000
  S   S15       1.0  0.17594  0.75507  0.26085  1.0000
  S   S16       1.0  0.32406  0.24493  0.76085  1.0000
  S   S17       1.0  0.55706  0.00755  0.11601  1.0000
  S   S18       1.0  0.94294  0.99245  0.61601  1.0000
  S   S19       1.0  0.44294  0.50755  0.38399  1.0000
  S   S20       1.0  0.05706  0.49245  0.88399  1.0000
  S   S21       1.0  0.31638  0.74320  0.99834  1.0000
  S   S22       1.0  0.18362  0.25680  0.49834  1.0000
  S   S23       1.0  0.68362  0.24320  0.50166  1.0000
  S   S24       1.0  0.81638  0.75680  0.00166  1.0000
  O   O1        1.0  0.07030  0.70820  0.41330  1.0000
  O   O2        1.0  0.42970  0.29180  0.91330  1.0000
  O   O3        1.0  0.92970  0.20820  0.08670  1.0000
  O   O4        1.0  0.57030  0.79180  0.58670  1.0000
  O   O5        1.0  0.10100  0.63290  0.50190  1.0000
  O   O6        1.0  0.39900  0.36710  0.00190  1.0000
  O   O7        1.0  0.89900  0.13290  0.99810  1.0000
  O   O8        1.0  0.60100  0.86710  0.49810  1.0000
  O   O9        1.0  0.07820  0.37230  0.25970  1.0000
  O   O10       1.0  0.42180  0.62770  0.75970  1.0000
  O   O11       1.0  0.92180  0.87230  0.24030  1.0000
  O   O12       1.0  0.57820  0.12770  0.74030  1.0000
  O   O13       1.0  0.05870  0.28100  0.34030  1.0000
  O   O14       1.0  0.44130  0.71900  0.84030  1.0000
  O   O15       1.0  0.94130  0.78100  0.15970  1.0000
  O   O16       1.0  0.55870  0.21900  0.65970  1.0000
  O   O17       1.0  0.55960  0.22310  0.15430  1.0000
  O   O18       1.0  0.94040  0.77690  0.65430  1.0000
  O   O19       1.0  0.44040  0.72310  0.34570  1.0000
  O   O20       1.0  0.05960  0.27690  0.84570  1.0000
  O   O21       1.0  0.57940  0.13700  0.23860  1.0000
  O   O22       1.0  0.92060  0.86300  0.73860  1.0000
  O   O23       1.0  0.42060  0.63700  0.26140  1.0000
  O   O24       1.0  0.07940  0.36300  0.76140  1.0000
  O   O25       1.0  0.56650  0.86900  0.00210  1.0000
  O   O26       1.0  0.93350  0.13100  0.50210  1.0000
  O   O27       1.0  0.43350  0.36900  0.49790  1.0000
  O   O28       1.0  0.06650  0.63100  0.99790  1.0000
  O   O29       1.0  0.55470  0.79120  0.09200  1.0000
  O   O30       1.0  0.94530  0.20880  0.59200  1.0000
  O   O31       1.0  0.44530  0.29120  0.40800  1.0000
  O   O32       1.0  0.05470  0.70880  0.90800  1.0000
  O   O33       1.0  0.09950  0.59660  0.41290  1.0000
  O   O34       1.0  0.40050  0.40340  0.91290  1.0000
  O   O35       1.0  0.90050  0.09660  0.08710  1.0000
  O   O36       1.0  0.59950  0.90340  0.58710  1.0000
  O   O37       1.0  0.98930  0.61390  0.43410  1.0000
  O   O38       1.0  0.51070  0.38610  0.93410  1.0000
  O   O39       1.0  0.01070  0.11390  0.06590  1.0000
  O   O40       1.0  0.48930  0.88610  0.56590  1.0000
  O   O41       1.0  0.97320  0.37930  0.33260  1.0000
  O   O42       1.0  0.52680  0.62070  0.83260  1.0000
  O   O43       1.0  0.02680  0.87930  0.16740  1.0000
  O   O44       1.0  0.47320  0.12070  0.66740  1.0000
  O   O45       1.0  0.08780  0.39210  0.35370  1.0000
  O   O46       1.0  0.41220  0.60790  0.85370  1.0000
  O   O47       1.0  0.91220  0.89210  0.14630  1.0000
  O   O48       1.0  0.58780  0.10790  0.64630  1.0000
  O   O49       1.0  0.19150  0.72010  0.47600  1.0000
  O   O50       1.0  0.30850  0.27990  0.97600  1.0000
  O   O51       1.0  0.80850  0.22010  0.02400  1.0000
  O   O52       1.0  0.69150  0.77990  0.52400  1.0000
  O   O53       1.0  0.21160  0.65740  0.43360  1.0000
  O   O54       1.0  0.28840  0.34260  0.93360  1.0000
  O   O55       1.0  0.78840  0.15740  0.06640  1.0000
  O   O56       1.0  0.71160  0.84260  0.56640  1.0000
  O   O57       1.0  0.46540  0.80700  0.51710  1.0000
  O   O58       1.0  0.03460  0.19300  0.01710  1.0000
  O   O59       1.0  0.53460  0.30700  0.98290  1.0000
  O   O60       1.0  0.96540  0.69300  0.48290  1.0000
  O   O61       1.0  0.55270  0.75760  0.49560  1.0000
  O   O62       1.0  0.94730  0.24240  0.99560  1.0000
  O   O63       1.0  0.44730  0.25760  0.00440  1.0000
  O   O64       1.0  0.05270  0.74240  0.50440  1.0000
  O   O65       1.0  0.19570  0.33790  0.32160  1.0000
  O   O66       1.0  0.30430  0.66210  0.82160  1.0000
  O   O67       1.0  0.80430  0.83790  0.17840  1.0000
  O   O68       1.0  0.69570  0.16210  0.67840  1.0000
  O   O69       1.0  0.17540  0.28350  0.27170  1.0000
  O   O70       1.0  0.32460  0.71650  0.77170  1.0000
  O   O71       1.0  0.82460  0.78350  0.22830  1.0000
  O   O72       1.0  0.67540  0.21650  0.72830  1.0000
  O   O73       1.0  0.44810  0.20190  0.21960  1.0000
  O   O74       1.0  0.05190  0.79810  0.71960  1.0000
  O   O75       1.0  0.55190  0.70190  0.28040  1.0000
  O   O76       1.0  0.94810  0.29810  0.78040  1.0000
  O   O77       1.0  0.53550  0.24430  0.25050  1.0000
  O   O78       1.0  0.96450  0.75570  0.75050  1.0000
  O   O79       1.0  0.46450  0.74430  0.24950  1.0000
  O   O80       1.0  0.03550  0.25570  0.74950  1.0000
  O   O81       1.0  0.03340  0.26500  0.24460  1.0000
  O   O82       1.0  0.46660  0.73500  0.74460  1.0000
  O   O83       1.0  0.96660  0.76500  0.25540  1.0000
  O   O84       1.0  0.53340  0.23500  0.75540  1.0000
  O   O85       1.0  0.94700  0.30600  0.27520  1.0000
  O   O86       1.0  0.55300  0.69400  0.77520  1.0000
  O   O87       1.0  0.05300  0.80600  0.22480  1.0000
  O   O88       1.0  0.44700  0.19400  0.72480  1.0000
  O   O89       1.0  0.67550  0.22610  0.22020  1.0000
  O   O90       1.0  0.82450  0.77390  0.72020  1.0000
  O   O91       1.0  0.32450  0.72610  0.27980  1.0000
  O   O92       1.0  0.17550  0.27390  0.77980  1.0000
  O   O93       1.0  0.69670  0.16700  0.17460  1.0000
  O   O94       1.0  0.80330  0.83300  0.67460  1.0000
  O   O95       1.0  0.30330  0.66700  0.32540  1.0000
  O   O96       1.0  0.19670  0.33300  0.82540  1.0000
  O   O97       1.0  0.58430  0.10850  0.14810  1.0000
  O   O98       1.0  0.91570  0.89150  0.64810  1.0000
  O   O99       1.0  0.41570  0.60850  0.35190  1.0000
  O   O100      1.0  0.08430  0.39150  0.85190  1.0000
  O   O101      1.0  0.47310  0.12800  0.16470  1.0000
  O   O102      1.0  0.02690  0.87200  0.66470  1.0000
  O   O103      1.0  0.52690  0.62800  0.33530  1.0000
  O   O104      1.0  0.97310  0.37200  0.83530  1.0000
  O   O105      1.0  0.57840  0.90450  0.09000  1.0000
  O   O106      1.0  0.92160  0.09550  0.59000  1.0000
  O   O107      1.0  0.42160  0.40450  0.41000  1.0000
  O   O108      1.0  0.07840  0.59550  0.91000  1.0000
  O   O109      1.0  0.46490  0.88630  0.07560  1.0000
  O   O110      1.0  0.03510  0.11370  0.57560  1.0000
  O   O111      1.0  0.53510  0.38630  0.42440  1.0000
  O   O112      1.0  0.96490  0.61370  0.92440  1.0000
  O   O113      1.0  0.43800  0.80230  0.02760  1.0000
  O   O114      1.0  0.06200  0.19770  0.52760  1.0000
  O   O115      1.0  0.56200  0.30230  0.47240  1.0000
  O   O116      1.0  0.93800  0.69770  0.97240  1.0000
  O   O117      1.0  0.52650  0.76040  0.99900  1.0000
  O   O118      1.0  0.97350  0.23960  0.49900  1.0000
  O   O119      1.0  0.47350  0.26040  0.50100  1.0000
  O   O120      1.0  0.02650  0.73960  0.00100  1.0000
  O   O121      1.0  0.16600  0.71620  0.97890  1.0000
  O   O122      1.0  0.33400  0.28380  0.47890  1.0000
  O   O123      1.0  0.83400  0.21620  0.52110  1.0000
  O   O124      1.0  0.66600  0.78380  0.02110  1.0000
  O   O125      1.0  0.18860  0.65610  0.93280  1.0000
  O   O126      1.0  0.31140  0.34390  0.43280  1.0000
  O   O127      1.0  0.81140  0.15610  0.56720  1.0000
  O   O128      1.0  0.68860  0.84390  0.06720  1.0000
  C   C1        1.0  0.03380  0.58450  0.41560  1.0000
  C   C2        1.0  0.46620  0.41550  0.91560  1.0000
  C   C3        1.0  0.96620  0.08450  0.08440  1.0000
  C   C4        1.0  0.53380  0.91550  0.58440  1.0000
  C   C5        1.0  0.00810  0.53740  0.39870  1.0000
  C   C6        1.0  0.49190  0.46260  0.89870  1.0000
  C   C7        1.0  0.99190  0.03740  0.10130  1.0000
  C   C8        1.0  0.50810  0.96260  0.60130  1.0000
  C   C9        1.0  0.93690  0.52270  0.39150  1.0000
  C   C10       1.0  0.56310  0.47730  0.89150  1.0000
  C   C11       1.0  0.06310  0.02270  0.10850  1.0000
  C   C12       1.0  0.43690  0.97730  0.60850  1.0000
  H   H1        1.0  0.89590  0.54300  0.39700  1.0000
  H   H2        1.0  0.60410  0.45700  0.89700  1.0000
  H   H3        1.0  0.10410  0.04300  0.10300  1.0000
  H   H4        1.0  0.39590  0.95700  0.60300  1.0000
  C   C13       1.0  0.93320  0.47450  0.37520  1.0000
  C   C14       1.0  0.56680  0.52550  0.87520  1.0000
  C   C15       1.0  0.06680  0.97450  0.12480  1.0000
  C   C16       1.0  0.43320  0.02550  0.62480  1.0000
  H   H5        1.0  0.88920  0.45800  0.36850  1.0000
  H   H6        1.0  0.61080  0.54200  0.86850  1.0000
  H   H7        1.0  0.11080  0.95800  0.13150  1.0000
  H   H8        1.0  0.38920  0.04200  0.63150  1.0000
  C   C17       1.0  0.00120  0.45350  0.37010  1.0000
  C   C18       1.0  0.49880  0.54650  0.87010  1.0000
  C   C19       1.0  0.99880  0.95350  0.12990  1.0000
  C   C20       1.0  0.50120  0.04650  0.62990  1.0000
  C   C21       1.0  0.02160  0.40500  0.35190  1.0000
  C   C22       1.0  0.47840  0.59500  0.85190  1.0000
  C   C23       1.0  0.97840  0.90500  0.14810  1.0000
  C   C24       1.0  0.52160  0.09500  0.64810  1.0000
  C   C25       1.0  0.23350  0.69360  0.45590  1.0000
  C   C26       1.0  0.26650  0.30640  0.95590  1.0000
  C   C27       1.0  0.76650  0.19360  0.04410  1.0000
  C   C28       1.0  0.73350  0.80640  0.54410  1.0000
  C   C29       1.0  0.31230  0.70420  0.45750  1.0000
  C   C30       1.0  0.18770  0.29580  0.95750  1.0000
  C   C31       1.0  0.68770  0.20420  0.04250  1.0000
  C   C32       1.0  0.81230  0.79580  0.54250  1.0000
  C   C33       1.0  0.36860  0.67970  0.43840  1.0000
  C   C34       1.0  0.13140  0.32030  0.93840  1.0000
  C   C35       1.0  0.63140  0.17970  0.06160  1.0000
  C   C36       1.0  0.86860  0.82030  0.56160  1.0000
  H   H9        1.0  0.36240  0.65320  0.41890  1.0000
  H   H10       1.0  0.13760  0.34680  0.91890  1.0000
  H   H11       1.0  0.63760  0.15320  0.08110  1.0000
  H   H12       1.0  0.86240  0.84680  0.58110  1.0000
  C   C37       1.0  0.43670  0.69830  0.45080  1.0000
  C   C38       1.0  0.06330  0.30170  0.95080  1.0000
  C   C39       1.0  0.56330  0.19830  0.04920  1.0000
  C   C40       1.0  0.93670  0.80170  0.54920  1.0000
  H   H13       1.0  0.48160  0.68530  0.44120  1.0000
  H   H14       1.0  0.01840  0.31470  0.94120  1.0000
  H   H15       1.0  0.51840  0.18530  0.05880  1.0000
  H   H16       1.0  0.98160  0.81470  0.55880  1.0000
  C   C41       1.0  0.43020  0.73770  0.47850  1.0000
  C   C42       1.0  0.06980  0.26230  0.97850  1.0000
  C   C43       1.0  0.56980  0.23770  0.02150  1.0000
  C   C44       1.0  0.93020  0.76230  0.52150  1.0000
  C   C45       1.0  0.48560  0.76810  0.49750  1.0000
  C   C46       1.0  0.01440  0.23190  0.99750  1.0000
  C   C47       1.0  0.51440  0.26810  0.00250  1.0000
  C   C48       1.0  0.98560  0.73190  0.50250  1.0000
  C   C49       1.0  0.21790  0.30640  0.29540  1.0000
  C   C50       1.0  0.28210  0.69360  0.79540  1.0000
  C   C51       1.0  0.78210  0.80640  0.20460  1.0000
  C   C52       1.0  0.71790  0.19360  0.70460  1.0000
  C   C53       1.0  0.29580  0.29530  0.29200  1.0000
  C   C54       1.0  0.20420  0.70470  0.79200  1.0000
  C   C55       1.0  0.70420  0.79530  0.20800  1.0000
  C   C56       1.0  0.79580  0.20470  0.70800  1.0000
  C   C57       1.0  0.35220  0.31540  0.31580  1.0000
  C   C58       1.0  0.14780  0.68460  0.81580  1.0000
  C   C59       1.0  0.64780  0.81540  0.18420  1.0000
  C   C60       1.0  0.85220  0.18460  0.68420  1.0000
  H   H17       1.0  0.34660  0.33960  0.33750  1.0000
  H   H18       1.0  0.15340  0.66040  0.83750  1.0000
  H   H19       1.0  0.65340  0.83960  0.16250  1.0000
  H   H20       1.0  0.84660  0.16040  0.66250  1.0000
  C   C61       1.0  0.41860  0.29470  0.30290  1.0000
  C   C62       1.0  0.08140  0.70530  0.80290  1.0000
  C   C63       1.0  0.58140  0.79470  0.19710  1.0000
  C   C64       1.0  0.91860  0.20530  0.69710  1.0000
  H   H21       1.0  0.46340  0.30180  0.31630  1.0000
  H   H22       1.0  0.03660  0.69820  0.81630  1.0000
  H   H23       1.0  0.53660  0.80180  0.18370  1.0000
  H   H24       1.0  0.96340  0.19820  0.68370  1.0000
  C   C65       1.0  0.41200  0.26370  0.26950  1.0000
  C   C66       1.0  0.08800  0.73630  0.76950  1.0000
  C   C67       1.0  0.58800  0.76370  0.23050  1.0000
  C   C68       1.0  0.91200  0.23630  0.73050  1.0000
  C   C69       1.0  0.47000  0.23530  0.24500  1.0000
  C   C70       1.0  0.03000  0.76470  0.74500  1.0000
  C   C71       1.0  0.53000  0.73530  0.25500  1.0000
  C   C72       1.0  0.97000  0.26470  0.75500  1.0000
  C   C73       1.0  0.96790  0.27380  0.25050  1.0000
  C   C74       1.0  0.53210  0.72620  0.75050  1.0000
  C   C75       1.0  0.03210  0.77380  0.24950  1.0000
  C   C76       1.0  0.46790  0.22620  0.74950  1.0000
  C   C77       1.0  0.91250  0.24650  0.22530  1.0000
  C   C78       1.0  0.58750  0.75350  0.72530  1.0000
  C   C79       1.0  0.08750  0.74650  0.27470  1.0000
  C   C80       1.0  0.41250  0.25350  0.77470  1.0000
  C   C81       1.0  0.91980  0.21440  0.19200  1.0000
  C   C82       1.0  0.58020  0.78560  0.69200  1.0000
  C   C83       1.0  0.08020  0.71440  0.30800  1.0000
  C   C84       1.0  0.41980  0.28560  0.80800  1.0000
  H   H25       1.0  0.96490  0.20670  0.17920  1.0000
  H   H26       1.0  0.53510  0.79330  0.67920  1.0000
  H   H27       1.0  0.03510  0.70670  0.32080  1.0000
  H   H28       1.0  0.46490  0.29330  0.82080  1.0000
  C   C85       1.0  0.85320  0.19400  0.17870  1.0000
  C   C86       1.0  0.64680  0.80600  0.67870  1.0000
  C   C87       1.0  0.14680  0.69400  0.32130  1.0000
  C   C88       1.0  0.35320  0.30600  0.82130  1.0000
  H   H29       1.0  0.84810  0.17020  0.15670  1.0000
  H   H30       1.0  0.65190  0.82980  0.65670  1.0000
  H   H31       1.0  0.15190  0.67020  0.34330  1.0000
  H   H32       1.0  0.34810  0.32980  0.84330  1.0000
  C   C89       1.0  0.79800  0.21300  0.20130  1.0000
  C   C90       1.0  0.70200  0.78700  0.70130  1.0000
  C   C91       1.0  0.20200  0.71300  0.29870  1.0000
  C   C92       1.0  0.29800  0.28700  0.79870  1.0000
  C   C93       1.0  0.71850  0.20110  0.19880  1.0000
  C   C94       1.0  0.78150  0.79890  0.69880  1.0000
  C   C95       1.0  0.28150  0.70110  0.30120  1.0000
  C   C96       1.0  0.21850  0.29890  0.80120  1.0000
  C   C97       1.0  0.51810  0.09890  0.14820  1.0000
  C   C98       1.0  0.98190  0.90110  0.64820  1.0000
  C   C99       1.0  0.48190  0.59890  0.35180  1.0000
  C   C100      1.0  0.01810  0.40110  0.85180  1.0000
  C   C101      1.0  0.49430  0.05120  0.13140  1.0000
  C   C102      1.0  0.00570  0.94880  0.63140  1.0000
  C   C103      1.0  0.50570  0.55120  0.36860  1.0000
  C   C104      1.0  0.99430  0.44880  0.86860  1.0000
  C   C105      1.0  0.42460  0.03300  0.12810  1.0000
  C   C106      1.0  0.07540  0.96700  0.62810  1.0000
  C   C107      1.0  0.57540  0.53300  0.37190  1.0000
  C   C108      1.0  0.92460  0.46700  0.87190  1.0000
  H   H33       1.0  0.38280  0.05180  0.13530  1.0000
  H   H34       1.0  0.11720  0.94820  0.63530  1.0000
  H   H35       1.0  0.61720  0.55180  0.36470  1.0000
  H   H36       1.0  0.88280  0.44820  0.86470  1.0000
  C   C109      1.0  0.42160  0.98330  0.11280  1.0000
  C   C110      1.0  0.07840  0.01670  0.61280  1.0000
  C   C111      1.0  0.57840  0.48330  0.38720  1.0000
  C   C112      1.0  0.92160  0.51670  0.88720  1.0000
  H   H37       1.0  0.37830  0.96520  0.10770  1.0000
  H   H38       1.0  0.12170  0.03480  0.60770  1.0000
  H   H39       1.0  0.62170  0.46520  0.39230  1.0000
  H   H40       1.0  0.87830  0.53480  0.89230  1.0000
  C   C113      1.0  0.49070  0.96500  0.10640  1.0000
  C   C114      1.0  0.00930  0.03500  0.60640  1.0000
  C   C115      1.0  0.50930  0.46500  0.39360  1.0000
  C   C116      1.0  0.99070  0.53500  0.89360  1.0000
  C   C117      1.0  0.51190  0.91760  0.09030  1.0000
  C   C118      1.0  0.98810  0.08240  0.59030  1.0000
  C   C119      1.0  0.48810  0.41760  0.40970  1.0000
  C   C120      1.0  0.01190  0.58240  0.90970  1.0000
  C   C121      1.0  0.46020  0.76790  0.00370  1.0000
  C   C122      1.0  0.03980  0.23210  0.50370  1.0000
  C   C123      1.0  0.53980  0.26790  0.49630  1.0000
  C   C124      1.0  0.96020  0.73210  0.99630  1.0000
  C   C125      1.0  0.40400  0.73900  0.98200  1.0000
  C   C126      1.0  0.09600  0.26100  0.48200  1.0000
  C   C127      1.0  0.59600  0.23900  0.51800  1.0000
  C   C128      1.0  0.90400  0.76100  0.01800  1.0000
  C   C129      1.0  0.41130  0.70750  0.94700  1.0000
  C   C130      1.0  0.08870  0.29250  0.44700  1.0000
  C   C131      1.0  0.58870  0.20750  0.55300  1.0000
  C   C132      1.0  0.91130  0.79250  0.05300  1.0000
  H   H41       1.0  0.45630  0.70060  0.93370  1.0000
  H   H42       1.0  0.04370  0.29940  0.43370  1.0000
  H   H43       1.0  0.54370  0.20060  0.56630  1.0000
  H   H44       1.0  0.95630  0.79940  0.06630  1.0000
  C   C133      1.0  0.34390  0.68680  0.93360  1.0000
  C   C134      1.0  0.15610  0.31320  0.43360  1.0000
  C   C135      1.0  0.65610  0.18680  0.56640  1.0000
  C   C136      1.0  0.84390  0.81320  0.06640  1.0000
  H   H45       1.0  0.33840  0.66470  0.91030  1.0000
  H   H46       1.0  0.16160  0.33530  0.41030  1.0000
  H   H47       1.0  0.66160  0.16470  0.58970  1.0000
  H   H48       1.0  0.83840  0.83530  0.08970  1.0000
  C   C137      1.0  0.28860  0.70290  0.95860  1.0000
  C   C138      1.0  0.21140  0.29710  0.45860  1.0000
  C   C139      1.0  0.71140  0.20290  0.54140  1.0000
  C   C140      1.0  0.78860  0.79710  0.04140  1.0000
  C   C141      1.0  0.20970  0.69090  0.95720  1.0000
  C   C142      1.0  0.29030  0.30910  0.45720  1.0000
  C   C143      1.0  0.79030  0.19090  0.54280  1.0000
  C   C144      1.0  0.70970  0.80910  0.04280  1.0000
