data_image0
_chemical_formula_structural       Sn4S4O16C4H2C2H2C2H2C2H2C2H2C4H2C2H2C2H2C2H2C2H2C4H2C2H2C2H2C2H2C2H2C4H2C2H2C2H2C2H2C2H2C4H2C2H2C2H2C2H2C2H2C4H2C2H2C2H2C2H2C2H2C6H2C2H2C10H2C2H2C4
_chemical_formula_sum              "Sn4 S4 O16 C96 H68"
_cell_length_a       18.354
_cell_length_b       9.658
_cell_length_c       18.982
_cell_angle_alpha    90
_cell_angle_beta     119.69
_cell_angle_gamma    90

_space_group_name_H-M_alt    "P 1"
_space_group_IT_number       1

loop_
  _space_group_symop_operation_xyz
  'x, y, z'

loop_
  _atom_site_type_symbol
  _atom_site_label
  _atom_site_symmetry_multiplicity
  _atom_site_fract_x
  _atom_site_fract_y
  _atom_site_fract_z
  _atom_site_occupancy
  Sn  Sn1       1.0  0.50000  0.54737  0.50000  1.0000
  Sn  Sn2       1.0  0.50000  0.45263  0.00000  1.0000
  Sn  Sn3       1.0  0.96781  0.03827  0.00773  1.0000
  Sn  Sn4       1.0  0.96781  0.96173  0.50773  1.0000
  S   S1        1.0  0.69143  0.82920  0.76148  1.0000
  S   S2        1.0  0.69143  0.17080  0.26148  1.0000
  S   S3        1.0  0.22403  0.28420  0.22456  1.0000
  S   S4        1.0  0.22403  0.71580  0.72456  1.0000
  O   O1        1.0  0.57120  0.65320  0.62300  1.0000
  O   O2        1.0  0.57120  0.34680  0.12300  1.0000
  O   O3        1.0  0.45530  0.76580  0.60250  1.0000
  O   O4        1.0  0.45530  0.23420  0.10250  1.0000
  O   O5        1.0  0.84310  0.94260  0.92240  1.0000
  O   O6        1.0  0.84310  0.05740  0.42240  1.0000
  O   O7        1.0  0.77860  0.14450  0.90490  1.0000
  O   O8        1.0  0.77860  0.85550  0.40490  1.0000
  O   O9        1.0  0.44130  0.43850  0.38270  1.0000
  O   O10       1.0  0.44130  0.56150  0.88270  1.0000
  O   O11       1.0  0.31390  0.47650  0.36610  1.0000
  O   O12       1.0  0.31390  0.52350  0.86610  1.0000
  O   O13       1.0  0.09420  0.12390  0.09240  1.0000
  O   O14       1.0  0.09420  0.87610  0.59240  1.0000
  O   O15       1.0  0.16360  0.07510  0.02690  1.0000
  O   O16       1.0  0.16360  0.92490  0.52690  1.0000
  C   C1        1.0  0.61830  0.46590  0.52040  1.0000
  C   C2        1.0  0.61830  0.53410  0.02040  1.0000
  C   C3        1.0  0.62030  0.34420  0.48230  1.0000
  C   C4        1.0  0.62030  0.65580  0.98230  1.0000
  H   H1        1.0  0.57060  0.29870  0.44750  1.0000
  H   H2        1.0  0.57060  0.70130  0.94750  1.0000
  C   C5        1.0  0.69660  0.29040  0.49630  1.0000
  C   C6        1.0  0.69660  0.70960  0.99630  1.0000
  H   H3        1.0  0.69790  0.20890  0.47080  1.0000
  H   H4        1.0  0.69790  0.79110  0.97080  1.0000
  C   C7        1.0  0.77090  0.35840  0.54830  1.0000
  C   C8        1.0  0.77090  0.64160  0.04830  1.0000
  H   H5        1.0  0.82190  0.32240  0.55770  1.0000
  H   H6        1.0  0.82190  0.67760  0.05770  1.0000
  C   C9        1.0  0.76890  0.48020  0.58640  1.0000
  C   C10       1.0  0.76890  0.51980  0.08640  1.0000
  H   H7        1.0  0.81860  0.52570  0.62120  1.0000
  H   H8        1.0  0.81860  0.47430  0.12120  1.0000
  C   C11       1.0  0.69260  0.53390  0.57240  1.0000
  C   C12       1.0  0.69260  0.46610  0.07240  1.0000
  H   H9        1.0  0.69130  0.61540  0.59790  1.0000
  H   H10       1.0  0.69130  0.38460  0.09790  1.0000
  C   C13       1.0  0.47720  0.74710  0.44280  1.0000
  C   C14       1.0  0.47720  0.25290  0.94280  1.0000
  C   C15       1.0  0.53550  0.85060  0.48430  1.0000
  C   C16       1.0  0.53550  0.14940  0.98430  1.0000
  H   H11       1.0  0.58040  0.83340  0.53580  1.0000
  H   H12       1.0  0.58040  0.16660  0.03580  1.0000
  C   C17       1.0  0.52680  0.97990  0.44880  1.0000
  C   C18       1.0  0.52680  0.02010  0.94880  1.0000
  H   H13       1.0  0.56580  0.04920  0.47660  1.0000
  H   H14       1.0  0.56580  0.95080  0.97660  1.0000
  C   C19       1.0  0.45970  0.00570  0.37180  1.0000
  C   C20       1.0  0.45970  0.99430  0.87180  1.0000
  H   H15       1.0  0.45380  0.09220  0.34800  1.0000
  H   H16       1.0  0.45380  0.90780  0.84800  1.0000
  C   C21       1.0  0.40130  0.90210  0.33030  1.0000
  C   C22       1.0  0.40130  0.09790  0.83030  1.0000
  H   H17       1.0  0.35640  0.91930  0.27880  1.0000
  H   H18       1.0  0.35640  0.08070  0.77880  1.0000
  C   C23       1.0  0.41010  0.77280  0.36580  1.0000
  C   C24       1.0  0.41010  0.22720  0.86580  1.0000
  H   H19       1.0  0.37100  0.70350  0.33800  1.0000
  H   H20       1.0  0.37100  0.29650  0.83800  1.0000
  C   C25       1.0  0.44570  0.40640  0.54930  1.0000
  C   C26       1.0  0.44570  0.59360  0.04930  1.0000
  C   C27       1.0  0.40460  0.44740  0.59080  1.0000
  C   C28       1.0  0.40460  0.55260  0.09080  1.0000
  H   H21       1.0  0.39480  0.54080  0.59450  1.0000
  H   H22       1.0  0.39480  0.45920  0.09450  1.0000
  C   C29       1.0  0.37840  0.34870  0.62670  1.0000
  C   C30       1.0  0.37840  0.65130  0.12670  1.0000
  H   H23       1.0  0.35090  0.37610  0.65440  1.0000
  H   H24       1.0  0.35090  0.62390  0.15440  1.0000
  C   C31       1.0  0.39310  0.20900  0.62110  1.0000
  C   C32       1.0  0.39310  0.79100  0.12110  1.0000
  H   H25       1.0  0.37550  0.14300  0.64510  1.0000
  H   H26       1.0  0.37550  0.85700  0.14510  1.0000
  C   C33       1.0  0.43410  0.16810  0.57960  1.0000
  C   C34       1.0  0.43410  0.83190  0.07960  1.0000
  H   H27       1.0  0.44400  0.07460  0.57590  1.0000
  H   H28       1.0  0.44400  0.92540  0.07590  1.0000
  C   C35       1.0  0.46040  0.26680  0.54370  1.0000
  C   C36       1.0  0.46040  0.73320  0.04370  1.0000
  H   H29       1.0  0.48790  0.23940  0.51590  1.0000
  H   H30       1.0  0.48790  0.76060  0.01590  1.0000
  C   C37       1.0  0.95910  0.16440  0.91030  1.0000
  C   C38       1.0  0.95910  0.83560  0.41030  1.0000
  C   C39       1.0  0.92380  0.11360  0.83160  1.0000
  C   C40       1.0  0.92380  0.88640  0.33160  1.0000
  H   H31       1.0  0.90390  0.02310  0.82030  1.0000
  H   H32       1.0  0.90390  0.97690  0.32030  1.0000
  C   C41       1.0  0.91820  0.19790  0.76980  1.0000
  C   C42       1.0  0.91820  0.80210  0.26980  1.0000
  H   H33       1.0  0.89460  0.16390  0.71720  1.0000
  H   H34       1.0  0.89460  0.83610  0.21720  1.0000
  C   C43       1.0  0.94800  0.33310  0.78660  1.0000
  C   C44       1.0  0.94800  0.66690  0.28660  1.0000
  H   H35       1.0  0.94430  0.38950  0.74530  1.0000
  H   H36       1.0  0.94430  0.61050  0.24530  1.0000
  C   C45       1.0  0.98330  0.38390  0.86530  1.0000
  C   C46       1.0  0.98330  0.61610  0.36530  1.0000
  H   H37       1.0  0.00320  0.47440  0.87660  1.0000
  H   H38       1.0  0.00320  0.52560  0.37660  1.0000
  C   C47       1.0  0.98890  0.29960  0.92710  1.0000
  C   C48       1.0  0.98890  0.70040  0.42710  1.0000
  H   H39       1.0  0.01250  0.33360  0.97970  1.0000
  H   H40       1.0  0.01250  0.66640  0.47970  1.0000
  C   C49       1.0  0.01430  0.83190  0.03210  1.0000
  C   C50       1.0  0.01430  0.16810  0.53210  1.0000
  C   C51       1.0  0.08140  0.78910  0.02290  1.0000
  C   C52       1.0  0.08140  0.21090  0.52290  1.0000
  H   H41       1.0  0.10370  0.84830  0.99980  1.0000
  H   H42       1.0  0.10370  0.15170  0.49980  1.0000
  C   C53       1.0  0.11530  0.65770  0.04820  1.0000
  C   C54       1.0  0.11530  0.34230  0.54820  1.0000
  H   H43       1.0  0.16020  0.62900  0.04210  1.0000
  H   H44       1.0  0.16020  0.37100  0.54210  1.0000
  C   C55       1.0  0.08200  0.56910  0.08280  1.0000
  C   C56       1.0  0.08200  0.43090  0.58280  1.0000
  H   H45       1.0  0.10460  0.48110  0.09970  1.0000
  H   H46       1.0  0.10460  0.51890  0.59970  1.0000
  C   C57       1.0  0.01490  0.61190  0.09200  1.0000
  C   C58       1.0  0.01490  0.38810  0.59200  1.0000
  H   H47       1.0  0.99260  0.55260  0.11510  1.0000
  H   H48       1.0  0.99260  0.44740  0.61510  1.0000
  C   C59       1.0  0.98110  0.74330  0.06670  1.0000
  C   C60       1.0  0.98110  0.25670  0.56670  1.0000
  H   H49       1.0  0.93620  0.77200  0.07280  1.0000
  H   H50       1.0  0.93620  0.22800  0.57280  1.0000
  C   C61       1.0  0.93080  0.11180  0.09410  1.0000
  C   C62       1.0  0.93080  0.88820  0.59410  1.0000
  C   C63       1.0  0.98220  0.20350  0.15500  1.0000
  C   C64       1.0  0.98220  0.79650  0.65500  1.0000
  H   H51       1.0  0.03230  0.23330  0.15900  1.0000
  H   H52       1.0  0.03230  0.76670  0.65900  1.0000
  C   C65       1.0  0.95870  0.25080  0.21010  1.0000
  C   C66       1.0  0.95870  0.74920  0.71010  1.0000
  H   H53       1.0  0.99300  0.31210  0.25090  1.0000
  H   H54       1.0  0.99300  0.68790  0.75090  1.0000
  C   C67       1.0  0.88380  0.20630  0.20410  1.0000
  C   C68       1.0  0.88380  0.79370  0.70410  1.0000
  H   H55       1.0  0.86810  0.23790  0.24090  1.0000
  H   H56       1.0  0.86810  0.76210  0.74090  1.0000
  C   C69       1.0  0.83240  0.11460  0.14320  1.0000
  C   C70       1.0  0.83240  0.88540  0.64320  1.0000
  H   H57       1.0  0.78230  0.08480  0.13920  1.0000
  H   H58       1.0  0.78230  0.91520  0.63920  1.0000
  C   C71       1.0  0.85590  0.06730  0.08810  1.0000
  C   C72       1.0  0.85590  0.93270  0.58810  1.0000
  H   H59       1.0  0.82160  0.00590  0.04730  1.0000
  H   H60       1.0  0.82160  0.99410  0.54730  1.0000
  C   C73       1.0  0.53150  0.74420  0.64010  1.0000
  C   C74       1.0  0.53150  0.25580  0.14010  1.0000
  C   C75       1.0  0.58340  0.82920  0.71270  1.0000
  C   C76       1.0  0.58340  0.17080  0.21270  1.0000
  C   C77       1.0  0.55590  0.92090  0.74920  1.0000
  C   C78       1.0  0.55590  0.07910  0.24920  1.0000
  H   H61       1.0  0.49950  0.93460  0.73240  1.0000
  H   H62       1.0  0.49950  0.06540  0.23240  1.0000
  C   C79       1.0  0.62080  0.99280  0.81460  1.0000
  C   C80       1.0  0.62080  0.00720  0.31460  1.0000
  H   H63       1.0  0.61160  0.05880  0.84490  1.0000
  H   H64       1.0  0.61160  0.94120  0.34490  1.0000
  C   C81       1.0  0.69930  0.95560  0.82900  1.0000
  C   C82       1.0  0.69930  0.04440  0.32900  1.0000
  C   C83       1.0  0.77870  0.02030  0.88870  1.0000
  C   C84       1.0  0.77870  0.97970  0.38870  1.0000
  C   C85       1.0  0.35970  0.42440  0.34390  1.0000
  C   C86       1.0  0.35970  0.57560  0.84390  1.0000
  C   C87       1.0  0.32610  0.33590  0.26980  1.0000
  C   C88       1.0  0.32610  0.66410  0.76980  1.0000
  C   C89       1.0  0.36260  0.29290  0.22580  1.0000
  C   C90       1.0  0.36260  0.70710  0.72580  1.0000
  H   H65       1.0  0.41760  0.31430  0.24000  1.0000
  H   H66       1.0  0.41760  0.68570  0.74000  1.0000
  C   C91       1.0  0.30970  0.21360  0.15750  1.0000
  C   C92       1.0  0.30970  0.78640  0.65750  1.0000
  H   H67       1.0  0.32620  0.17450  0.12280  1.0000
  H   H68       1.0  0.32620  0.82550  0.62280  1.0000
  C   C93       1.0  0.23130  0.20030  0.14760  1.0000
  C   C94       1.0  0.23130  0.79970  0.64760  1.0000
  C   C95       1.0  0.15760  0.12730  0.08280  1.0000
  C   C96       1.0  0.15760  0.87270  0.58280  1.0000
