data_image0
_chemical_formula_structural       Zn4O24C12H4C8H4C8H4C8
_chemical_formula_sum              "Zn4 O24 C36 H12"
_cell_length_a       9.4299
_cell_length_b       16.49
_cell_length_c       11.2803
_cell_angle_alpha    90
_cell_angle_beta     97.731
_cell_angle_gamma    90

_space_group_name_H-M_alt    "P 1"
_space_group_IT_number       1

loop_
  _space_group_symop_operation_xyz
  'x, y, z'

loop_
  _atom_site_type_symbol
  _atom_site_label
  _atom_site_symmetry_multiplicity
  _atom_site_fract_x
  _atom_site_fract_y
  _atom_site_fract_z
  _atom_site_occupancy
  Zn  Zn1       1.0  0.36663  0.07754  0.04912  1.0000
  Zn  Zn2       1.0  0.13337  0.57754  0.45088  1.0000
  Zn  Zn3       1.0  0.63337  0.92246  0.95088  1.0000
  Zn  Zn4       1.0  0.86663  0.42246  0.54912  1.0000
  O   O1        1.0  0.70782  0.42033  0.64209  1.0000
  O   O2        1.0  0.79218  0.92033  0.85791  1.0000
  O   O3        1.0  0.29218  0.57967  0.35791  1.0000
  O   O4        1.0  0.20782  0.07967  0.14209  1.0000
  O   O5        1.0  0.42611  0.16307  0.94959  1.0000
  O   O6        1.0  0.07389  0.66307  0.55041  1.0000
  O   O7        1.0  0.57389  0.83693  0.05041  1.0000
  O   O8        1.0  0.92611  0.33693  0.44959  1.0000
  O   O9        1.0  0.19357  0.19128  0.91002  1.0000
  O   O10       1.0  0.30643  0.69128  0.58998  1.0000
  O   O11       1.0  0.80643  0.80872  0.08998  1.0000
  O   O12       1.0  0.69357  0.30872  0.41002  1.0000
  O   O13       1.0  0.76876  0.29717  0.71263  1.0000
  O   O14       1.0  0.73124  0.79717  0.78737  1.0000
  O   O15       1.0  0.23124  0.70283  0.28737  1.0000
  O   O16       1.0  0.26876  0.20283  0.21263  1.0000
  O   O17       1.0  0.04506  0.43598  0.66162  1.0000
  O   O18       1.0  0.45494  0.93598  0.83838  1.0000
  O   O19       1.0  0.95494  0.56402  0.33838  1.0000
  O   O20       1.0  0.54506  0.06402  0.16162  1.0000
  O   O21       1.0  0.19979  0.47992  0.54118  1.0000
  O   O22       1.0  0.30021  0.97992  0.95882  1.0000
  O   O23       1.0  0.80021  0.52008  0.45882  1.0000
  O   O24       1.0  0.69979  0.02008  0.04118  1.0000
  C   C1        1.0  0.31931  0.20450  0.89944  1.0000
  C   C2        1.0  0.18069  0.70450  0.60056  1.0000
  C   C3        1.0  0.68069  0.79550  0.10056  1.0000
  C   C4        1.0  0.81931  0.29550  0.39944  1.0000
  C   C5        1.0  0.35723  0.27321  0.82068  1.0000
  C   C6        1.0  0.14277  0.77321  0.67932  1.0000
  C   C7        1.0  0.64277  0.72679  0.17932  1.0000
  C   C8        1.0  0.85723  0.22679  0.32068  1.0000
  C   C9        1.0  0.49738  0.28345  0.79720  1.0000
  C   C10       1.0  0.00262  0.78345  0.70280  1.0000
  C   C11       1.0  0.50262  0.71655  0.20280  1.0000
  C   C12       1.0  0.99738  0.21655  0.29720  1.0000
  H   H1        1.0  0.56900  0.24920  0.83300  1.0000
  H   H2        1.0  0.93100  0.74920  0.66700  1.0000
  H   H3        1.0  0.43100  0.75080  0.16700  1.0000
  H   H4        1.0  0.06900  0.25080  0.33300  1.0000
  C   C13       1.0  0.53114  0.34459  0.72043  1.0000
  C   C14       1.0  0.96886  0.84459  0.77957  1.0000
  C   C15       1.0  0.46886  0.65541  0.27957  1.0000
  C   C16       1.0  0.03114  0.15541  0.22043  1.0000
  C   C17       1.0  0.42349  0.39558  0.66719  1.0000
  C   C18       1.0  0.07651  0.89558  0.83281  1.0000
  C   C19       1.0  0.57651  0.60442  0.33281  1.0000
  C   C20       1.0  0.92349  0.10442  0.16719  1.0000
  H   H5        1.0  0.44550  0.43660  0.61610  1.0000
  H   H6        1.0  0.05450  0.93660  0.88390  1.0000
  H   H7        1.0  0.55450  0.56340  0.38390  1.0000
  H   H8        1.0  0.94550  0.06340  0.11610  1.0000
  C   C21       1.0  0.28256  0.38561  0.68989  1.0000
  C   C22       1.0  0.21744  0.88561  0.81011  1.0000
  C   C23       1.0  0.71744  0.61439  0.31011  1.0000
  C   C24       1.0  0.78256  0.11439  0.18989  1.0000
  C   C25       1.0  0.25010  0.32461  0.76714  1.0000
  C   C26       1.0  0.24990  0.82461  0.73286  1.0000
  C   C27       1.0  0.74990  0.67539  0.23286  1.0000
  C   C28       1.0  0.75010  0.17539  0.26714  1.0000
  H   H9        1.0  0.15650  0.31810  0.78310  1.0000
  H   H10       1.0  0.34350  0.81810  0.71690  1.0000
  H   H11       1.0  0.84350  0.68190  0.21690  1.0000
  H   H12       1.0  0.65650  0.18190  0.28310  1.0000
  C   C29       1.0  0.68085  0.35312  0.69043  1.0000
  C   C30       1.0  0.81915  0.85312  0.80957  1.0000
  C   C31       1.0  0.31915  0.64688  0.30957  1.0000
  C   C32       1.0  0.18085  0.14688  0.19043  1.0000
  C   C33       1.0  0.16661  0.43820  0.62652  1.0000
  C   C34       1.0  0.33339  0.93820  0.87348  1.0000
  C   C35       1.0  0.83339  0.56180  0.37348  1.0000
  C   C36       1.0  0.66661  0.06180  0.12652  1.0000
