data_image0
_chemical_formula_structural       Zn4O24C4H4C20H4C8H4C4
_chemical_formula_sum              "Zn4 O24 C36 H12"
_cell_length_a       9.4469
_cell_length_b       16.2456
_cell_length_c       11.5176
_cell_angle_alpha    90
_cell_angle_beta     97.027
_cell_angle_gamma    90

_space_group_name_H-M_alt    "P 1"
_space_group_IT_number       1

loop_
  _space_group_symop_operation_xyz
  'x, y, z'

loop_
  _atom_site_type_symbol
  _atom_site_label
  _atom_site_symmetry_multiplicity
  _atom_site_fract_x
  _atom_site_fract_y
  _atom_site_fract_z
  _atom_site_occupancy
  Zn  Zn1       1.0  0.63648  0.07972  0.45311  1.0000
  Zn  Zn2       1.0  0.86352  0.57972  0.04689  1.0000
  Zn  Zn3       1.0  0.36352  0.92028  0.54689  1.0000
  Zn  Zn4       1.0  0.13648  0.42028  0.95311  1.0000
  O   O1        1.0  0.69815  0.97980  0.53983  1.0000
  O   O2        1.0  0.80185  0.47980  0.96017  1.0000
  O   O3        1.0  0.30185  0.02020  0.46017  1.0000
  O   O4        1.0  0.19815  0.52020  0.03983  1.0000
  O   O5        1.0  0.54171  0.93238  0.65253  1.0000
  O   O6        1.0  0.95829  0.43238  0.84747  1.0000
  O   O7        1.0  0.45829  0.06762  0.34747  1.0000
  O   O8        1.0  0.04171  0.56762  0.15253  1.0000
  O   O9        1.0  0.69020  0.69239  0.90540  1.0000
  O   O10       1.0  0.80980  0.19239  0.59460  1.0000
  O   O11       1.0  0.30980  0.30761  0.09460  1.0000
  O   O12       1.0  0.19020  0.80761  0.40540  1.0000
  O   O13       1.0  0.91860  0.66724  0.94914  1.0000
  O   O14       1.0  0.58140  0.16724  0.55086  1.0000
  O   O15       1.0  0.08140  0.33276  0.05086  1.0000
  O   O16       1.0  0.41860  0.83276  0.44914  1.0000
  O   O17       1.0  0.26200  0.79690  0.71240  1.0000
  O   O18       1.0  0.23800  0.29690  0.78760  1.0000
  O   O19       1.0  0.73800  0.20310  0.28760  1.0000
  O   O20       1.0  0.76200  0.70310  0.21240  1.0000
  O   O21       1.0  0.20336  0.91844  0.63582  1.0000
  O   O22       1.0  0.29664  0.41844  0.86418  1.0000
  O   O23       1.0  0.79664  0.08156  0.36418  1.0000
  O   O24       1.0  0.70336  0.58156  0.13582  1.0000
  C   C1        1.0  0.99280  0.78525  0.79440  1.0000
  C   C2        1.0  0.50720  0.28525  0.70560  1.0000
  C   C3        1.0  0.00720  0.21475  0.20560  1.0000
  C   C4        1.0  0.49280  0.71475  0.29440  1.0000
  H   H1        1.0  0.06430  0.75180  0.83160  1.0000
  H   H2        1.0  0.43570  0.25180  0.66840  1.0000
  H   H3        1.0  0.93570  0.24820  0.16840  1.0000
  H   H4        1.0  0.56430  0.74820  0.33160  1.0000
  C   C5        1.0  0.85340  0.77509  0.81750  1.0000
  C   C6        1.0  0.64660  0.27509  0.68250  1.0000
  C   C7        1.0  0.14660  0.22491  0.18250  1.0000
  C   C8        1.0  0.35340  0.72491  0.31750  1.0000
  C   C9        1.0  0.02630  0.84478  0.71660  1.0000
  C   C10       1.0  0.47370  0.34478  0.78340  1.0000
  C   C11       1.0  0.97370  0.15522  0.28340  1.0000
  C   C12       1.0  0.52630  0.65522  0.21660  1.0000
  C   C13       1.0  0.17550  0.85265  0.68690  1.0000
  C   C14       1.0  0.32450  0.35265  0.81310  1.0000
  C   C15       1.0  0.82450  0.14735  0.31310  1.0000
  C   C16       1.0  0.67550  0.64735  0.18690  1.0000
  C   C17       1.0  0.77950  0.88552  0.68440  1.0000
  C   C18       1.0  0.72050  0.38552  0.81560  1.0000
  C   C19       1.0  0.22050  0.11448  0.31560  1.0000
  C   C20       1.0  0.27950  0.61448  0.18440  1.0000
  C   C21       1.0  0.91900  0.89512  0.66230  1.0000
  C   C22       1.0  0.58100  0.39512  0.83770  1.0000
  C   C23       1.0  0.08100  0.10488  0.33770  1.0000
  C   C24       1.0  0.41900  0.60488  0.16230  1.0000
  H   H5        1.0  0.94140  0.93570  0.61050  1.0000
  H   H6        1.0  0.55860  0.43570  0.88950  1.0000
  H   H7        1.0  0.05860  0.06430  0.38950  1.0000
  H   H8        1.0  0.44140  0.56430  0.11050  1.0000
  C   C25       1.0  0.81500  0.70747  0.89770  1.0000
  C   C26       1.0  0.68500  0.20747  0.60230  1.0000
  C   C27       1.0  0.18500  0.29253  0.10230  1.0000
  C   C28       1.0  0.31500  0.79253  0.39770  1.0000
  C   C29       1.0  0.74680  0.82561  0.76280  1.0000
  C   C30       1.0  0.75320  0.32561  0.73720  1.0000
  C   C31       1.0  0.25320  0.17439  0.23720  1.0000
  C   C32       1.0  0.24680  0.67439  0.26280  1.0000
  H   H9        1.0  0.65320  0.81930  0.77870  1.0000
  H   H10       1.0  0.84680  0.31930  0.72130  1.0000
  H   H11       1.0  0.34680  0.18070  0.22130  1.0000
  H   H12       1.0  0.15320  0.68070  0.27870  1.0000
  C   C33       1.0  0.66380  0.93719  0.62090  1.0000
  C   C34       1.0  0.83620  0.43719  0.87910  1.0000
  C   C35       1.0  0.33620  0.06281  0.37910  1.0000
  C   C36       1.0  0.16380  0.56281  0.12090  1.0000
