data_image0
_chemical_formula_structural       Zn8F72O48C32H8C16H8C8H8C24H8C24H8C8H8C48H8C16H8C8H8C8
_chemical_formula_sum              "Zn8 F72 O48 C192 H72"
_cell_length_a       7.8849
_cell_length_b       36.8328
_cell_length_c       26.7656
_cell_angle_alpha    90
_cell_angle_beta     90
_cell_angle_gamma    90

_space_group_name_H-M_alt    "P 1"
_space_group_IT_number       1

loop_
  _space_group_symop_operation_xyz
  'x, y, z'

loop_
  _atom_site_type_symbol
  _atom_site_label
  _atom_site_symmetry_multiplicity
  _atom_site_fract_x
  _atom_site_fract_y
  _atom_site_fract_z
  _atom_site_occupancy
  Zn  Zn1       1.0  0.86761  0.20475  0.13361  1.0000
  Zn  Zn2       1.0  0.13239  0.79525  0.13361  1.0000
  Zn  Zn3       1.0  0.63239  0.20475  0.63361  1.0000
  Zn  Zn4       1.0  0.36761  0.79525  0.63361  1.0000
  Zn  Zn5       1.0  0.86761  0.70475  0.63361  1.0000
  Zn  Zn6       1.0  0.13239  0.29525  0.63361  1.0000
  Zn  Zn7       1.0  0.63239  0.70475  0.13361  1.0000
  Zn  Zn8       1.0  0.36761  0.29525  0.13361  1.0000
  F   F1        1.0  0.86570  0.12807  0.98747  1.0000
  F   F2        1.0  0.13430  0.87193  0.98747  1.0000
  F   F3        1.0  0.63430  0.12807  0.48747  1.0000
  F   F4        1.0  0.36570  0.87193  0.48747  1.0000
  F   F5        1.0  0.86570  0.62807  0.48747  1.0000
  F   F6        1.0  0.13430  0.37193  0.48747  1.0000
  F   F7        1.0  0.63430  0.62807  0.98747  1.0000
  F   F8        1.0  0.36570  0.37193  0.98747  1.0000
  F   F9        1.0  0.06910  0.14840  0.94362  1.0000
  F   F10       1.0  0.93090  0.85160  0.94362  1.0000
  F   F11       1.0  0.43090  0.14840  0.44362  1.0000
  F   F12       1.0  0.56910  0.85160  0.44362  1.0000
  F   F13       1.0  0.06910  0.64840  0.44362  1.0000
  F   F14       1.0  0.93090  0.35160  0.44362  1.0000
  F   F15       1.0  0.43090  0.64840  0.94362  1.0000
  F   F16       1.0  0.56910  0.35160  0.94362  1.0000
  F   F17       1.0  0.86100  0.12251  0.90763  1.0000
  F   F18       1.0  0.13900  0.87749  0.90763  1.0000
  F   F19       1.0  0.63900  0.12251  0.40763  1.0000
  F   F20       1.0  0.36100  0.87749  0.40763  1.0000
  F   F21       1.0  0.86100  0.62251  0.40763  1.0000
  F   F22       1.0  0.13900  0.37749  0.40763  1.0000
  F   F23       1.0  0.63900  0.62251  0.90763  1.0000
  F   F24       1.0  0.36100  0.37749  0.90763  1.0000
  F   F25       1.0  0.37790  0.33225  0.76384  1.0000
  F   F26       1.0  0.62210  0.66775  0.76384  1.0000
  F   F27       1.0  0.12210  0.33225  0.26384  1.0000
  F   F28       1.0  0.87790  0.66775  0.26384  1.0000
  F   F29       1.0  0.37790  0.83225  0.26384  1.0000
  F   F30       1.0  0.62210  0.16775  0.26384  1.0000
  F   F31       1.0  0.12210  0.83225  0.76384  1.0000
  F   F32       1.0  0.87790  0.16775  0.76384  1.0000
  F   F33       1.0  0.58540  0.32216  0.71340  1.0000
  F   F34       1.0  0.41460  0.67784  0.71340  1.0000
  F   F35       1.0  0.91460  0.32216  0.21340  1.0000
  F   F36       1.0  0.08540  0.67784  0.21340  1.0000
  F   F37       1.0  0.58540  0.82216  0.21340  1.0000
  F   F38       1.0  0.41460  0.17784  0.21340  1.0000
  F   F39       1.0  0.91460  0.82216  0.71340  1.0000
  F   F40       1.0  0.08540  0.17784  0.71340  1.0000
  F   F41       1.0  0.63360  0.33457  0.79030  1.0000
  F   F42       1.0  0.36640  0.66543  0.79030  1.0000
  F   F43       1.0  0.86640  0.33457  0.29030  1.0000
  F   F44       1.0  0.13360  0.66543  0.29030  1.0000
  F   F45       1.0  0.63360  0.83457  0.29030  1.0000
  F   F46       1.0  0.36640  0.16543  0.29030  1.0000
  F   F47       1.0  0.86640  0.83457  0.79030  1.0000
  F   F48       1.0  0.13360  0.16543  0.79030  1.0000
  F   F49       1.0  0.89570  0.12190  0.24015  1.0000
  F   F50       1.0  0.10430  0.87810  0.24015  1.0000
  F   F51       1.0  0.60430  0.12190  0.74015  1.0000
  F   F52       1.0  0.39570  0.87810  0.74015  1.0000
  F   F53       1.0  0.89570  0.62190  0.74015  1.0000
  F   F54       1.0  0.10430  0.37810  0.74015  1.0000
  F   F55       1.0  0.60430  0.62190  0.24015  1.0000
  F   F56       1.0  0.39570  0.37810  0.24015  1.0000
  F   F57       1.0  0.16150  0.11809  0.22430  1.0000
  F   F58       1.0  0.83850  0.88191  0.22430  1.0000
  F   F59       1.0  0.33850  0.11809  0.72430  1.0000
  F   F60       1.0  0.66150  0.88191  0.72430  1.0000
  F   F61       1.0  0.16150  0.61809  0.72430  1.0000
  F   F62       1.0  0.83850  0.38191  0.72430  1.0000
  F   F63       1.0  0.33850  0.61809  0.22430  1.0000
  F   F64       1.0  0.66150  0.38191  0.22430  1.0000
  F   F65       1.0  0.03500  0.07635  0.26734  1.0000
  F   F66       1.0  0.96500  0.92365  0.26734  1.0000
  F   F67       1.0  0.46500  0.07635  0.76734  1.0000
  F   F68       1.0  0.53500  0.92365  0.76734  1.0000
  F   F69       1.0  0.03500  0.57635  0.76734  1.0000
  F   F70       1.0  0.96500  0.42365  0.76734  1.0000
  F   F71       1.0  0.46500  0.57635  0.26734  1.0000
  F   F72       1.0  0.53500  0.42365  0.26734  1.0000
  O   O1        1.0  0.78990  0.21544  0.06640  1.0000
  O   O2        1.0  0.21010  0.78456  0.06640  1.0000
  O   O3        1.0  0.71010  0.21544  0.56640  1.0000
  O   O4        1.0  0.28990  0.78456  0.56640  1.0000
  O   O5        1.0  0.78990  0.71544  0.56640  1.0000
  O   O6        1.0  0.21010  0.28456  0.56640  1.0000
  O   O7        1.0  0.71010  0.71544  0.06640  1.0000
  O   O8        1.0  0.28990  0.28456  0.06640  1.0000
  O   O9        1.0  0.00940  0.18668  0.03393  1.0000
  O   O10       1.0  0.99060  0.81332  0.03393  1.0000
  O   O11       1.0  0.49060  0.18668  0.53393  1.0000
  O   O12       1.0  0.50940  0.81332  0.53393  1.0000
  O   O13       1.0  0.00940  0.68668  0.53393  1.0000
  O   O14       1.0  0.99060  0.31332  0.53393  1.0000
  O   O15       1.0  0.49060  0.68668  0.03393  1.0000
  O   O16       1.0  0.50940  0.31332  0.03393  1.0000
  O   O17       1.0  0.29520  0.28299  0.68615  1.0000
  O   O18       1.0  0.70480  0.71701  0.68615  1.0000
  O   O19       1.0  0.20480  0.28299  0.18615  1.0000
  O   O20       1.0  0.79520  0.71701  0.18615  1.0000
  O   O21       1.0  0.29520  0.78299  0.18615  1.0000
  O   O22       1.0  0.70480  0.21701  0.18615  1.0000
  O   O23       1.0  0.20480  0.78299  0.68615  1.0000
  O   O24       1.0  0.79520  0.21701  0.68615  1.0000
  O   O25       1.0  0.44100  0.23839  0.65078  1.0000
  O   O26       1.0  0.55900  0.76161  0.65078  1.0000
  O   O27       1.0  0.05900  0.23839  0.15078  1.0000
  O   O28       1.0  0.94100  0.76161  0.15078  1.0000
  O   O29       1.0  0.44100  0.73839  0.15078  1.0000
  O   O30       1.0  0.55900  0.26161  0.15078  1.0000
  O   O31       1.0  0.05900  0.73839  0.65078  1.0000
  O   O32       1.0  0.94100  0.26161  0.65078  1.0000
  O   O33       1.0  0.96990  0.15683  0.14667  1.0000
  O   O34       1.0  0.03010  0.84317  0.14667  1.0000
  O   O35       1.0  0.53010  0.15683  0.64667  1.0000
  O   O36       1.0  0.46990  0.84317  0.64667  1.0000
  O   O37       1.0  0.96990  0.65683  0.64667  1.0000
  O   O38       1.0  0.03010  0.34317  0.64667  1.0000
  O   O39       1.0  0.53010  0.65683  0.14667  1.0000
  O   O40       1.0  0.46990  0.34317  0.14667  1.0000
  O   O41       1.0  0.71230  0.14195  0.12192  1.0000
  O   O42       1.0  0.28770  0.85805  0.12192  1.0000
  O   O43       1.0  0.78770  0.14195  0.62192  1.0000
  O   O44       1.0  0.21230  0.85805  0.62192  1.0000
  O   O45       1.0  0.71230  0.64195  0.62192  1.0000
  O   O46       1.0  0.28770  0.35805  0.62192  1.0000
  O   O47       1.0  0.78770  0.64195  0.12192  1.0000
  O   O48       1.0  0.21230  0.35805  0.12192  1.0000
  C   C1        1.0  0.87140  0.20118  0.03092  1.0000
  C   C2        1.0  0.12860  0.79882  0.03092  1.0000
  C   C3        1.0  0.62860  0.20118  0.53092  1.0000
  C   C4        1.0  0.37140  0.79882  0.53092  1.0000
  C   C5        1.0  0.87140  0.70118  0.53092  1.0000
  C   C6        1.0  0.12860  0.29882  0.53092  1.0000
  C   C7        1.0  0.62860  0.70118  0.03092  1.0000
  C   C8        1.0  0.37140  0.29882  0.03092  1.0000
  C   C9        1.0  0.78910  0.20499  0.98005  1.0000
  C   C10       1.0  0.21090  0.79501  0.98005  1.0000
  C   C11       1.0  0.71090  0.20499  0.48005  1.0000
  C   C12       1.0  0.28910  0.79501  0.48005  1.0000
  C   C13       1.0  0.78910  0.70499  0.48005  1.0000
  C   C14       1.0  0.21090  0.29501  0.48005  1.0000
  C   C15       1.0  0.71090  0.70499  0.98005  1.0000
  C   C16       1.0  0.28910  0.29501  0.98005  1.0000
  C   C17       1.0  0.80880  0.18073  0.94015  1.0000
  C   C18       1.0  0.19120  0.81927  0.94015  1.0000
  C   C19       1.0  0.69120  0.18073  0.44015  1.0000
  C   C20       1.0  0.30880  0.81927  0.44015  1.0000
  C   C21       1.0  0.80880  0.68073  0.44015  1.0000
  C   C22       1.0  0.19120  0.31927  0.44015  1.0000
  C   C23       1.0  0.69120  0.68073  0.94015  1.0000
  C   C24       1.0  0.30880  0.31927  0.94015  1.0000
  C   C25       1.0  0.74080  0.18875  0.89355  1.0000
  C   C26       1.0  0.25920  0.81125  0.89355  1.0000
  C   C27       1.0  0.75920  0.18875  0.39355  1.0000
  C   C28       1.0  0.24080  0.81125  0.39355  1.0000
  C   C29       1.0  0.74080  0.68875  0.39355  1.0000
  C   C30       1.0  0.25920  0.31125  0.39355  1.0000
  C   C31       1.0  0.75920  0.68875  0.89355  1.0000
  C   C32       1.0  0.24080  0.31125  0.89355  1.0000
  H   H1        1.0  0.75540  0.17200  0.86690  1.0000
  H   H2        1.0  0.24460  0.82800  0.86690  1.0000
  H   H3        1.0  0.74460  0.17200  0.36690  1.0000
  H   H4        1.0  0.25540  0.82800  0.36690  1.0000
  H   H5        1.0  0.75540  0.67200  0.36690  1.0000
  H   H6        1.0  0.24460  0.32800  0.36690  1.0000
  H   H7        1.0  0.74460  0.67200  0.86690  1.0000
  H   H8        1.0  0.25540  0.32800  0.86690  1.0000
  C   C33       1.0  0.65140  0.22086  0.88506  1.0000
  C   C34       1.0  0.34860  0.77914  0.88506  1.0000
  C   C35       1.0  0.84860  0.22086  0.38506  1.0000
  C   C36       1.0  0.15140  0.77914  0.38506  1.0000
  C   C37       1.0  0.65140  0.72086  0.38506  1.0000
  C   C38       1.0  0.34860  0.27914  0.38506  1.0000
  C   C39       1.0  0.84860  0.72086  0.88506  1.0000
  C   C40       1.0  0.15140  0.27914  0.88506  1.0000
  C   C41       1.0  0.62880  0.24442  0.92540  1.0000
  C   C42       1.0  0.37120  0.75558  0.92540  1.0000
  C   C43       1.0  0.87120  0.24442  0.42540  1.0000
  C   C44       1.0  0.12880  0.75558  0.42540  1.0000
  C   C45       1.0  0.62880  0.74442  0.42540  1.0000
  C   C46       1.0  0.37120  0.25558  0.42540  1.0000
  C   C47       1.0  0.87120  0.74442  0.92540  1.0000
  C   C48       1.0  0.12880  0.25558  0.92540  1.0000
  H   H9        1.0  0.56640  0.26620  0.92070  1.0000
  H   H10       1.0  0.43360  0.73380  0.92070  1.0000
  H   H11       1.0  0.93360  0.26620  0.42070  1.0000
  H   H12       1.0  0.06640  0.73380  0.42070  1.0000
  H   H13       1.0  0.56640  0.76620  0.42070  1.0000
  H   H14       1.0  0.43360  0.23380  0.42070  1.0000
  H   H15       1.0  0.93360  0.76620  0.92070  1.0000
  H   H16       1.0  0.06640  0.23380  0.92070  1.0000
  C   C49       1.0  0.69470  0.23675  0.97180  1.0000
  C   C50       1.0  0.30530  0.76325  0.97180  1.0000
  C   C51       1.0  0.80530  0.23675  0.47180  1.0000
  C   C52       1.0  0.19470  0.76325  0.47180  1.0000
  C   C53       1.0  0.69470  0.73675  0.47180  1.0000
  C   C54       1.0  0.30530  0.26325  0.47180  1.0000
  C   C55       1.0  0.80530  0.73675  0.97180  1.0000
  C   C56       1.0  0.19470  0.26325  0.97180  1.0000
  H   H17       1.0  0.67620  0.25320  0.99860  1.0000
  H   H18       1.0  0.32380  0.74680  0.99860  1.0000
  H   H19       1.0  0.82380  0.25320  0.49860  1.0000
  H   H20       1.0  0.17620  0.74680  0.49860  1.0000
  H   H21       1.0  0.67620  0.75320  0.49860  1.0000
  H   H22       1.0  0.32380  0.24680  0.49860  1.0000
  H   H23       1.0  0.82380  0.75320  0.99860  1.0000
  H   H24       1.0  0.17620  0.24680  0.99860  1.0000
  C   C57       1.0  0.90110  0.14540  0.94540  1.0000
  C   C58       1.0  0.09890  0.85460  0.94540  1.0000
  C   C59       1.0  0.59890  0.14540  0.44540  1.0000
  C   C60       1.0  0.40110  0.85460  0.44540  1.0000
  C   C61       1.0  0.90110  0.64540  0.44540  1.0000
  C   C62       1.0  0.09890  0.35460  0.44540  1.0000
  C   C63       1.0  0.59890  0.64540  0.94540  1.0000
  C   C64       1.0  0.40110  0.35460  0.94540  1.0000
  C   C65       1.0  0.58770  0.23012  0.83463  1.0000
  C   C66       1.0  0.41230  0.76988  0.83463  1.0000
  C   C67       1.0  0.91230  0.23012  0.33463  1.0000
  C   C68       1.0  0.08770  0.76988  0.33463  1.0000
  C   C69       1.0  0.58770  0.73012  0.33463  1.0000
  C   C70       1.0  0.41230  0.26988  0.33463  1.0000
  C   C71       1.0  0.91230  0.73012  0.83463  1.0000
  C   C72       1.0  0.08770  0.26988  0.83463  1.0000
  C   C73       1.0  0.58260  0.26609  0.81932  1.0000
  C   C74       1.0  0.41740  0.73391  0.81932  1.0000
  C   C75       1.0  0.91740  0.26609  0.31932  1.0000
  C   C76       1.0  0.08260  0.73391  0.31932  1.0000
  C   C77       1.0  0.58260  0.76609  0.31932  1.0000
  C   C78       1.0  0.41740  0.23391  0.31932  1.0000
  C   C79       1.0  0.91740  0.76609  0.81932  1.0000
  C   C80       1.0  0.08260  0.23391  0.81932  1.0000
  H   H25       1.0  0.61970  0.28450  0.84170  1.0000
  H   H26       1.0  0.38030  0.71550  0.84170  1.0000
  H   H27       1.0  0.88030  0.28450  0.34170  1.0000
  H   H28       1.0  0.11970  0.71550  0.34170  1.0000
  H   H29       1.0  0.61970  0.78450  0.34170  1.0000
  H   H30       1.0  0.38030  0.21550  0.34170  1.0000
  H   H31       1.0  0.88030  0.78450  0.84170  1.0000
  H   H32       1.0  0.11970  0.21550  0.84170  1.0000
  C   C81       1.0  0.52490  0.27601  0.77221  1.0000
  C   C82       1.0  0.47510  0.72399  0.77221  1.0000
  C   C83       1.0  0.97510  0.27601  0.27221  1.0000
  C   C84       1.0  0.02490  0.72399  0.27221  1.0000
  C   C85       1.0  0.52490  0.77601  0.27221  1.0000
  C   C86       1.0  0.47510  0.22399  0.27221  1.0000
  C   C87       1.0  0.97510  0.77601  0.77221  1.0000
  C   C88       1.0  0.02490  0.22399  0.77221  1.0000
  C   C89       1.0  0.47260  0.24934  0.73891  1.0000
  C   C90       1.0  0.52740  0.75066  0.73891  1.0000
  C   C91       1.0  0.02740  0.24934  0.23891  1.0000
  C   C92       1.0  0.97260  0.75066  0.23891  1.0000
  C   C93       1.0  0.47260  0.74934  0.23891  1.0000
  C   C94       1.0  0.52740  0.25066  0.23891  1.0000
  C   C95       1.0  0.02740  0.74934  0.73891  1.0000
  C   C96       1.0  0.97260  0.25066  0.73891  1.0000
  C   C97       1.0  0.48080  0.21355  0.75350  1.0000
  C   C98       1.0  0.51920  0.78645  0.75350  1.0000
  C   C99       1.0  0.01920  0.21355  0.25350  1.0000
  C   C100      1.0  0.98080  0.78645  0.25350  1.0000
  C   C101      1.0  0.48080  0.71355  0.25350  1.0000
  C   C102      1.0  0.51920  0.28645  0.25350  1.0000
  C   C103      1.0  0.01920  0.71355  0.75350  1.0000
  C   C104      1.0  0.98080  0.28645  0.75350  1.0000
  H   H33       1.0  0.44970  0.19510  0.73040  1.0000
  H   H34       1.0  0.55030  0.80490  0.73040  1.0000
  H   H35       1.0  0.05030  0.19510  0.23040  1.0000
  H   H36       1.0  0.94970  0.80490  0.23040  1.0000
  H   H37       1.0  0.44970  0.69510  0.23040  1.0000
  H   H38       1.0  0.55030  0.30490  0.23040  1.0000
  H   H39       1.0  0.05030  0.69510  0.73040  1.0000
  H   H40       1.0  0.94970  0.30490  0.73040  1.0000
  C   C105      1.0  0.53300  0.20369  0.80085  1.0000
  C   C106      1.0  0.46700  0.79631  0.80085  1.0000
  C   C107      1.0  0.96700  0.20369  0.30085  1.0000
  C   C108      1.0  0.03300  0.79631  0.30085  1.0000
  C   C109      1.0  0.53300  0.70369  0.30085  1.0000
  C   C110      1.0  0.46700  0.29631  0.30085  1.0000
  C   C111      1.0  0.96700  0.70369  0.80085  1.0000
  C   C112      1.0  0.03300  0.29631  0.80085  1.0000
  H   H41       1.0  0.53170  0.17890  0.81050  1.0000
  H   H42       1.0  0.46830  0.82110  0.81050  1.0000
  H   H43       1.0  0.96830  0.17890  0.31050  1.0000
  H   H44       1.0  0.03170  0.82110  0.31050  1.0000
  H   H45       1.0  0.53170  0.67890  0.31050  1.0000
  H   H46       1.0  0.46830  0.32110  0.31050  1.0000
  H   H47       1.0  0.96830  0.67890  0.81050  1.0000
  H   H48       1.0  0.03170  0.32110  0.81050  1.0000
  C   C113      1.0  0.52910  0.31584  0.75958  1.0000
  C   C114      1.0  0.47090  0.68416  0.75958  1.0000
  C   C115      1.0  0.97090  0.31584  0.25958  1.0000
  C   C116      1.0  0.02910  0.68416  0.25958  1.0000
  C   C117      1.0  0.52910  0.81584  0.25958  1.0000
  C   C118      1.0  0.47090  0.18416  0.25958  1.0000
  C   C119      1.0  0.97090  0.81584  0.75958  1.0000
  C   C120      1.0  0.02910  0.18416  0.75958  1.0000
  C   C121      1.0  0.40090  0.25726  0.68783  1.0000
  C   C122      1.0  0.59910  0.74274  0.68783  1.0000
  C   C123      1.0  0.09910  0.25726  0.18783  1.0000
  C   C124      1.0  0.90090  0.74274  0.18783  1.0000
  C   C125      1.0  0.40090  0.75726  0.18783  1.0000
  C   C126      1.0  0.59910  0.24274  0.18783  1.0000
  C   C127      1.0  0.09910  0.75726  0.68783  1.0000
  C   C128      1.0  0.90090  0.24274  0.68783  1.0000
  C   C129      1.0  0.85890  0.13420  0.13620  1.0000
  C   C130      1.0  0.14110  0.86580  0.13620  1.0000
  C   C131      1.0  0.64110  0.13420  0.63620  1.0000
  C   C132      1.0  0.35890  0.86580  0.63620  1.0000
  C   C133      1.0  0.85890  0.63420  0.63620  1.0000
  C   C134      1.0  0.14110  0.36580  0.63620  1.0000
  C   C135      1.0  0.64110  0.63420  0.13620  1.0000
  C   C136      1.0  0.35890  0.36580  0.13620  1.0000
  C   C137      1.0  0.90590  0.09406  0.13910  1.0000
  C   C138      1.0  0.09410  0.90594  0.13910  1.0000
  C   C139      1.0  0.59410  0.09406  0.63910  1.0000
  C   C140      1.0  0.40590  0.90594  0.63910  1.0000
  C   C141      1.0  0.90590  0.59406  0.63910  1.0000
  C   C142      1.0  0.09410  0.40594  0.63910  1.0000
  C   C143      1.0  0.59410  0.59406  0.13910  1.0000
  C   C144      1.0  0.40590  0.40594  0.13910  1.0000
  C   C145      1.0  0.98150  0.07772  0.18130  1.0000
  C   C146      1.0  0.01850  0.92228  0.18130  1.0000
  C   C147      1.0  0.51850  0.07772  0.68130  1.0000
  C   C148      1.0  0.48150  0.92228  0.68130  1.0000
  C   C149      1.0  0.98150  0.57772  0.68130  1.0000
  C   C150      1.0  0.01850  0.42228  0.68130  1.0000
  C   C151      1.0  0.51850  0.57772  0.18130  1.0000
  C   C152      1.0  0.48150  0.42228  0.18130  1.0000
  C   C153      1.0  0.01810  0.04087  0.18010  1.0000
  C   C154      1.0  0.98190  0.95913  0.18010  1.0000
  C   C155      1.0  0.48190  0.04087  0.68010  1.0000
  C   C156      1.0  0.51810  0.95913  0.68010  1.0000
  C   C157      1.0  0.01810  0.54087  0.68010  1.0000
  C   C158      1.0  0.98190  0.45913  0.68010  1.0000
  C   C159      1.0  0.48190  0.54087  0.18010  1.0000
  C   C160      1.0  0.51810  0.45913  0.18010  1.0000
  H   H49       1.0  0.06930  0.02960  0.20820  1.0000
  H   H50       1.0  0.93070  0.97040  0.20820  1.0000
  H   H51       1.0  0.43070  0.02960  0.70820  1.0000
  H   H52       1.0  0.56930  0.97040  0.70820  1.0000
  H   H53       1.0  0.06930  0.52960  0.70820  1.0000
  H   H54       1.0  0.93070  0.47040  0.70820  1.0000
  H   H55       1.0  0.43070  0.52960  0.20820  1.0000
  H   H56       1.0  0.56930  0.47040  0.20820  1.0000
  C   C161      1.0  0.98000  0.02014  0.13740  1.0000
  C   C162      1.0  0.02000  0.97986  0.13740  1.0000
  C   C163      1.0  0.52000  0.02014  0.63740  1.0000
  C   C164      1.0  0.48000  0.97986  0.63740  1.0000
  C   C165      1.0  0.98000  0.52014  0.63740  1.0000
  C   C166      1.0  0.02000  0.47986  0.63740  1.0000
  C   C167      1.0  0.52000  0.52014  0.13740  1.0000
  C   C168      1.0  0.48000  0.47986  0.13740  1.0000
  C   C169      1.0  0.91850  0.03734  0.09650  1.0000
  C   C170      1.0  0.08150  0.96266  0.09650  1.0000
  C   C171      1.0  0.58150  0.03734  0.59650  1.0000
  C   C172      1.0  0.41850  0.96266  0.59650  1.0000
  C   C173      1.0  0.91850  0.53734  0.59650  1.0000
  C   C174      1.0  0.08150  0.46266  0.59650  1.0000
  C   C175      1.0  0.58150  0.53734  0.09650  1.0000
  C   C176      1.0  0.41850  0.46266  0.09650  1.0000
  H   H57       1.0  0.90210  0.02400  0.06650  1.0000
  H   H58       1.0  0.09790  0.97600  0.06650  1.0000
  H   H59       1.0  0.59790  0.02400  0.56650  1.0000
  H   H60       1.0  0.40210  0.97600  0.56650  1.0000
  H   H61       1.0  0.90210  0.52400  0.56650  1.0000
  H   H62       1.0  0.09790  0.47600  0.56650  1.0000
  H   H63       1.0  0.59790  0.52400  0.06650  1.0000
  H   H64       1.0  0.40210  0.47600  0.06650  1.0000
  C   C177      1.0  0.87960  0.07362  0.09760  1.0000
  C   C178      1.0  0.12040  0.92638  0.09760  1.0000
  C   C179      1.0  0.62040  0.07362  0.59760  1.0000
  C   C180      1.0  0.37960  0.92638  0.59760  1.0000
  C   C181      1.0  0.87960  0.57362  0.59760  1.0000
  C   C182      1.0  0.12040  0.42638  0.59760  1.0000
  C   C183      1.0  0.62040  0.57362  0.09760  1.0000
  C   C184      1.0  0.37960  0.42638  0.09760  1.0000
  H   H65       1.0  0.83310  0.08470  0.06860  1.0000
  H   H66       1.0  0.16690  0.91530  0.06860  1.0000
  H   H67       1.0  0.66690  0.08470  0.56860  1.0000
  H   H68       1.0  0.33310  0.91530  0.56860  1.0000
  H   H69       1.0  0.83310  0.58470  0.56860  1.0000
  H   H70       1.0  0.16690  0.41530  0.56860  1.0000
  H   H71       1.0  0.66690  0.58470  0.06860  1.0000
  H   H72       1.0  0.33310  0.41530  0.06860  1.0000
  C   C185      1.0  0.01600  0.09835  0.22800  1.0000
  C   C186      1.0  0.98400  0.90165  0.22800  1.0000
  C   C187      1.0  0.48400  0.09835  0.72800  1.0000
  C   C188      1.0  0.51600  0.90165  0.72800  1.0000
  C   C189      1.0  0.01600  0.59835  0.72800  1.0000
  C   C190      1.0  0.98400  0.40165  0.72800  1.0000
  C   C191      1.0  0.48400  0.59835  0.22800  1.0000
  C   C192      1.0  0.51600  0.40165  0.22800  1.0000
