data_image0
_chemical_formula_structural       Zr18O36C54H18C18H18C18H18C18H18C18H18Zr18O36C54H18C18H18C18H18C18H18C18H18O108C54H18C54H18C36O54C36H18C36O54C36H18C36
_chemical_formula_sum              "Zr36 O288 C540 H252"
_cell_length_a       19.677
_cell_length_b       19.677
_cell_length_c       54.778
_cell_angle_alpha    90
_cell_angle_beta     90
_cell_angle_gamma    120

_space_group_name_H-M_alt    "P 1"
_space_group_IT_number       1

loop_
  _space_group_symop_operation_xyz
  'x, y, z'

loop_
  _atom_site_type_symbol
  _atom_site_label
  _atom_site_symmetry_multiplicity
  _atom_site_fract_x
  _atom_site_fract_y
  _atom_site_fract_z
  _atom_site_occupancy
  Zr  Zr1       1.0  0.54074  0.74292  0.01046  1.0000
  Zr  Zr2       1.0  0.25708  0.79782  0.01046  1.0000
  Zr  Zr3       1.0  0.20218  0.45926  0.01046  1.0000
  Zr  Zr4       1.0  0.20741  0.07625  0.34379  1.0000
  Zr  Zr5       1.0  0.92375  0.13115  0.34379  1.0000
  Zr  Zr6       1.0  0.86885  0.79259  0.34379  1.0000
  Zr  Zr7       1.0  0.87407  0.40959  0.67713  1.0000
  Zr  Zr8       1.0  0.59041  0.46449  0.67713  1.0000
  Zr  Zr9       1.0  0.53551  0.12593  0.67713  1.0000
  Zr  Zr10      1.0  0.45926  0.25708  0.98954  1.0000
  Zr  Zr11      1.0  0.74292  0.20218  0.98954  1.0000
  Zr  Zr12      1.0  0.79782  0.54074  0.98954  1.0000
  Zr  Zr13      1.0  0.79259  0.92375  0.65621  1.0000
  Zr  Zr14      1.0  0.07625  0.86885  0.65621  1.0000
  Zr  Zr15      1.0  0.13115  0.20741  0.65621  1.0000
  Zr  Zr16      1.0  0.12593  0.59041  0.32287  1.0000
  Zr  Zr17      1.0  0.40959  0.53551  0.32287  1.0000
  Zr  Zr18      1.0  0.46449  0.87407  0.32287  1.0000
  O   O1        1.0  0.52188  0.73146  0.96875  1.0000
  O   O2        1.0  0.26854  0.79042  0.96875  1.0000
  O   O3        1.0  0.20958  0.47812  0.96875  1.0000
  O   O4        1.0  0.18855  0.06479  0.30208  1.0000
  O   O5        1.0  0.93521  0.12375  0.30208  1.0000
  O   O6        1.0  0.87625  0.81145  0.30208  1.0000
  O   O7        1.0  0.85521  0.39813  0.63542  1.0000
  O   O8        1.0  0.60187  0.45709  0.63542  1.0000
  O   O9        1.0  0.54291  0.14479  0.63542  1.0000
  O   O10       1.0  0.47812  0.26854  0.03125  1.0000
  O   O11       1.0  0.73146  0.20958  0.03125  1.0000
  O   O12       1.0  0.79042  0.52188  0.03125  1.0000
  O   O13       1.0  0.81145  0.93521  0.69792  1.0000
  O   O14       1.0  0.06479  0.87625  0.69792  1.0000
  O   O15       1.0  0.12375  0.18855  0.69792  1.0000
  O   O16       1.0  0.14479  0.60187  0.36458  1.0000
  O   O17       1.0  0.39813  0.54291  0.36458  1.0000
  O   O18       1.0  0.45709  0.85521  0.36458  1.0000
  O   O19       1.0  0.62525  0.83341  0.98412  1.0000
  O   O20       1.0  0.16659  0.79184  0.98412  1.0000
  O   O21       1.0  0.20816  0.37475  0.98412  1.0000
  O   O22       1.0  0.29192  0.16674  0.31745  1.0000
  O   O23       1.0  0.83326  0.12517  0.31745  1.0000
  O   O24       1.0  0.87483  0.70808  0.31745  1.0000
  O   O25       1.0  0.95858  0.50008  0.65079  1.0000
  O   O26       1.0  0.49992  0.45851  0.65079  1.0000
  O   O27       1.0  0.54149  0.04142  0.65079  1.0000
  O   O28       1.0  0.37475  0.16659  0.01588  1.0000
  O   O29       1.0  0.83341  0.20816  0.01588  1.0000
  O   O30       1.0  0.79184  0.62525  0.01588  1.0000
  O   O31       1.0  0.70808  0.83326  0.68255  1.0000
  O   O32       1.0  0.16674  0.87483  0.68255  1.0000
  O   O33       1.0  0.12517  0.29192  0.68255  1.0000
  O   O34       1.0  0.04142  0.49992  0.34921  1.0000
  O   O35       1.0  0.50008  0.54149  0.34921  1.0000
  O   O36       1.0  0.45851  0.95858  0.34921  1.0000
  C   C1        1.0  0.58160  0.79920  0.96556  1.0000
  C   C2        1.0  0.20080  0.78240  0.96556  1.0000
  C   C3        1.0  0.21760  0.41840  0.96556  1.0000
  C   C4        1.0  0.24827  0.13253  0.29889  1.0000
  C   C5        1.0  0.86747  0.11573  0.29889  1.0000
  C   C6        1.0  0.88427  0.75173  0.29889  1.0000
  C   C7        1.0  0.91493  0.46587  0.63223  1.0000
  C   C8        1.0  0.53413  0.44907  0.63223  1.0000
  C   C9        1.0  0.55093  0.08507  0.63223  1.0000
  C   C10       1.0  0.41840  0.20080  0.03444  1.0000
  C   C11       1.0  0.79920  0.21760  0.03444  1.0000
  C   C12       1.0  0.78240  0.58160  0.03444  1.0000
  C   C13       1.0  0.75173  0.86747  0.70111  1.0000
  C   C14       1.0  0.13253  0.88427  0.70111  1.0000
  C   C15       1.0  0.11573  0.24827  0.70111  1.0000
  C   C16       1.0  0.08507  0.53413  0.36777  1.0000
  C   C17       1.0  0.46587  0.55093  0.36777  1.0000
  C   C18       1.0  0.44907  0.91493  0.36777  1.0000
  C   C19       1.0  0.59870  0.83960  0.94149  1.0000
  C   C20       1.0  0.16040  0.75910  0.94149  1.0000
  C   C21       1.0  0.24090  0.40130  0.94149  1.0000
  C   C22       1.0  0.26537  0.17293  0.27482  1.0000
  C   C23       1.0  0.82707  0.09243  0.27482  1.0000
  C   C24       1.0  0.90757  0.73463  0.27482  1.0000
  C   C25       1.0  0.93203  0.50627  0.60816  1.0000
  C   C26       1.0  0.49373  0.42577  0.60816  1.0000
  C   C27       1.0  0.57423  0.06797  0.60816  1.0000
  C   C28       1.0  0.40130  0.16040  0.05851  1.0000
  C   C29       1.0  0.83960  0.24090  0.05851  1.0000
  C   C30       1.0  0.75910  0.59870  0.05851  1.0000
  C   C31       1.0  0.73463  0.82707  0.72518  1.0000
  C   C32       1.0  0.17293  0.90757  0.72518  1.0000
  C   C33       1.0  0.09243  0.26537  0.72518  1.0000
  C   C34       1.0  0.06797  0.49373  0.39184  1.0000
  C   C35       1.0  0.50627  0.57423  0.39184  1.0000
  C   C36       1.0  0.42577  0.93203  0.39184  1.0000
  C   C37       1.0  0.64820  0.92090  0.93992  1.0000
  C   C38       1.0  0.07910  0.72730  0.93992  1.0000
  C   C39       1.0  0.27270  0.35180  0.93992  1.0000
  C   C40       1.0  0.31487  0.25423  0.27325  1.0000
  C   C41       1.0  0.74577  0.06063  0.27325  1.0000
  C   C42       1.0  0.93937  0.68513  0.27325  1.0000
  C   C43       1.0  0.98153  0.58757  0.60659  1.0000
  C   C44       1.0  0.41243  0.39397  0.60659  1.0000
  C   C45       1.0  0.60603  0.01847  0.60659  1.0000
  C   C46       1.0  0.35180  0.07910  0.06008  1.0000
  C   C47       1.0  0.92090  0.27270  0.06008  1.0000
  C   C48       1.0  0.72730  0.64820  0.06008  1.0000
  C   C49       1.0  0.68513  0.74577  0.72675  1.0000
  C   C50       1.0  0.25423  0.93937  0.72675  1.0000
  C   C51       1.0  0.06063  0.31487  0.72675  1.0000
  C   C52       1.0  0.01847  0.41243  0.39341  1.0000
  C   C53       1.0  0.58757  0.60603  0.39341  1.0000
  C   C54       1.0  0.39397  0.98153  0.39341  1.0000
  H   H1        1.0  0.67260  0.95060  0.95420  1.0000
  H   H2        1.0  0.04940  0.72200  0.95420  1.0000
  H   H3        1.0  0.27800  0.32740  0.95420  1.0000
  H   H4        1.0  0.33927  0.28393  0.28753  1.0000
  H   H5        1.0  0.71607  0.05533  0.28753  1.0000
  H   H6        1.0  0.94467  0.66073  0.28753  1.0000
  H   H7        1.0  0.00593  0.61727  0.62087  1.0000
  H   H8        1.0  0.38273  0.38867  0.62087  1.0000
  H   H9        1.0  0.61133  0.99407  0.62087  1.0000
  H   H10       1.0  0.32740  0.04940  0.04580  1.0000
  H   H11       1.0  0.95060  0.27800  0.04580  1.0000
  H   H12       1.0  0.72200  0.67260  0.04580  1.0000
  H   H13       1.0  0.66073  0.71607  0.71247  1.0000
  H   H14       1.0  0.28393  0.94467  0.71247  1.0000
  H   H15       1.0  0.05533  0.33927  0.71247  1.0000
  H   H16       1.0  0.99407  0.38273  0.37913  1.0000
  H   H17       1.0  0.61727  0.61133  0.37913  1.0000
  H   H18       1.0  0.38867  0.00593  0.37913  1.0000
  C   C55       1.0  0.66170  0.95830  0.91741  1.0000
  C   C56       1.0  0.04170  0.70340  0.91741  1.0000
  C   C57       1.0  0.29660  0.33830  0.91741  1.0000
  C   C58       1.0  0.32837  0.29163  0.25074  1.0000
  C   C59       1.0  0.70837  0.03673  0.25074  1.0000
  C   C60       1.0  0.96327  0.67163  0.25074  1.0000
  C   C61       1.0  0.99503  0.62497  0.58408  1.0000
  C   C62       1.0  0.37503  0.37007  0.58408  1.0000
  C   C63       1.0  0.62993  0.00497  0.58408  1.0000
  C   C64       1.0  0.33830  0.04170  0.08259  1.0000
  C   C65       1.0  0.95830  0.29660  0.08259  1.0000
  C   C66       1.0  0.70340  0.66170  0.08259  1.0000
  C   C67       1.0  0.67163  0.70837  0.74926  1.0000
  C   C68       1.0  0.29163  0.96327  0.74926  1.0000
  C   C69       1.0  0.03673  0.32837  0.74926  1.0000
  C   C70       1.0  0.00497  0.37503  0.41592  1.0000
  C   C71       1.0  0.62497  0.62993  0.41592  1.0000
  C   C72       1.0  0.37007  0.99503  0.41592  1.0000
  H   H19       1.0  0.69200  0.01390  0.91650  1.0000
  H   H20       1.0  0.98610  0.67810  0.91650  1.0000
  H   H21       1.0  0.32190  0.30800  0.91650  1.0000
  H   H22       1.0  0.35867  0.34723  0.24983  1.0000
  H   H23       1.0  0.65277  0.01143  0.24983  1.0000
  H   H24       1.0  0.98857  0.64133  0.24983  1.0000
  H   H25       1.0  0.02533  0.68057  0.58317  1.0000
  H   H26       1.0  0.31943  0.34477  0.58317  1.0000
  H   H27       1.0  0.65523  0.97467  0.58317  1.0000
  H   H28       1.0  0.30800  0.98610  0.08350  1.0000
  H   H29       1.0  0.01390  0.32190  0.08350  1.0000
  H   H30       1.0  0.67810  0.69200  0.08350  1.0000
  H   H31       1.0  0.64133  0.65277  0.75017  1.0000
  H   H32       1.0  0.34723  0.98857  0.75017  1.0000
  H   H33       1.0  0.01143  0.35867  0.75017  1.0000
  H   H34       1.0  0.97467  0.31943  0.41683  1.0000
  H   H35       1.0  0.68057  0.65523  0.41683  1.0000
  H   H36       1.0  0.34477  0.02533  0.41683  1.0000
  C   C73       1.0  0.63110  0.91440  0.89622  1.0000
  C   C74       1.0  0.08560  0.71670  0.89622  1.0000
  C   C75       1.0  0.28330  0.36890  0.89622  1.0000
  C   C76       1.0  0.29777  0.24773  0.22955  1.0000
  C   C77       1.0  0.75227  0.05003  0.22955  1.0000
  C   C78       1.0  0.94997  0.70223  0.22955  1.0000
  C   C79       1.0  0.96443  0.58107  0.56289  1.0000
  C   C80       1.0  0.41893  0.38337  0.56289  1.0000
  C   C81       1.0  0.61663  0.03557  0.56289  1.0000
  C   C82       1.0  0.36890  0.08560  0.10378  1.0000
  C   C83       1.0  0.91440  0.28330  0.10378  1.0000
  C   C84       1.0  0.71670  0.63110  0.10378  1.0000
  C   C85       1.0  0.70223  0.75227  0.77045  1.0000
  C   C86       1.0  0.24773  0.94997  0.77045  1.0000
  C   C87       1.0  0.05003  0.29777  0.77045  1.0000
  C   C88       1.0  0.03557  0.41893  0.43711  1.0000
  C   C89       1.0  0.58107  0.61663  0.43711  1.0000
  C   C90       1.0  0.38337  0.96443  0.43711  1.0000
  H   H37       1.0  0.64350  0.93960  0.88080  1.0000
  H   H38       1.0  0.06040  0.70390  0.88080  1.0000
  H   H39       1.0  0.29610  0.35650  0.88080  1.0000
  H   H40       1.0  0.31017  0.27293  0.21413  1.0000
  H   H41       1.0  0.72707  0.03723  0.21413  1.0000
  H   H42       1.0  0.96277  0.68983  0.21413  1.0000
  H   H43       1.0  0.97683  0.60627  0.54747  1.0000
  H   H44       1.0  0.39373  0.37057  0.54747  1.0000
  H   H45       1.0  0.62943  0.02317  0.54747  1.0000
  H   H46       1.0  0.35650  0.06040  0.11920  1.0000
  H   H47       1.0  0.93960  0.29610  0.11920  1.0000
  H   H48       1.0  0.70390  0.64350  0.11920  1.0000
  H   H49       1.0  0.68983  0.72707  0.78587  1.0000
  H   H50       1.0  0.27293  0.96277  0.78587  1.0000
  H   H51       1.0  0.03723  0.31017  0.78587  1.0000
  H   H52       1.0  0.02317  0.39373  0.45253  1.0000
  H   H53       1.0  0.60627  0.62943  0.45253  1.0000
  H   H54       1.0  0.37057  0.97683  0.45253  1.0000
  C   C91       1.0  0.58230  0.83370  0.89776  1.0000
  C   C92       1.0  0.16630  0.74860  0.89776  1.0000
  C   C93       1.0  0.25140  0.41770  0.89776  1.0000
  C   C94       1.0  0.24897  0.16703  0.23109  1.0000
  C   C95       1.0  0.83297  0.08193  0.23109  1.0000
  C   C96       1.0  0.91807  0.75103  0.23109  1.0000
  C   C97       1.0  0.91563  0.50037  0.56443  1.0000
  C   C98       1.0  0.49963  0.41527  0.56443  1.0000
  C   C99       1.0  0.58473  0.08437  0.56443  1.0000
  C   C100      1.0  0.41770  0.16630  0.10224  1.0000
  C   C101      1.0  0.83370  0.25140  0.10224  1.0000
  C   C102      1.0  0.74860  0.58230  0.10224  1.0000
  C   C103      1.0  0.75103  0.83297  0.76891  1.0000
  C   C104      1.0  0.16703  0.91807  0.76891  1.0000
  C   C105      1.0  0.08193  0.24897  0.76891  1.0000
  C   C106      1.0  0.08437  0.49963  0.43557  1.0000
  C   C107      1.0  0.50037  0.58473  0.43557  1.0000
  C   C108      1.0  0.41527  0.91563  0.43557  1.0000
  H   H55       1.0  0.56070  0.80380  0.88330  1.0000
  H   H56       1.0  0.19620  0.75690  0.88330  1.0000
  H   H57       1.0  0.24310  0.43930  0.88330  1.0000
  H   H58       1.0  0.22737  0.13713  0.21663  1.0000
  H   H59       1.0  0.86287  0.09023  0.21663  1.0000
  H   H60       1.0  0.90977  0.77263  0.21663  1.0000
  H   H61       1.0  0.89403  0.47047  0.54997  1.0000
  H   H62       1.0  0.52953  0.42357  0.54997  1.0000
  H   H63       1.0  0.57643  0.10597  0.54997  1.0000
  H   H64       1.0  0.43930  0.19620  0.11670  1.0000
  H   H65       1.0  0.80380  0.24310  0.11670  1.0000
  H   H66       1.0  0.75690  0.56070  0.11670  1.0000
  H   H67       1.0  0.77263  0.86287  0.78337  1.0000
  H   H68       1.0  0.13713  0.90977  0.78337  1.0000
  H   H69       1.0  0.09023  0.22737  0.78337  1.0000
  H   H70       1.0  0.10597  0.52953  0.45003  1.0000
  H   H71       1.0  0.47047  0.57643  0.45003  1.0000
  H   H72       1.0  0.42357  0.89403  0.45003  1.0000
  C   C109      1.0  0.56460  0.79570  0.92063  1.0000
  C   C110      1.0  0.20430  0.76890  0.92063  1.0000
  C   C111      1.0  0.23110  0.43540  0.92063  1.0000
  C   C112      1.0  0.23127  0.12903  0.25396  1.0000
  C   C113      1.0  0.87097  0.10223  0.25396  1.0000
  C   C114      1.0  0.89777  0.76873  0.25396  1.0000
  C   C115      1.0  0.89793  0.46237  0.58730  1.0000
  C   C116      1.0  0.53763  0.43557  0.58730  1.0000
  C   C117      1.0  0.56443  0.10207  0.58730  1.0000
  C   C118      1.0  0.43540  0.20430  0.07937  1.0000
  C   C119      1.0  0.79570  0.23110  0.07937  1.0000
  C   C120      1.0  0.76890  0.56460  0.07937  1.0000
  C   C121      1.0  0.76873  0.87097  0.74604  1.0000
  C   C122      1.0  0.12903  0.89777  0.74604  1.0000
  C   C123      1.0  0.10223  0.23127  0.74604  1.0000
  C   C124      1.0  0.10207  0.53763  0.41270  1.0000
  C   C125      1.0  0.46237  0.56443  0.41270  1.0000
  C   C126      1.0  0.43557  0.89793  0.41270  1.0000
  H   H73       1.0  0.52980  0.74080  0.92170  1.0000
  H   H74       1.0  0.25920  0.78900  0.92170  1.0000
  H   H75       1.0  0.21100  0.47020  0.92170  1.0000
  H   H76       1.0  0.19647  0.07413  0.25503  1.0000
  H   H77       1.0  0.92587  0.12233  0.25503  1.0000
  H   H78       1.0  0.87767  0.80353  0.25503  1.0000
  H   H79       1.0  0.86313  0.40747  0.58837  1.0000
  H   H80       1.0  0.59253  0.45567  0.58837  1.0000
  H   H81       1.0  0.54433  0.13687  0.58837  1.0000
  H   H82       1.0  0.47020  0.25920  0.07830  1.0000
  H   H83       1.0  0.74080  0.21100  0.07830  1.0000
  H   H84       1.0  0.78900  0.52980  0.07830  1.0000
  H   H85       1.0  0.80353  0.92587  0.74497  1.0000
  H   H86       1.0  0.07413  0.87767  0.74497  1.0000
  H   H87       1.0  0.12233  0.19647  0.74497  1.0000
  H   H88       1.0  0.13687  0.59253  0.41163  1.0000
  H   H89       1.0  0.40747  0.54433  0.41163  1.0000
  H   H90       1.0  0.45567  0.86313  0.41163  1.0000
  Zr  Zr19      1.0  0.79594  0.86891  0.15236  1.0000
  Zr  Zr20      1.0  0.13109  0.92703  0.15236  1.0000
  Zr  Zr21      1.0  0.07297  0.20406  0.15236  1.0000
  Zr  Zr22      1.0  0.46261  0.20224  0.48569  1.0000
  Zr  Zr23      1.0  0.79776  0.26036  0.48569  1.0000
  Zr  Zr24      1.0  0.73964  0.53739  0.48569  1.0000
  Zr  Zr25      1.0  0.12927  0.53558  0.81903  1.0000
  Zr  Zr26      1.0  0.46442  0.59370  0.81903  1.0000
  Zr  Zr27      1.0  0.40630  0.87073  0.81903  1.0000
  Zr  Zr28      1.0  0.20406  0.13109  0.84764  1.0000
  Zr  Zr29      1.0  0.86891  0.07297  0.84764  1.0000
  Zr  Zr30      1.0  0.92703  0.79594  0.84764  1.0000
  Zr  Zr31      1.0  0.53739  0.79776  0.51431  1.0000
  Zr  Zr32      1.0  0.20224  0.73964  0.51431  1.0000
  Zr  Zr33      1.0  0.26036  0.46261  0.51431  1.0000
  Zr  Zr34      1.0  0.87073  0.46442  0.18097  1.0000
  Zr  Zr35      1.0  0.53558  0.40630  0.18097  1.0000
  Zr  Zr36      1.0  0.59370  0.12927  0.18097  1.0000
  O   O37       1.0  0.82090  0.88830  0.19357  1.0000
  O   O38       1.0  0.11170  0.93260  0.19357  1.0000
  O   O39       1.0  0.06740  0.17910  0.19357  1.0000
  O   O40       1.0  0.48757  0.22163  0.52690  1.0000
  O   O41       1.0  0.77837  0.26593  0.52690  1.0000
  O   O42       1.0  0.73407  0.51243  0.52690  1.0000
  O   O43       1.0  0.15423  0.55497  0.86024  1.0000
  O   O44       1.0  0.44503  0.59927  0.86024  1.0000
  O   O45       1.0  0.40073  0.84577  0.86024  1.0000
  O   O46       1.0  0.17910  0.11170  0.80643  1.0000
  O   O47       1.0  0.88830  0.06740  0.80643  1.0000
  O   O48       1.0  0.93260  0.82090  0.80643  1.0000
  O   O49       1.0  0.51243  0.77837  0.47310  1.0000
  O   O50       1.0  0.22163  0.73407  0.47310  1.0000
  O   O51       1.0  0.26593  0.48757  0.47310  1.0000
  O   O52       1.0  0.84577  0.44503  0.13976  1.0000
  O   O53       1.0  0.55497  0.40073  0.13976  1.0000
  O   O54       1.0  0.59927  0.15423  0.13976  1.0000
  O   O55       1.0  0.70699  0.86050  0.17912  1.0000
  O   O56       1.0  0.13950  0.84649  0.17912  1.0000
  O   O57       1.0  0.15351  0.29301  0.17912  1.0000
  O   O58       1.0  0.37366  0.19383  0.51245  1.0000
  O   O59       1.0  0.80617  0.17982  0.51245  1.0000
  O   O60       1.0  0.82018  0.62634  0.51245  1.0000
  O   O61       1.0  0.04032  0.52717  0.84579  1.0000
  O   O62       1.0  0.47283  0.51316  0.84579  1.0000
  O   O63       1.0  0.48684  0.95968  0.84579  1.0000
  O   O64       1.0  0.29301  0.13950  0.82088  1.0000
  O   O65       1.0  0.86050  0.15351  0.82088  1.0000
  O   O66       1.0  0.84649  0.70699  0.82088  1.0000
  O   O67       1.0  0.62634  0.80617  0.48755  1.0000
  O   O68       1.0  0.19383  0.82018  0.48755  1.0000
  O   O69       1.0  0.17982  0.37366  0.48755  1.0000
  O   O70       1.0  0.95968  0.47283  0.15421  1.0000
  O   O71       1.0  0.52717  0.48684  0.15421  1.0000
  O   O72       1.0  0.51316  0.04032  0.15421  1.0000
  C   C127      1.0  0.75160  0.87210  0.19740  1.0000
  C   C128      1.0  0.12790  0.87950  0.19740  1.0000
  C   C129      1.0  0.12050  0.24840  0.19740  1.0000
  C   C130      1.0  0.41827  0.20543  0.53073  1.0000
  C   C131      1.0  0.79457  0.21283  0.53073  1.0000
  C   C132      1.0  0.78717  0.58173  0.53073  1.0000
  C   C133      1.0  0.08493  0.53877  0.86407  1.0000
  C   C134      1.0  0.46123  0.54617  0.86407  1.0000
  C   C135      1.0  0.45383  0.91507  0.86407  1.0000
  C   C136      1.0  0.24840  0.12790  0.80260  1.0000
  C   C137      1.0  0.87210  0.12050  0.80260  1.0000
  C   C138      1.0  0.87950  0.75160  0.80260  1.0000
  C   C139      1.0  0.58173  0.79457  0.46927  1.0000
  C   C140      1.0  0.20543  0.78717  0.46927  1.0000
  C   C141      1.0  0.21283  0.41827  0.46927  1.0000
  C   C142      1.0  0.91507  0.46123  0.13593  1.0000
  C   C143      1.0  0.53877  0.45383  0.13593  1.0000
  C   C144      1.0  0.54617  0.08493  0.13593  1.0000
  C   C145      1.0  0.72080  0.86030  0.22227  1.0000
  C   C146      1.0  0.13970  0.86050  0.22227  1.0000
  C   C147      1.0  0.13950  0.27920  0.22227  1.0000
  C   C148      1.0  0.38747  0.19363  0.55560  1.0000
  C   C149      1.0  0.80637  0.19383  0.55560  1.0000
  C   C150      1.0  0.80617  0.61253  0.55560  1.0000
  C   C151      1.0  0.05413  0.52697  0.88894  1.0000
  C   C152      1.0  0.47303  0.52717  0.88894  1.0000
  C   C153      1.0  0.47283  0.94587  0.88894  1.0000
  C   C154      1.0  0.27920  0.13970  0.77773  1.0000
  C   C155      1.0  0.86030  0.13950  0.77773  1.0000
  C   C156      1.0  0.86050  0.72080  0.77773  1.0000
  C   C157      1.0  0.61253  0.80637  0.44440  1.0000
  C   C158      1.0  0.19363  0.80617  0.44440  1.0000
  C   C159      1.0  0.19383  0.38747  0.44440  1.0000
  C   C160      1.0  0.94587  0.47303  0.11106  1.0000
  C   C161      1.0  0.52697  0.47283  0.11106  1.0000
  C   C162      1.0  0.52717  0.05413  0.11106  1.0000
  C   C163      1.0  0.77260  0.87600  0.24214  1.0000
  C   C164      1.0  0.12400  0.89660  0.24214  1.0000
  C   C165      1.0  0.10340  0.22740  0.24214  1.0000
  C   C166      1.0  0.43927  0.20933  0.57547  1.0000
  C   C167      1.0  0.79067  0.22993  0.57547  1.0000
  C   C168      1.0  0.77007  0.56073  0.57547  1.0000
  C   C169      1.0  0.10593  0.54267  0.90881  1.0000
  C   C170      1.0  0.45733  0.56327  0.90881  1.0000
  C   C171      1.0  0.43673  0.89407  0.90881  1.0000
  C   C172      1.0  0.22740  0.12400  0.75786  1.0000
  C   C173      1.0  0.87600  0.10340  0.75786  1.0000
  C   C174      1.0  0.89660  0.77260  0.75786  1.0000
  C   C175      1.0  0.56073  0.79067  0.42453  1.0000
  C   C176      1.0  0.20933  0.77007  0.42453  1.0000
  C   C177      1.0  0.22993  0.43927  0.42453  1.0000
  C   C178      1.0  0.89407  0.45733  0.09119  1.0000
  C   C179      1.0  0.54267  0.43673  0.09119  1.0000
  C   C180      1.0  0.56327  0.10593  0.09119  1.0000
  H   H91       1.0  0.82690  0.89590  0.23920  1.0000
  H   H92       1.0  0.10410  0.93100  0.23920  1.0000
  H   H93       1.0  0.06900  0.17310  0.23920  1.0000
  H   H94       1.0  0.49357  0.22923  0.57253  1.0000
  H   H95       1.0  0.77077  0.26433  0.57253  1.0000
  H   H96       1.0  0.73567  0.50643  0.57253  1.0000
  H   H97       1.0  0.16023  0.56257  0.90587  1.0000
  H   H98       1.0  0.43743  0.59767  0.90587  1.0000
  H   H99       1.0  0.40233  0.83977  0.90587  1.0000
  H   H100      1.0  0.17310  0.10410  0.76080  1.0000
  H   H101      1.0  0.89590  0.06900  0.76080  1.0000
  H   H102      1.0  0.93100  0.82690  0.76080  1.0000
  H   H103      1.0  0.50643  0.77077  0.42747  1.0000
  H   H104      1.0  0.22923  0.73567  0.42747  1.0000
  H   H105      1.0  0.26433  0.49357  0.42747  1.0000
  H   H106      1.0  0.83977  0.43743  0.09413  1.0000
  H   H107      1.0  0.56257  0.40233  0.09413  1.0000
  H   H108      1.0  0.59767  0.16023  0.09413  1.0000
  C   C181      1.0  0.74480  0.86280  0.26548  1.0000
  C   C182      1.0  0.13720  0.88200  0.26548  1.0000
  C   C183      1.0  0.11800  0.25520  0.26548  1.0000
  C   C184      1.0  0.41147  0.19613  0.59881  1.0000
  C   C185      1.0  0.80387  0.21533  0.59881  1.0000
  C   C186      1.0  0.78467  0.58853  0.59881  1.0000
  C   C187      1.0  0.07813  0.52947  0.93215  1.0000
  C   C188      1.0  0.47053  0.54867  0.93215  1.0000
  C   C189      1.0  0.45133  0.92187  0.93215  1.0000
  C   C190      1.0  0.25520  0.13720  0.73452  1.0000
  C   C191      1.0  0.86280  0.11800  0.73452  1.0000
  C   C192      1.0  0.88200  0.74480  0.73452  1.0000
  C   C193      1.0  0.58853  0.80387  0.40119  1.0000
  C   C194      1.0  0.19613  0.78467  0.40119  1.0000
  C   C195      1.0  0.21533  0.41147  0.40119  1.0000
  C   C196      1.0  0.92187  0.47053  0.06785  1.0000
  C   C197      1.0  0.52947  0.45133  0.06785  1.0000
  C   C198      1.0  0.54867  0.07813  0.06785  1.0000
  H   H109      1.0  0.77970  0.87450  0.27880  1.0000
  H   H110      1.0  0.12550  0.90520  0.27880  1.0000
  H   H111      1.0  0.09480  0.22030  0.27880  1.0000
  H   H112      1.0  0.44637  0.20783  0.61213  1.0000
  H   H113      1.0  0.79217  0.23853  0.61213  1.0000
  H   H114      1.0  0.76147  0.55363  0.61213  1.0000
  H   H115      1.0  0.11303  0.54117  0.94547  1.0000
  H   H116      1.0  0.45883  0.57187  0.94547  1.0000
  H   H117      1.0  0.42813  0.88697  0.94547  1.0000
  H   H118      1.0  0.22030  0.12550  0.72120  1.0000
  H   H119      1.0  0.87450  0.09480  0.72120  1.0000
  H   H120      1.0  0.90520  0.77970  0.72120  1.0000
  H   H121      1.0  0.55363  0.79217  0.38787  1.0000
  H   H122      1.0  0.20783  0.76147  0.38787  1.0000
  H   H123      1.0  0.23853  0.44637  0.38787  1.0000
  H   H124      1.0  0.88697  0.45883  0.05453  1.0000
  H   H125      1.0  0.54117  0.42813  0.05453  1.0000
  H   H126      1.0  0.57187  0.11303  0.05453  1.0000
  C   C199      1.0  0.66950  0.83390  0.26935  1.0000
  C   C200      1.0  0.16610  0.83560  0.26935  1.0000
  C   C201      1.0  0.16440  0.33050  0.26935  1.0000
  C   C202      1.0  0.33617  0.16723  0.60268  1.0000
  C   C203      1.0  0.83277  0.16893  0.60268  1.0000
  C   C204      1.0  0.83107  0.66383  0.60268  1.0000
  C   C205      1.0  0.00283  0.50057  0.93602  1.0000
  C   C206      1.0  0.49943  0.50227  0.93602  1.0000
  C   C207      1.0  0.49773  0.99717  0.93602  1.0000
  C   C208      1.0  0.33050  0.16610  0.73065  1.0000
  C   C209      1.0  0.83390  0.16440  0.73065  1.0000
  C   C210      1.0  0.83560  0.66950  0.73065  1.0000
  C   C211      1.0  0.66383  0.83277  0.39732  1.0000
  C   C212      1.0  0.16723  0.83107  0.39732  1.0000
  C   C213      1.0  0.16893  0.33617  0.39732  1.0000
  C   C214      1.0  0.99717  0.49943  0.06398  1.0000
  C   C215      1.0  0.50057  0.49773  0.06398  1.0000
  C   C216      1.0  0.50227  0.00283  0.06398  1.0000
  H   H127      1.0  0.65140  0.82480  0.28570  1.0000
  H   H128      1.0  0.17520  0.82660  0.28570  1.0000
  H   H129      1.0  0.17340  0.34860  0.28570  1.0000
  H   H130      1.0  0.31807  0.15813  0.61903  1.0000
  H   H131      1.0  0.84187  0.15993  0.61903  1.0000
  H   H132      1.0  0.84007  0.68193  0.61903  1.0000
  H   H133      1.0  0.98473  0.49147  0.95237  1.0000
  H   H134      1.0  0.50853  0.49327  0.95237  1.0000
  H   H135      1.0  0.50673  0.01527  0.95237  1.0000
  H   H136      1.0  0.34860  0.17520  0.71430  1.0000
  H   H137      1.0  0.82480  0.17340  0.71430  1.0000
  H   H138      1.0  0.82660  0.65140  0.71430  1.0000
  H   H139      1.0  0.68193  0.84187  0.38097  1.0000
  H   H140      1.0  0.15813  0.84007  0.38097  1.0000
  H   H141      1.0  0.15993  0.31807  0.38097  1.0000
  H   H142      1.0  0.01527  0.50853  0.04763  1.0000
  H   H143      1.0  0.49147  0.50673  0.04763  1.0000
  H   H144      1.0  0.49327  0.98473  0.04763  1.0000
  C   C217      1.0  0.61330  0.81520  0.25035  1.0000
  C   C218      1.0  0.18480  0.79810  0.25035  1.0000
  C   C219      1.0  0.20190  0.38670  0.25035  1.0000
  C   C220      1.0  0.27997  0.14853  0.58368  1.0000
  C   C221      1.0  0.85147  0.13143  0.58368  1.0000
  C   C222      1.0  0.86857  0.72003  0.58368  1.0000
  C   C223      1.0  0.94663  0.48187  0.91702  1.0000
  C   C224      1.0  0.51813  0.46477  0.91702  1.0000
  C   C225      1.0  0.53523  0.05337  0.91702  1.0000
  C   C226      1.0  0.38670  0.18480  0.74965  1.0000
  C   C227      1.0  0.81520  0.20190  0.74965  1.0000
  C   C228      1.0  0.79810  0.61330  0.74965  1.0000
  C   C229      1.0  0.72003  0.85147  0.41632  1.0000
  C   C230      1.0  0.14853  0.86857  0.41632  1.0000
  C   C231      1.0  0.13143  0.27997  0.41632  1.0000
  C   C232      1.0  0.05337  0.51813  0.08298  1.0000
  C   C233      1.0  0.48187  0.53523  0.08298  1.0000
  C   C234      1.0  0.46477  0.94663  0.08298  1.0000
  H   H145      1.0  0.55910  0.79350  0.25390  1.0000
  H   H146      1.0  0.20650  0.76560  0.25390  1.0000
  H   H147      1.0  0.23440  0.44090  0.25390  1.0000
  H   H148      1.0  0.22577  0.12683  0.58723  1.0000
  H   H149      1.0  0.87317  0.09893  0.58723  1.0000
  H   H150      1.0  0.90107  0.77423  0.58723  1.0000
  H   H151      1.0  0.89243  0.46017  0.92057  1.0000
  H   H152      1.0  0.53983  0.43227  0.92057  1.0000
  H   H153      1.0  0.56773  0.10757  0.92057  1.0000
  H   H154      1.0  0.44090  0.20650  0.74610  1.0000
  H   H155      1.0  0.79350  0.23440  0.74610  1.0000
  H   H156      1.0  0.76560  0.55910  0.74610  1.0000
  H   H157      1.0  0.77423  0.87317  0.41277  1.0000
  H   H158      1.0  0.12683  0.90107  0.41277  1.0000
  H   H159      1.0  0.09893  0.22577  0.41277  1.0000
  H   H160      1.0  0.10757  0.53983  0.07943  1.0000
  H   H161      1.0  0.46017  0.56773  0.07943  1.0000
  H   H162      1.0  0.43227  0.89243  0.07943  1.0000
  C   C235      1.0  0.64120  0.83010  0.22616  1.0000
  C   C236      1.0  0.16990  0.81110  0.22616  1.0000
  C   C237      1.0  0.18890  0.35880  0.22616  1.0000
  C   C238      1.0  0.30787  0.16343  0.55949  1.0000
  C   C239      1.0  0.83657  0.14443  0.55949  1.0000
  C   C240      1.0  0.85557  0.69213  0.55949  1.0000
  C   C241      1.0  0.97453  0.49677  0.89283  1.0000
  C   C242      1.0  0.50323  0.47777  0.89283  1.0000
  C   C243      1.0  0.52223  0.02547  0.89283  1.0000
  C   C244      1.0  0.35880  0.16990  0.77384  1.0000
  C   C245      1.0  0.83010  0.18890  0.77384  1.0000
  C   C246      1.0  0.81110  0.64120  0.77384  1.0000
  C   C247      1.0  0.69213  0.83657  0.44051  1.0000
  C   C248      1.0  0.16343  0.85557  0.44051  1.0000
  C   C249      1.0  0.14443  0.30787  0.44051  1.0000
  C   C250      1.0  0.02547  0.50323  0.10717  1.0000
  C   C251      1.0  0.49677  0.52223  0.10717  1.0000
  C   C252      1.0  0.47777  0.97453  0.10717  1.0000
  H   H163      1.0  0.60640  0.81970  0.21290  1.0000
  H   H164      1.0  0.18030  0.78670  0.21290  1.0000
  H   H165      1.0  0.21330  0.39360  0.21290  1.0000
  H   H166      1.0  0.27307  0.15303  0.54623  1.0000
  H   H167      1.0  0.84697  0.12003  0.54623  1.0000
  H   H168      1.0  0.87997  0.72693  0.54623  1.0000
  H   H169      1.0  0.93973  0.48637  0.87957  1.0000
  H   H170      1.0  0.51363  0.45337  0.87957  1.0000
  H   H171      1.0  0.54663  0.06027  0.87957  1.0000
  H   H172      1.0  0.39360  0.18030  0.78710  1.0000
  H   H173      1.0  0.81970  0.21330  0.78710  1.0000
  H   H174      1.0  0.78670  0.60640  0.78710  1.0000
  H   H175      1.0  0.72693  0.84697  0.45377  1.0000
  H   H176      1.0  0.15303  0.87997  0.45377  1.0000
  H   H177      1.0  0.12003  0.27307  0.45377  1.0000
  H   H178      1.0  0.06027  0.51363  0.12043  1.0000
  H   H179      1.0  0.48637  0.54663  0.12043  1.0000
  H   H180      1.0  0.45337  0.93973  0.12043  1.0000
  O   O73       1.0  0.63486  0.81093  0.03175  1.0000
  O   O74       1.0  0.18907  0.82393  0.03175  1.0000
  O   O75       1.0  0.17607  0.36514  0.03175  1.0000
  O   O76       1.0  0.30153  0.14426  0.36508  1.0000
  O   O77       1.0  0.85574  0.15726  0.36508  1.0000
  O   O78       1.0  0.84274  0.69847  0.36508  1.0000
  O   O79       1.0  0.96819  0.47760  0.69842  1.0000
  O   O80       1.0  0.52240  0.49060  0.69842  1.0000
  O   O81       1.0  0.50940  0.03181  0.69842  1.0000
  O   O82       1.0  0.36514  0.18907  0.96825  1.0000
  O   O83       1.0  0.81093  0.17607  0.96825  1.0000
  O   O84       1.0  0.82393  0.63486  0.96825  1.0000
  O   O85       1.0  0.69847  0.85574  0.63492  1.0000
  O   O86       1.0  0.14426  0.84274  0.63492  1.0000
  O   O87       1.0  0.15726  0.30153  0.63492  1.0000
  O   O88       1.0  0.03181  0.52240  0.30158  1.0000
  O   O89       1.0  0.47760  0.50940  0.30158  1.0000
  O   O90       1.0  0.49060  0.96819  0.30158  1.0000
  O   O91       1.0  0.49006  0.71684  0.04529  1.0000
  O   O92       1.0  0.28316  0.77322  0.04529  1.0000
  O   O93       1.0  0.22678  0.50994  0.04529  1.0000
  O   O94       1.0  0.15673  0.05017  0.37862  1.0000
  O   O95       1.0  0.94983  0.10655  0.37862  1.0000
  O   O96       1.0  0.89345  0.84327  0.37862  1.0000
  O   O97       1.0  0.82339  0.38351  0.71196  1.0000
  O   O98       1.0  0.61649  0.43989  0.71196  1.0000
  O   O99       1.0  0.56011  0.17661  0.71196  1.0000
  O   O100      1.0  0.50994  0.28316  0.95471  1.0000
  O   O101      1.0  0.71684  0.22678  0.95471  1.0000
  O   O102      1.0  0.77322  0.49006  0.95471  1.0000
  O   O103      1.0  0.84327  0.94983  0.62138  1.0000
  O   O104      1.0  0.05017  0.89345  0.62138  1.0000
  O   O105      1.0  0.10655  0.15673  0.62138  1.0000
  O   O106      1.0  0.17661  0.61649  0.28804  1.0000
  O   O107      1.0  0.38351  0.56011  0.28804  1.0000
  O   O108      1.0  0.43989  0.82339  0.28804  1.0000
  O   O109      1.0  0.45751  0.73430  0.08267  1.0000
  O   O110      1.0  0.26570  0.72321  0.08267  1.0000
  O   O111      1.0  0.27679  0.54249  0.08267  1.0000
  O   O112      1.0  0.12418  0.06763  0.41600  1.0000
  O   O113      1.0  0.93237  0.05654  0.41600  1.0000
  O   O114      1.0  0.94346  0.87582  0.41600  1.0000
  O   O115      1.0  0.79084  0.40097  0.74934  1.0000
  O   O116      1.0  0.59903  0.38988  0.74934  1.0000
  O   O117      1.0  0.61012  0.20916  0.74934  1.0000
  O   O118      1.0  0.54249  0.26570  0.91733  1.0000
  O   O119      1.0  0.73430  0.27679  0.91733  1.0000
  O   O120      1.0  0.72321  0.45751  0.91733  1.0000
  O   O121      1.0  0.87582  0.93237  0.58400  1.0000
  O   O122      1.0  0.06763  0.94346  0.58400  1.0000
  O   O123      1.0  0.05654  0.12418  0.58400  1.0000
  O   O124      1.0  0.20916  0.59903  0.25066  1.0000
  O   O125      1.0  0.40097  0.61012  0.25066  1.0000
  O   O126      1.0  0.38988  0.79084  0.25066  1.0000
  O   O127      1.0  0.70434  0.84446  0.13040  1.0000
  O   O128      1.0  0.15554  0.85988  0.13040  1.0000
  O   O129      1.0  0.14012  0.29566  0.13040  1.0000
  O   O130      1.0  0.37101  0.17779  0.46373  1.0000
  O   O131      1.0  0.82221  0.19321  0.46373  1.0000
  O   O132      1.0  0.80679  0.62899  0.46373  1.0000
  O   O133      1.0  0.03767  0.51113  0.79707  1.0000
  O   O134      1.0  0.48887  0.52655  0.79707  1.0000
  O   O135      1.0  0.47345  0.96233  0.79707  1.0000
  O   O136      1.0  0.29566  0.15554  0.86960  1.0000
  O   O137      1.0  0.84446  0.14012  0.86960  1.0000
  O   O138      1.0  0.85988  0.70434  0.86960  1.0000
  O   O139      1.0  0.62899  0.82221  0.53627  1.0000
  O   O140      1.0  0.17779  0.80679  0.53627  1.0000
  O   O141      1.0  0.19321  0.37101  0.53627  1.0000
  O   O142      1.0  0.96233  0.48887  0.20293  1.0000
  O   O143      1.0  0.51113  0.47345  0.20293  1.0000
  O   O144      1.0  0.52655  0.03767  0.20293  1.0000
  O   O145      1.0  0.84843  0.88411  0.11726  1.0000
  O   O146      1.0  0.11589  0.96432  0.11726  1.0000
  O   O147      1.0  0.03568  0.15157  0.11726  1.0000
  O   O148      1.0  0.51510  0.21744  0.45059  1.0000
  O   O149      1.0  0.78256  0.29765  0.45059  1.0000
  O   O150      1.0  0.70235  0.48490  0.45059  1.0000
  O   O151      1.0  0.18176  0.55078  0.78393  1.0000
  O   O152      1.0  0.44922  0.63099  0.78393  1.0000
  O   O153      1.0  0.36901  0.81824  0.78393  1.0000
  O   O154      1.0  0.15157  0.11589  0.88274  1.0000
  O   O155      1.0  0.88411  0.03568  0.88274  1.0000
  O   O156      1.0  0.96432  0.84843  0.88274  1.0000
  O   O157      1.0  0.48490  0.78256  0.54941  1.0000
  O   O158      1.0  0.21744  0.70235  0.54941  1.0000
  O   O159      1.0  0.29765  0.51510  0.54941  1.0000
  O   O160      1.0  0.81824  0.44922  0.21607  1.0000
  O   O161      1.0  0.55078  0.36901  0.21607  1.0000
  O   O162      1.0  0.63099  0.18176  0.21607  1.0000
  O   O163      1.0  0.88270  0.90720  0.07856  1.0000
  O   O164      1.0  0.09280  0.97550  0.07856  1.0000
  O   O165      1.0  0.02450  0.11730  0.07856  1.0000
  O   O166      1.0  0.54937  0.24053  0.41189  1.0000
  O   O167      1.0  0.75947  0.30883  0.41189  1.0000
  O   O168      1.0  0.69117  0.45063  0.41189  1.0000
  O   O169      1.0  0.21603  0.57387  0.74523  1.0000
  O   O170      1.0  0.42613  0.64217  0.74523  1.0000
  O   O171      1.0  0.35783  0.78397  0.74523  1.0000
  O   O172      1.0  0.11730  0.09280  0.92144  1.0000
  O   O173      1.0  0.90720  0.02450  0.92144  1.0000
  O   O174      1.0  0.97550  0.88270  0.92144  1.0000
  O   O175      1.0  0.45063  0.75947  0.58811  1.0000
  O   O176      1.0  0.24053  0.69117  0.58811  1.0000
  O   O177      1.0  0.30883  0.54937  0.58811  1.0000
  O   O178      1.0  0.78397  0.42613  0.25477  1.0000
  O   O179      1.0  0.57387  0.35783  0.25477  1.0000
  O   O180      1.0  0.64217  0.21603  0.25477  1.0000
  C   C253      1.0  0.65044  0.81445  0.05556  1.0000
  C   C254      1.0  0.18555  0.83599  0.05556  1.0000
  C   C255      1.0  0.16401  0.34956  0.05556  1.0000
  C   C256      1.0  0.31711  0.14778  0.38889  1.0000
  C   C257      1.0  0.85222  0.16932  0.38889  1.0000
  C   C258      1.0  0.83068  0.68289  0.38889  1.0000
  C   C259      1.0  0.98377  0.48112  0.72223  1.0000
  C   C260      1.0  0.51888  0.50266  0.72223  1.0000
  C   C261      1.0  0.49734  0.01623  0.72223  1.0000
  C   C262      1.0  0.34956  0.18555  0.94444  1.0000
  C   C263      1.0  0.81445  0.16401  0.94444  1.0000
  C   C264      1.0  0.83599  0.65044  0.94444  1.0000
  C   C265      1.0  0.68289  0.85222  0.61111  1.0000
  C   C266      1.0  0.14778  0.83068  0.61111  1.0000
  C   C267      1.0  0.16932  0.31711  0.61111  1.0000
  C   C268      1.0  0.01623  0.51888  0.27777  1.0000
  C   C269      1.0  0.48112  0.49734  0.27777  1.0000
  C   C270      1.0  0.50266  0.98377  0.27777  1.0000
  C   C271      1.0  0.59228  0.78780  0.07352  1.0000
  C   C272      1.0  0.21220  0.80448  0.07352  1.0000
  C   C273      1.0  0.19552  0.40772  0.07352  1.0000
  C   C274      1.0  0.25895  0.12113  0.40685  1.0000
  C   C275      1.0  0.87887  0.13781  0.40685  1.0000
  C   C276      1.0  0.86219  0.74105  0.40685  1.0000
  C   C277      1.0  0.92561  0.45447  0.74019  1.0000
  C   C278      1.0  0.54553  0.47115  0.74019  1.0000
  C   C279      1.0  0.52885  0.07439  0.74019  1.0000
  C   C280      1.0  0.40772  0.21220  0.92648  1.0000
  C   C281      1.0  0.78780  0.19552  0.92648  1.0000
  C   C282      1.0  0.80448  0.59228  0.92648  1.0000
  C   C283      1.0  0.74105  0.87887  0.59315  1.0000
  C   C284      1.0  0.12113  0.86219  0.59315  1.0000
  C   C285      1.0  0.13781  0.25895  0.59315  1.0000
  C   C286      1.0  0.07439  0.54553  0.25981  1.0000
  C   C287      1.0  0.45447  0.52885  0.25981  1.0000
  C   C288      1.0  0.47115  0.92561  0.25981  1.0000
  C   C289      1.0  0.61173  0.79860  0.09832  1.0000
  C   C290      1.0  0.20140  0.81313  0.09832  1.0000
  C   C291      1.0  0.18687  0.38827  0.09832  1.0000
  C   C292      1.0  0.27840  0.13193  0.43165  1.0000
  C   C293      1.0  0.86807  0.14646  0.43165  1.0000
  C   C294      1.0  0.85354  0.72160  0.43165  1.0000
  C   C295      1.0  0.94506  0.46527  0.76499  1.0000
  C   C296      1.0  0.53473  0.47980  0.76499  1.0000
  C   C297      1.0  0.52020  0.05494  0.76499  1.0000
  C   C298      1.0  0.38827  0.20140  0.90168  1.0000
  C   C299      1.0  0.79860  0.18687  0.90168  1.0000
  C   C300      1.0  0.81313  0.61173  0.90168  1.0000
  C   C301      1.0  0.72160  0.86807  0.56835  1.0000
  C   C302      1.0  0.13193  0.85354  0.56835  1.0000
  C   C303      1.0  0.14646  0.27840  0.56835  1.0000
  C   C304      1.0  0.05494  0.53473  0.23501  1.0000
  C   C305      1.0  0.46527  0.52020  0.23501  1.0000
  C   C306      1.0  0.47980  0.94506  0.23501  1.0000
  H   H181      1.0  0.57090  0.78150  0.11010  1.0000
  H   H182      1.0  0.21850  0.78940  0.11010  1.0000
  H   H183      1.0  0.21060  0.42910  0.11010  1.0000
  H   H184      1.0  0.23757  0.11483  0.44343  1.0000
  H   H185      1.0  0.88517  0.12273  0.44343  1.0000
  H   H186      1.0  0.87727  0.76243  0.44343  1.0000
  H   H187      1.0  0.90423  0.44817  0.77677  1.0000
  H   H188      1.0  0.55183  0.45607  0.77677  1.0000
  H   H189      1.0  0.54393  0.09577  0.77677  1.0000
  H   H190      1.0  0.42910  0.21850  0.88990  1.0000
  H   H191      1.0  0.78150  0.21060  0.88990  1.0000
  H   H192      1.0  0.78940  0.57090  0.88990  1.0000
  H   H193      1.0  0.76243  0.88517  0.55657  1.0000
  H   H194      1.0  0.11483  0.87727  0.55657  1.0000
  H   H195      1.0  0.12273  0.23757  0.55657  1.0000
  H   H196      1.0  0.09577  0.55183  0.22323  1.0000
  H   H197      1.0  0.44817  0.54393  0.22323  1.0000
  H   H198      1.0  0.45607  0.90423  0.22323  1.0000
  C   C307      1.0  0.68937  0.83378  0.10630  1.0000
  C   C308      1.0  0.16622  0.85559  0.10630  1.0000
  C   C309      1.0  0.14441  0.31063  0.10630  1.0000
  C   C310      1.0  0.35604  0.16711  0.43963  1.0000
  C   C311      1.0  0.83289  0.18892  0.43963  1.0000
  C   C312      1.0  0.81108  0.64396  0.43963  1.0000
  C   C313      1.0  0.02270  0.50045  0.77297  1.0000
  C   C314      1.0  0.49955  0.52226  0.77297  1.0000
  C   C315      1.0  0.47774  0.97730  0.77297  1.0000
  C   C316      1.0  0.31063  0.16622  0.89370  1.0000
  C   C317      1.0  0.83378  0.14441  0.89370  1.0000
  C   C318      1.0  0.85559  0.68937  0.89370  1.0000
  C   C319      1.0  0.64396  0.83289  0.56037  1.0000
  C   C320      1.0  0.16711  0.81108  0.56037  1.0000
  C   C321      1.0  0.18892  0.35604  0.56037  1.0000
  C   C322      1.0  0.97730  0.49955  0.22703  1.0000
  C   C323      1.0  0.50045  0.47774  0.22703  1.0000
  C   C324      1.0  0.52226  0.02270  0.22703  1.0000
  C   C325      1.0  0.74800  0.85582  0.08811  1.0000
  C   C326      1.0  0.14418  0.89218  0.08811  1.0000
  C   C327      1.0  0.10782  0.25200  0.08811  1.0000
  C   C328      1.0  0.41467  0.18915  0.42144  1.0000
  C   C329      1.0  0.81085  0.22551  0.42144  1.0000
  C   C330      1.0  0.77449  0.58533  0.42144  1.0000
  C   C331      1.0  0.08133  0.52249  0.75478  1.0000
  C   C332      1.0  0.47751  0.55885  0.75478  1.0000
  C   C333      1.0  0.44115  0.91867  0.75478  1.0000
  C   C334      1.0  0.25200  0.14418  0.91189  1.0000
  C   C335      1.0  0.85582  0.10782  0.91189  1.0000
  C   C336      1.0  0.89218  0.74800  0.91189  1.0000
  C   C337      1.0  0.58533  0.81085  0.57856  1.0000
  C   C338      1.0  0.18915  0.77449  0.57856  1.0000
  C   C339      1.0  0.22551  0.41467  0.57856  1.0000
  C   C340      1.0  0.91867  0.47751  0.24522  1.0000
  C   C341      1.0  0.52249  0.44115  0.24522  1.0000
  C   C342      1.0  0.55885  0.08133  0.24522  1.0000
  C   C343      1.0  0.72813  0.84723  0.06306  1.0000
  C   C344      1.0  0.15277  0.88090  0.06306  1.0000
  C   C345      1.0  0.11910  0.27187  0.06306  1.0000
  C   C346      1.0  0.39480  0.18056  0.39639  1.0000
  C   C347      1.0  0.81944  0.21423  0.39639  1.0000
  C   C348      1.0  0.78577  0.60520  0.39639  1.0000
  C   C349      1.0  0.06146  0.51390  0.72973  1.0000
  C   C350      1.0  0.48610  0.54757  0.72973  1.0000
  C   C351      1.0  0.45243  0.93854  0.72973  1.0000
  C   C352      1.0  0.27187  0.15277  0.93694  1.0000
  C   C353      1.0  0.84723  0.11910  0.93694  1.0000
  C   C354      1.0  0.88090  0.72813  0.93694  1.0000
  C   C355      1.0  0.60520  0.81944  0.60361  1.0000
  C   C356      1.0  0.18056  0.78577  0.60361  1.0000
  C   C357      1.0  0.21423  0.39480  0.60361  1.0000
  C   C358      1.0  0.93854  0.48610  0.27027  1.0000
  C   C359      1.0  0.51390  0.45243  0.27027  1.0000
  C   C360      1.0  0.54757  0.06146  0.27027  1.0000
  H   H199      1.0  0.76850  0.86410  0.05120  1.0000
  H   H200      1.0  0.13590  0.90440  0.05120  1.0000
  H   H201      1.0  0.09560  0.23150  0.05120  1.0000
  H   H202      1.0  0.43517  0.19743  0.38453  1.0000
  H   H203      1.0  0.80257  0.23773  0.38453  1.0000
  H   H204      1.0  0.76227  0.56483  0.38453  1.0000
  H   H205      1.0  0.10183  0.53077  0.71787  1.0000
  H   H206      1.0  0.46923  0.57107  0.71787  1.0000
  H   H207      1.0  0.42893  0.89817  0.71787  1.0000
  H   H208      1.0  0.23150  0.13590  0.94880  1.0000
  H   H209      1.0  0.86410  0.09560  0.94880  1.0000
  H   H210      1.0  0.90440  0.76850  0.94880  1.0000
  H   H211      1.0  0.56483  0.80257  0.61547  1.0000
  H   H212      1.0  0.19743  0.76227  0.61547  1.0000
  H   H213      1.0  0.23773  0.43517  0.61547  1.0000
  H   H214      1.0  0.89817  0.46923  0.28213  1.0000
  H   H215      1.0  0.53077  0.42893  0.28213  1.0000
  H   H216      1.0  0.57107  0.10183  0.28213  1.0000
  C   C361      1.0  0.50810  0.74400  0.06738  1.0000
  C   C362      1.0  0.25600  0.76410  0.06738  1.0000
  C   C363      1.0  0.23590  0.49190  0.06738  1.0000
  C   C364      1.0  0.17477  0.07733  0.40071  1.0000
  C   C365      1.0  0.92267  0.09743  0.40071  1.0000
  C   C366      1.0  0.90257  0.82523  0.40071  1.0000
  C   C367      1.0  0.84143  0.41067  0.73405  1.0000
  C   C368      1.0  0.58933  0.43077  0.73405  1.0000
  C   C369      1.0  0.56923  0.15857  0.73405  1.0000
  C   C370      1.0  0.49190  0.25600  0.93262  1.0000
  C   C371      1.0  0.74400  0.23590  0.93262  1.0000
  C   C372      1.0  0.76410  0.50810  0.93262  1.0000
  C   C373      1.0  0.82523  0.92267  0.59929  1.0000
  C   C374      1.0  0.07733  0.90257  0.59929  1.0000
  C   C375      1.0  0.09743  0.17477  0.59929  1.0000
  C   C376      1.0  0.15857  0.58933  0.26595  1.0000
  C   C377      1.0  0.41067  0.56923  0.26595  1.0000
  C   C378      1.0  0.43077  0.84143  0.26595  1.0000
  C   C379      1.0  0.83080  0.88430  0.09434  1.0000
  C   C380      1.0  0.11570  0.94650  0.09434  1.0000
  C   C381      1.0  0.05350  0.16920  0.09434  1.0000
  C   C382      1.0  0.49747  0.21763  0.42767  1.0000
  C   C383      1.0  0.78237  0.27983  0.42767  1.0000
  C   C384      1.0  0.72017  0.50253  0.42767  1.0000
  C   C385      1.0  0.16413  0.55097  0.76101  1.0000
  C   C386      1.0  0.44903  0.61317  0.76101  1.0000
  C   C387      1.0  0.38683  0.83587  0.76101  1.0000
  C   C388      1.0  0.16920  0.11570  0.90566  1.0000
  C   C389      1.0  0.88430  0.05350  0.90566  1.0000
  C   C390      1.0  0.94650  0.83080  0.90566  1.0000
  C   C391      1.0  0.50253  0.78237  0.57233  1.0000
  C   C392      1.0  0.21763  0.72017  0.57233  1.0000
  C   C393      1.0  0.27983  0.49747  0.57233  1.0000
  C   C394      1.0  0.83587  0.44903  0.23899  1.0000
  C   C395      1.0  0.55097  0.38683  0.23899  1.0000
  C   C396      1.0  0.61317  0.16413  0.23899  1.0000
  O   O181      1.0  0.57024  0.65955  0.00773  1.0000
  O   O182      1.0  0.34045  0.91069  0.00773  1.0000
  O   O183      1.0  0.08931  0.42976  0.00773  1.0000
  O   O184      1.0  0.23691  0.99288  0.34106  1.0000
  O   O185      1.0  0.00712  0.24402  0.34106  1.0000
  O   O186      1.0  0.75598  0.76309  0.34106  1.0000
  O   O187      1.0  0.90357  0.32622  0.67440  1.0000
  O   O188      1.0  0.67378  0.57736  0.67440  1.0000
  O   O189      1.0  0.42264  0.09643  0.67440  1.0000
  O   O190      1.0  0.42976  0.34045  0.99227  1.0000
  O   O191      1.0  0.65955  0.08931  0.99227  1.0000
  O   O192      1.0  0.91069  0.57024  0.99227  1.0000
  O   O193      1.0  0.76309  0.00712  0.65894  1.0000
  O   O194      1.0  0.99288  0.75598  0.65894  1.0000
  O   O195      1.0  0.24402  0.23691  0.65894  1.0000
  O   O196      1.0  0.09643  0.67378  0.32560  1.0000
  O   O197      1.0  0.32622  0.42264  0.32560  1.0000
  O   O198      1.0  0.57736  0.90357  0.32560  1.0000
  O   O199      1.0  0.67443  0.48288  0.99319  1.0000
  O   O200      1.0  0.51712  0.19155  0.99319  1.0000
  O   O201      1.0  0.80845  0.32557  0.99319  1.0000
  O   O202      1.0  0.34110  0.81621  0.32652  1.0000
  O   O203      1.0  0.18379  0.52488  0.32652  1.0000
  O   O204      1.0  0.47512  0.65890  0.32652  1.0000
  O   O205      1.0  0.00776  0.14955  0.65986  1.0000
  O   O206      1.0  0.85045  0.85822  0.65986  1.0000
  O   O207      1.0  0.14178  0.99224  0.65986  1.0000
  O   O208      1.0  0.32557  0.51712  0.00681  1.0000
  O   O209      1.0  0.48288  0.80845  0.00681  1.0000
  O   O210      1.0  0.19155  0.67443  0.00681  1.0000
  O   O211      1.0  0.65890  0.18379  0.67348  1.0000
  O   O212      1.0  0.81621  0.47512  0.67348  1.0000
  O   O213      1.0  0.52488  0.34110  0.67348  1.0000
  O   O214      1.0  0.99224  0.85045  0.34014  1.0000
  O   O215      1.0  0.14955  0.14178  0.34014  1.0000
  O   O216      1.0  0.85822  0.00776  0.34014  1.0000
  O   O217      1.0  0.57598  0.36179  0.99415  1.0000
  O   O218      1.0  0.63821  0.21419  0.99415  1.0000
  O   O219      1.0  0.78581  0.42402  0.99415  1.0000
  O   O220      1.0  0.24265  0.69512  0.32748  1.0000
  O   O221      1.0  0.30488  0.54752  0.32748  1.0000
  O   O222      1.0  0.45248  0.75735  0.32748  1.0000
  O   O223      1.0  0.90931  0.02846  0.66082  1.0000
  O   O224      1.0  0.97154  0.88086  0.66082  1.0000
  O   O225      1.0  0.11914  0.09069  0.66082  1.0000
  O   O226      1.0  0.42402  0.63821  0.00585  1.0000
  O   O227      1.0  0.36179  0.78581  0.00585  1.0000
  O   O228      1.0  0.21419  0.57598  0.00585  1.0000
  O   O229      1.0  0.75735  0.30488  0.67252  1.0000
  O   O230      1.0  0.69512  0.45248  0.67252  1.0000
  O   O231      1.0  0.54752  0.24265  0.67252  1.0000
  O   O232      1.0  0.09069  0.97154  0.33918  1.0000
  O   O233      1.0  0.02846  0.11914  0.33918  1.0000
  O   O234      1.0  0.88086  0.90931  0.33918  1.0000
  C   C397      1.0  0.53479  0.58242  0.00360  1.0000
  C   C398      1.0  0.41758  0.95237  0.00360  1.0000
  C   C399      1.0  0.04763  0.46521  0.00360  1.0000
  C   C400      1.0  0.20146  0.91575  0.33693  1.0000
  C   C401      1.0  0.08425  0.28570  0.33693  1.0000
  C   C402      1.0  0.71430  0.79854  0.33693  1.0000
  C   C403      1.0  0.86812  0.24909  0.67027  1.0000
  C   C404      1.0  0.75091  0.61904  0.67027  1.0000
  C   C405      1.0  0.38096  0.13188  0.67027  1.0000
  C   C406      1.0  0.46521  0.41758  0.99640  1.0000
  C   C407      1.0  0.58242  0.04763  0.99640  1.0000
  C   C408      1.0  0.95237  0.53479  0.99640  1.0000
  C   C409      1.0  0.79854  0.08425  0.66307  1.0000
  C   C410      1.0  0.91575  0.71430  0.66307  1.0000
  C   C411      1.0  0.28570  0.20146  0.66307  1.0000
  C   C412      1.0  0.13188  0.75091  0.32973  1.0000
  C   C413      1.0  0.24909  0.38096  0.32973  1.0000
  C   C414      1.0  0.61904  0.86812  0.32973  1.0000
  C   C415      1.0  0.58085  0.54704  0.00087  1.0000
  C   C416      1.0  0.45296  0.03381  0.00087  1.0000
  C   C417      1.0  0.96619  0.41915  0.00087  1.0000
  C   C418      1.0  0.24752  0.88037  0.33420  1.0000
  C   C419      1.0  0.11963  0.36714  0.33420  1.0000
  C   C420      1.0  0.63286  0.75248  0.33420  1.0000
  C   C421      1.0  0.91418  0.21371  0.66754  1.0000
  C   C422      1.0  0.78629  0.70048  0.66754  1.0000
  C   C423      1.0  0.29952  0.08582  0.66754  1.0000
  C   C424      1.0  0.41915  0.45296  0.99913  1.0000
  C   C425      1.0  0.54704  0.96619  0.99913  1.0000
  C   C426      1.0  0.03381  0.58085  0.99913  1.0000
  C   C427      1.0  0.75248  0.11963  0.66580  1.0000
  C   C428      1.0  0.88037  0.63286  0.66580  1.0000
  C   C429      1.0  0.36714  0.24752  0.66580  1.0000
  C   C430      1.0  0.08582  0.78629  0.33246  1.0000
  C   C431      1.0  0.21371  0.29952  0.33246  1.0000
  C   C432      1.0  0.70048  0.91418  0.33246  1.0000
  H   H217      1.0  0.63640  0.57910  0.00140  1.0000
  H   H218      1.0  0.42090  0.05730  0.00140  1.0000
  H   H219      1.0  0.94270  0.36360  0.00140  1.0000
  H   H220      1.0  0.30307  0.91243  0.33473  1.0000
  H   H221      1.0  0.08757  0.39063  0.33473  1.0000
  H   H222      1.0  0.60937  0.69693  0.33473  1.0000
  H   H223      1.0  0.96973  0.24577  0.66807  1.0000
  H   H224      1.0  0.75423  0.72397  0.66807  1.0000
  H   H225      1.0  0.27603  0.03027  0.66807  1.0000
  H   H226      1.0  0.36360  0.42090  0.99860  1.0000
  H   H227      1.0  0.57910  0.94270  0.99860  1.0000
  H   H228      1.0  0.05730  0.63640  0.99860  1.0000
  H   H229      1.0  0.69693  0.08757  0.66527  1.0000
  H   H230      1.0  0.91243  0.60937  0.66527  1.0000
  H   H231      1.0  0.39063  0.30307  0.66527  1.0000
  H   H232      1.0  0.03027  0.75423  0.33193  1.0000
  H   H233      1.0  0.24577  0.27603  0.33193  1.0000
  H   H234      1.0  0.72397  0.96973  0.33193  1.0000
  C   C433      1.0  0.54827  0.46651  0.99746  1.0000
  C   C434      1.0  0.53349  0.08176  0.99746  1.0000
  C   C435      1.0  0.91824  0.45173  0.99746  1.0000
  C   C436      1.0  0.21494  0.79984  0.33079  1.0000
  C   C437      1.0  0.20016  0.41509  0.33079  1.0000
  C   C438      1.0  0.58491  0.78506  0.33079  1.0000
  C   C439      1.0  0.88160  0.13318  0.66413  1.0000
  C   C440      1.0  0.86682  0.74843  0.66413  1.0000
  C   C441      1.0  0.25157  0.11840  0.66413  1.0000
  C   C442      1.0  0.45173  0.53349  0.00254  1.0000
  C   C443      1.0  0.46651  0.91824  0.00254  1.0000
  C   C444      1.0  0.08176  0.54827  0.00254  1.0000
  C   C445      1.0  0.78506  0.20016  0.66921  1.0000
  C   C446      1.0  0.79984  0.58491  0.66921  1.0000
  C   C447      1.0  0.41509  0.21494  0.66921  1.0000
  C   C448      1.0  0.11840  0.86682  0.33587  1.0000
  C   C449      1.0  0.13318  0.25157  0.33587  1.0000
  C   C450      1.0  0.74843  0.88160  0.33587  1.0000
  C   C451      1.0  0.60200  0.43461  0.99490  1.0000
  C   C452      1.0  0.56539  0.16739  0.99490  1.0000
  C   C453      1.0  0.83261  0.39800  0.99490  1.0000
  C   C454      1.0  0.26867  0.76794  0.32823  1.0000
  C   C455      1.0  0.23206  0.50072  0.32823  1.0000
  C   C456      1.0  0.49928  0.73133  0.32823  1.0000
  C   C457      1.0  0.93533  0.10128  0.66157  1.0000
  C   C458      1.0  0.89872  0.83406  0.66157  1.0000
  C   C459      1.0  0.16594  0.06467  0.66157  1.0000
  C   C460      1.0  0.39800  0.56539  0.00510  1.0000
  C   C461      1.0  0.43461  0.83261  0.00510  1.0000
  C   C462      1.0  0.16739  0.60200  0.00510  1.0000
  C   C463      1.0  0.73133  0.23206  0.67177  1.0000
  C   C464      1.0  0.76794  0.49928  0.67177  1.0000
  C   C465      1.0  0.50072  0.26867  0.67177  1.0000
  C   C466      1.0  0.06467  0.89872  0.33843  1.0000
  C   C467      1.0  0.10128  0.16594  0.33843  1.0000
  C   C468      1.0  0.83406  0.93533  0.33843  1.0000
  O   O235      1.0  0.76511  0.75646  0.15713  1.0000
  O   O236      1.0  0.24354  0.00865  0.15713  1.0000
  O   O237      1.0  0.99135  0.23489  0.15713  1.0000
  O   O238      1.0  0.43178  0.08979  0.49046  1.0000
  O   O239      1.0  0.91021  0.34198  0.49046  1.0000
  O   O240      1.0  0.65802  0.56822  0.49046  1.0000
  O   O241      1.0  0.09844  0.42313  0.82380  1.0000
  O   O242      1.0  0.57687  0.67532  0.82380  1.0000
  O   O243      1.0  0.32468  0.90156  0.82380  1.0000
  O   O244      1.0  0.23489  0.24354  0.84287  1.0000
  O   O245      1.0  0.75646  0.99135  0.84287  1.0000
  O   O246      1.0  0.00865  0.76511  0.84287  1.0000
  O   O247      1.0  0.56822  0.91021  0.50954  1.0000
  O   O248      1.0  0.08979  0.65802  0.50954  1.0000
  O   O249      1.0  0.34198  0.43178  0.50954  1.0000
  O   O250      1.0  0.90156  0.57687  0.17620  1.0000
  O   O251      1.0  0.42313  0.32468  0.17620  1.0000
  O   O252      1.0  0.67532  0.09844  0.17620  1.0000
  O   O253      1.0  0.00755  0.85468  0.15367  1.0000
  O   O254      1.0  0.14532  0.15287  0.15367  1.0000
  O   O255      1.0  0.84713  0.99245  0.15367  1.0000
  O   O256      1.0  0.67422  0.18801  0.48700  1.0000
  O   O257      1.0  0.81199  0.48620  0.48700  1.0000
  O   O258      1.0  0.51380  0.32578  0.48700  1.0000
  O   O259      1.0  0.34088  0.52135  0.82034  1.0000
  O   O260      1.0  0.47865  0.81954  0.82034  1.0000
  O   O261      1.0  0.18046  0.65912  0.82034  1.0000
  O   O262      1.0  0.99245  0.14532  0.84633  1.0000
  O   O263      1.0  0.85468  0.84713  0.84633  1.0000
  O   O264      1.0  0.15287  0.00755  0.84633  1.0000
  O   O265      1.0  0.32578  0.81199  0.51300  1.0000
  O   O266      1.0  0.18801  0.51380  0.51300  1.0000
  O   O267      1.0  0.48620  0.67422  0.51300  1.0000
  O   O268      1.0  0.65912  0.47865  0.17966  1.0000
  O   O269      1.0  0.52135  0.18046  0.17966  1.0000
  O   O270      1.0  0.81954  0.34088  0.17966  1.0000
  O   O271      1.0  0.91213  0.88045  0.15778  1.0000
  O   O272      1.0  0.11955  0.03168  0.15778  1.0000
  O   O273      1.0  0.96832  0.08787  0.15778  1.0000
  O   O274      1.0  0.57880  0.21378  0.49111  1.0000
  O   O275      1.0  0.78622  0.36501  0.49111  1.0000
  O   O276      1.0  0.63499  0.42120  0.49111  1.0000
  O   O277      1.0  0.24546  0.54712  0.82445  1.0000
  O   O278      1.0  0.45288  0.69835  0.82445  1.0000
  O   O279      1.0  0.30165  0.75454  0.82445  1.0000
  O   O280      1.0  0.08787  0.11955  0.84222  1.0000
  O   O281      1.0  0.88045  0.96832  0.84222  1.0000
  O   O282      1.0  0.03168  0.91213  0.84222  1.0000
  O   O283      1.0  0.42120  0.78622  0.50889  1.0000
  O   O284      1.0  0.21378  0.63499  0.50889  1.0000
  O   O285      1.0  0.36501  0.57880  0.50889  1.0000
  O   O286      1.0  0.75454  0.45288  0.17555  1.0000
  O   O287      1.0  0.54712  0.30165  0.17555  1.0000
  O   O288      1.0  0.69835  0.24546  0.17555  1.0000
  C   C469      1.0  0.79961  0.71435  0.16210  1.0000
  C   C470      1.0  0.28565  0.08526  0.16210  1.0000
  C   C471      1.0  0.91474  0.20039  0.16210  1.0000
  C   C472      1.0  0.46628  0.04768  0.49543  1.0000
  C   C473      1.0  0.95232  0.41859  0.49543  1.0000
  C   C474      1.0  0.58141  0.53372  0.49543  1.0000
  C   C475      1.0  0.13294  0.38102  0.82877  1.0000
  C   C476      1.0  0.61898  0.75193  0.82877  1.0000
  C   C477      1.0  0.24807  0.86706  0.82877  1.0000
  C   C478      1.0  0.20039  0.28565  0.83790  1.0000
  C   C479      1.0  0.71435  0.91474  0.83790  1.0000
  C   C480      1.0  0.08526  0.79961  0.83790  1.0000
  C   C481      1.0  0.53372  0.95232  0.50457  1.0000
  C   C482      1.0  0.04768  0.58141  0.50457  1.0000
  C   C483      1.0  0.41859  0.46628  0.50457  1.0000
  C   C484      1.0  0.86706  0.61898  0.17123  1.0000
  C   C485      1.0  0.38102  0.24807  0.17123  1.0000
  C   C486      1.0  0.75193  0.13294  0.17123  1.0000
  C   C487      1.0  0.75258  0.63445  0.16726  1.0000
  C   C488      1.0  0.36555  0.11813  0.16726  1.0000
  C   C489      1.0  0.88187  0.24742  0.16726  1.0000
  C   C490      1.0  0.41925  0.96778  0.50059  1.0000
  C   C491      1.0  0.03222  0.45146  0.50059  1.0000
  C   C492      1.0  0.54854  0.58075  0.50059  1.0000
  C   C493      1.0  0.08591  0.30112  0.83393  1.0000
  C   C494      1.0  0.69888  0.78480  0.83393  1.0000
  C   C495      1.0  0.21520  0.91409  0.83393  1.0000
  C   C496      1.0  0.24742  0.36555  0.83274  1.0000
  C   C497      1.0  0.63445  0.88187  0.83274  1.0000
  C   C498      1.0  0.11813  0.75258  0.83274  1.0000
  C   C499      1.0  0.58075  0.03222  0.49941  1.0000
  C   C500      1.0  0.96778  0.54854  0.49941  1.0000
  C   C501      1.0  0.45146  0.41925  0.49941  1.0000
  C   C502      1.0  0.91409  0.69888  0.16607  1.0000
  C   C503      1.0  0.30112  0.21520  0.16607  1.0000
  C   C504      1.0  0.78480  0.08591  0.16607  1.0000
  H   H235      1.0  0.69720  0.61220  0.16790  1.0000
  H   H236      1.0  0.38780  0.08500  0.16790  1.0000
  H   H237      1.0  0.91500  0.30280  0.16790  1.0000
  H   H238      1.0  0.36387  0.94553  0.50123  1.0000
  H   H239      1.0  0.05447  0.41833  0.50123  1.0000
  H   H240      1.0  0.58167  0.63613  0.50123  1.0000
  H   H241      1.0  0.03053  0.27887  0.83457  1.0000
  H   H242      1.0  0.72113  0.75167  0.83457  1.0000
  H   H243      1.0  0.24833  0.96947  0.83457  1.0000
  H   H244      1.0  0.30280  0.38780  0.83210  1.0000
  H   H245      1.0  0.61220  0.91500  0.83210  1.0000
  H   H246      1.0  0.08500  0.69720  0.83210  1.0000
  H   H247      1.0  0.63613  0.05447  0.49877  1.0000
  H   H248      1.0  0.94553  0.58167  0.49877  1.0000
  H   H249      1.0  0.41833  0.36387  0.49877  1.0000
  H   H250      1.0  0.96947  0.72113  0.16543  1.0000
  H   H251      1.0  0.27887  0.24833  0.16543  1.0000
  H   H252      1.0  0.75167  0.03053  0.16543  1.0000
  C   C505      1.0  0.88180  0.74685  0.16190  1.0000
  C   C506      1.0  0.25315  0.13495  0.16190  1.0000
  C   C507      1.0  0.86505  0.11820  0.16190  1.0000
  C   C508      1.0  0.54847  0.08018  0.49523  1.0000
  C   C509      1.0  0.91982  0.46828  0.49523  1.0000
  C   C510      1.0  0.53172  0.45153  0.49523  1.0000
  C   C511      1.0  0.21513  0.41352  0.82857  1.0000
  C   C512      1.0  0.58648  0.80162  0.82857  1.0000
  C   C513      1.0  0.19838  0.78487  0.82857  1.0000
  C   C514      1.0  0.11820  0.25315  0.83810  1.0000
  C   C515      1.0  0.74685  0.86505  0.83810  1.0000
  C   C516      1.0  0.13495  0.88180  0.83810  1.0000
  C   C517      1.0  0.45153  0.91982  0.50477  1.0000
  C   C518      1.0  0.08018  0.53172  0.50477  1.0000
  C   C519      1.0  0.46828  0.54847  0.50477  1.0000
  C   C520      1.0  0.78487  0.58648  0.17143  1.0000
  C   C521      1.0  0.41352  0.19838  0.17143  1.0000
  C   C522      1.0  0.80162  0.21513  0.17143  1.0000
  C   C523      1.0  0.93634  0.83242  0.15727  1.0000
  C   C524      1.0  0.16758  0.10392  0.15727  1.0000
  C   C525      1.0  0.89608  0.06366  0.15727  1.0000
  C   C526      1.0  0.60301  0.16575  0.49060  1.0000
  C   C527      1.0  0.83425  0.43725  0.49060  1.0000
  C   C528      1.0  0.56275  0.39699  0.49060  1.0000
  C   C529      1.0  0.26967  0.49909  0.82394  1.0000
  C   C530      1.0  0.50091  0.77059  0.82394  1.0000
  C   C531      1.0  0.22941  0.73033  0.82394  1.0000
  C   C532      1.0  0.06366  0.16758  0.84273  1.0000
  C   C533      1.0  0.83242  0.89608  0.84273  1.0000
  C   C534      1.0  0.10392  0.93634  0.84273  1.0000
  C   C535      1.0  0.39699  0.83425  0.50940  1.0000
  C   C536      1.0  0.16575  0.56275  0.50940  1.0000
  C   C537      1.0  0.43725  0.60301  0.50940  1.0000
  C   C538      1.0  0.73033  0.50091  0.17606  1.0000
  C   C539      1.0  0.49909  0.22941  0.17606  1.0000
  C   C540      1.0  0.77059  0.26967  0.17606  1.0000
