data_image0
_chemical_formula_structural       U8O56C24H8
_chemical_formula_sum              "U8 O56 C24 H8"
_cell_length_a       10.526
_cell_length_b       9.358
_cell_length_c       20.044
_cell_angle_alpha    90
_cell_angle_beta     97.726
_cell_angle_gamma    90

_space_group_name_H-M_alt    "P 1"
_space_group_IT_number       1

loop_
  _space_group_symop_operation_xyz
  'x, y, z'

loop_
  _atom_site_type_symbol
  _atom_site_label
  _atom_site_symmetry_multiplicity
  _atom_site_fract_x
  _atom_site_fract_y
  _atom_site_fract_z
  _atom_site_occupancy
  U   U1        1.0  0.34470  0.77177  0.03000  1.0000
  U   U2        1.0  0.15530  0.27177  0.47000  1.0000
  U   U3        1.0  0.65530  0.22823  0.97000  1.0000
  U   U4        1.0  0.84470  0.72823  0.53000  1.0000
  U   U5        1.0  0.26346  0.76049  0.33496  1.0000
  U   U6        1.0  0.23654  0.26049  0.16504  1.0000
  U   U7        1.0  0.73654  0.23951  0.66504  1.0000
  U   U8        1.0  0.76346  0.73951  0.83496  1.0000
  O   O1        1.0  0.56980  0.74340  0.02030  1.0000
  O   O2        1.0  0.93020  0.24340  0.47970  1.0000
  O   O3        1.0  0.43020  0.25660  0.97970  1.0000
  O   O4        1.0  0.06980  0.75660  0.52030  1.0000
  O   O5        1.0  0.44380  0.74660  0.14520  1.0000
  O   O6        1.0  0.05620  0.24660  0.35480  1.0000
  O   O7        1.0  0.55620  0.25340  0.85480  1.0000
  O   O8        1.0  0.94380  0.75340  0.64520  1.0000
  O   O9        1.0  0.53700  0.73730  0.84500  1.0000
  O   O10       1.0  0.96300  0.23730  0.65500  1.0000
  O   O11       1.0  0.46300  0.26270  0.15500  1.0000
  O   O12       1.0  0.03700  0.76270  0.34500  1.0000
  O   O13       1.0  0.16370  0.77130  0.21980  1.0000
  O   O14       1.0  0.33630  0.27130  0.28020  1.0000
  O   O15       1.0  0.83630  0.22870  0.78020  1.0000
  O   O16       1.0  0.66370  0.72870  0.71980  1.0000
  O   O17       1.0  0.72030  0.73220  0.95100  1.0000
  O   O18       1.0  0.77970  0.23220  0.54900  1.0000
  O   O19       1.0  0.27970  0.26780  0.04900  1.0000
  O   O20       1.0  0.22030  0.76780  0.45100  1.0000
  O   O21       1.0  0.39010  0.77690  0.91430  1.0000
  O   O22       1.0  0.10990  0.27690  0.58570  1.0000
  O   O23       1.0  0.60990  0.22310  0.08570  1.0000
  O   O24       1.0  0.89010  0.72310  0.41430  1.0000
  O   O25       1.0  0.27450  0.95050  0.33520  1.0000
  O   O26       1.0  0.22550  0.45050  0.16480  1.0000
  O   O27       1.0  0.72550  0.04950  0.66480  1.0000
  O   O28       1.0  0.77450  0.54950  0.83520  1.0000
  O   O29       1.0  0.19070  0.77250  0.10990  1.0000
  O   O30       1.0  0.30930  0.27250  0.39010  1.0000
  O   O31       1.0  0.80930  0.22750  0.89010  1.0000
  O   O32       1.0  0.69070  0.72750  0.60990  1.0000
  O   O33       1.0  0.41500  0.74370  0.25410  1.0000
  O   O34       1.0  0.08500  0.24370  0.24590  1.0000
  O   O35       1.0  0.58500  0.25630  0.74590  1.0000
  O   O36       1.0  0.91500  0.75630  0.75410  1.0000
  O   O37       1.0  0.46660  0.74270  0.39970  1.0000
  O   O38       1.0  0.03340  0.24270  0.10030  1.0000
  O   O39       1.0  0.53340  0.25730  0.60030  1.0000
  O   O40       1.0  0.96660  0.75730  0.89970  1.0000
  O   O41       1.0  0.36810  0.95860  0.03790  1.0000
  O   O42       1.0  0.13190  0.45860  0.46210  1.0000
  O   O43       1.0  0.63190  0.04140  0.96210  1.0000
  O   O44       1.0  0.86810  0.54140  0.53790  1.0000
  O   O45       1.0  0.24850  0.57170  0.33270  1.0000
  O   O46       1.0  0.25150  0.07170  0.16730  1.0000
  O   O47       1.0  0.75150  0.42830  0.66730  1.0000
  O   O48       1.0  0.74850  0.92830  0.83270  1.0000
  O   O49       1.0  0.64680  0.68990  0.46490  1.0000
  O   O50       1.0  0.85320  0.18990  0.03510  1.0000
  O   O51       1.0  0.35320  0.31010  0.53510  1.0000
  O   O52       1.0  0.14680  0.81010  0.96490  1.0000
  O   O53       1.0  0.32640  0.58470  0.02280  1.0000
  O   O54       1.0  0.17360  0.08470  0.47720  1.0000
  O   O55       1.0  0.67360  0.41530  0.97720  1.0000
  O   O56       1.0  0.82640  0.91530  0.52280  1.0000
  C   C1        1.0  0.23020  0.76640  0.17190  1.0000
  C   C2        1.0  0.26980  0.26640  0.32810  1.0000
  C   C3        1.0  0.76980  0.23360  0.82810  1.0000
  C   C4        1.0  0.73020  0.73360  0.67190  1.0000
  C   C5        1.0  0.37640  0.75040  0.19150  1.0000
  C   C6        1.0  0.12360  0.25040  0.30850  1.0000
  C   C7        1.0  0.62360  0.24960  0.80850  1.0000
  C   C8        1.0  0.87640  0.74960  0.69150  1.0000
  C   C9        1.0  0.60710  0.74290  0.96380  1.0000
  C   C10       1.0  0.89290  0.24290  0.53620  1.0000
  C   C11       1.0  0.39290  0.25710  0.03620  1.0000
  C   C12       1.0  0.10710  0.75710  0.46380  1.0000
  C   C13       1.0  0.50290  0.75380  0.90230  1.0000
  C   C14       1.0  0.99710  0.25380  0.59770  1.0000
  C   C15       1.0  0.49710  0.24620  0.09770  1.0000
  C   C16       1.0  0.00290  0.74620  0.40230  1.0000
  C   C17       1.0  0.52820  0.66730  0.44560  1.0000
  C   C18       1.0  0.97180  0.16730  0.05440  1.0000
  C   C19       1.0  0.47180  0.33270  0.55440  1.0000
  C   C20       1.0  0.02820  0.83270  0.94560  1.0000
  C   C21       1.0  0.45880  0.54880  0.47650  1.0000
  C   C22       1.0  0.04120  0.04880  0.02350  1.0000
  C   C23       1.0  0.54120  0.45120  0.52350  1.0000
  C   C24       1.0  0.95880  0.95120  0.97650  1.0000
  H   H1        1.0  0.39480  0.59120  0.50100  1.0000
  H   H2        1.0  0.10520  0.09120  0.99900  1.0000
  H   H3        1.0  0.60520  0.40880  0.49900  1.0000
  H   H4        1.0  0.89480  0.90880  0.00100  1.0000
  H   H5        1.0  0.41380  0.49160  0.44050  1.0000
  H   H6        1.0  0.08620  0.99160  0.05950  1.0000
  H   H7        1.0  0.58620  0.50840  0.55950  1.0000
  H   H8        1.0  0.91380  0.00840  0.94050  1.0000
