data_image0
_chemical_formula_structural       Zn2O14C8H2C4H2C4H2C2H4C4H2C2H2C4H2C2H2C6H2C2H2C2H2C2H2C2
_chemical_formula_sum              "Zn2 O14 C44 H26"
_cell_length_a       9.5469
_cell_length_b       11.0049
_cell_length_c       11.9188
_cell_angle_alpha    72.625
_cell_angle_beta     83.538
_cell_angle_gamma    80.733

_space_group_name_H-M_alt    "P 1"
_space_group_IT_number       1

loop_
  _space_group_symop_operation_xyz
  'x, y, z'

loop_
  _atom_site_type_symbol
  _atom_site_label
  _atom_site_symmetry_multiplicity
  _atom_site_fract_x
  _atom_site_fract_y
  _atom_site_fract_z
  _atom_site_occupancy
  Zn  Zn1       1.0  0.61745  0.94370  0.09103  1.0000
  Zn  Zn2       1.0  0.38255  0.05630  0.90897  1.0000
  O   O1        1.0  0.79670  0.87127  0.16351  1.0000
  O   O2        1.0  0.20330  0.12873  0.83649  1.0000
  O   O3        1.0  0.72340  0.78780  0.35127  1.0000
  O   O4        1.0  0.27660  0.21220  0.64873  1.0000
  O   O5        1.0  0.28831  0.92496  0.05178  1.0000
  O   O6        1.0  0.71169  0.07504  0.94822  1.0000
  O   O7        1.0  0.45089  0.86040  0.18639  1.0000
  O   O8        1.0  0.54911  0.13960  0.81361  1.0000
  O   O9        1.0  0.17090  0.61340  0.55384  1.0000
  O   O10       1.0  0.82910  0.38660  0.44616  1.0000
  O   O11       1.0  0.37860  0.15511  0.03197  1.0000
  O   O12       1.0  0.62140  0.84489  0.96803  1.0000
  O   O13       1.0  0.55460  0.10117  0.15363  1.0000
  O   O14       1.0  0.44540  0.89883  0.84637  1.0000
  C   C1        1.0  0.81740  0.81360  0.27130  1.0000
  C   C2        1.0  0.18260  0.18640  0.72870  1.0000
  C   C3        1.0  0.32850  0.86690  0.15320  1.0000
  C   C4        1.0  0.67150  0.13310  0.84680  1.0000
  C   C5        1.0  0.21870  0.80340  0.24302  1.0000
  C   C6        1.0  0.78130  0.19660  0.75698  1.0000
  C   C7        1.0  0.07780  0.82570  0.21560  1.0000
  C   C8        1.0  0.92220  0.17430  0.78440  1.0000
  H   H1        1.0  0.05420  0.87250  0.13970  1.0000
  H   H2        1.0  0.94580  0.12750  0.86030  1.0000
  C   C9        1.0  0.97110  0.77930  0.29950  1.0000
  C   C10       1.0  0.02890  0.22070  0.70050  1.0000
  C   C11       1.0  0.00870  0.70740  0.41190  1.0000
  C   C12       1.0  0.99130  0.29260  0.58810  1.0000
  H   H3        1.0  0.93870  0.67530  0.46910  1.0000
  H   H4        1.0  0.06130  0.32470  0.53090  1.0000
  C   C13       1.0  0.14920  0.68330  0.43950  1.0000
  C   C14       1.0  0.85080  0.31670  0.56050  1.0000
  C   C15       1.0  0.25560  0.73110  0.35590  1.0000
  C   C16       1.0  0.74440  0.26890  0.64410  1.0000
  H   H5        1.0  0.35000  0.71500  0.37490  1.0000
  H   H6        1.0  0.65000  0.28500  0.62510  1.0000
  C   C17       1.0  0.31100  0.57350  0.59000  1.0000
  C   C18       1.0  0.68900  0.42650  0.41000  1.0000
  H   H7        1.0  0.36450  0.64600  0.56620  1.0000
  H   H8        1.0  0.63550  0.35400  0.43380  1.0000
  H   H9        1.0  0.35860  0.50870  0.55350  1.0000
  H   H10       1.0  0.64140  0.49130  0.44650  1.0000
  C   C19       1.0  0.30390  0.51910  0.72200  1.0000
  C   C20       1.0  0.69610  0.48090  0.27800  1.0000
  C   C21       1.0  0.42830  0.47540  0.77920  1.0000
  C   C22       1.0  0.57170  0.52460  0.22080  1.0000
  H   H11       1.0  0.51510  0.47670  0.73510  1.0000
  H   H12       1.0  0.48490  0.52330  0.26490  1.0000
  C   C23       1.0  0.42660  0.42990  0.90050  1.0000
  C   C24       1.0  0.57340  0.57010  0.09950  1.0000
  H   H13       1.0  0.51200  0.40070  0.93660  1.0000
  H   H14       1.0  0.48800  0.59930  0.06340  1.0000
  C   C25       1.0  0.29930  0.42720  0.96950  1.0000
  C   C26       1.0  0.70070  0.57280  0.03050  1.0000
  C   C27       1.0  0.17540  0.46700  0.91160  1.0000
  C   C28       1.0  0.82460  0.53300  0.08840  1.0000
  H   H15       1.0  0.08850  0.46280  0.95550  1.0000
  H   H16       1.0  0.91150  0.53720  0.04450  1.0000
  C   C29       1.0  0.17690  0.51320  0.78970  1.0000
  C   C30       1.0  0.82310  0.48680  0.21030  1.0000
  H   H17       1.0  0.09150  0.54030  0.75340  1.0000
  H   H18       1.0  0.90850  0.45970  0.24660  1.0000
  C   C31       1.0  0.29560  0.38710  0.10090  1.0000
  C   C32       1.0  0.70440  0.61290  0.89910  1.0000
  C   C33       1.0  0.37560  0.27420  0.16560  1.0000
  C   C34       1.0  0.62440  0.72580  0.83440  1.0000
  C   C35       1.0  0.37820  0.24920  0.28720  1.0000
  C   C36       1.0  0.62180  0.75080  0.71280  1.0000
  H   H19       1.0  0.43600  0.17720  0.32890  1.0000
  H   H20       1.0  0.56400  0.82280  0.67110  1.0000
  C   C37       1.0  0.29690  0.32860  0.34700  1.0000
  C   C38       1.0  0.70310  0.67140  0.65300  1.0000
  H   H21       1.0  0.29850  0.30950  0.42840  1.0000
  H   H22       1.0  0.70150  0.69050  0.57160  1.0000
  C   C39       1.0  0.21390  0.43620  0.28500  1.0000
  C   C40       1.0  0.78610  0.56380  0.71500  1.0000
  H   H23       1.0  0.15660  0.48910  0.32460  1.0000
  H   H24       1.0  0.84340  0.51090  0.67540  1.0000
  C   C41       1.0  0.21520  0.46620  0.16260  1.0000
  C   C42       1.0  0.78480  0.53380  0.83740  1.0000
  H   H25       1.0  0.16100  0.54100  0.12140  1.0000
  H   H26       1.0  0.83900  0.45900  0.87860  1.0000
  C   C43       1.0  0.44410  0.17050  0.11140  1.0000
  C   C44       1.0  0.55590  0.82950  0.88860  1.0000
