data_image0
_chemical_formula_structural       U4O28C6H4C4H6C6H4C4H6
_chemical_formula_sum              "U4 O28 C20 H20"
_cell_length_a       8.3086
_cell_length_b       10.3366
_cell_length_c       14.0153
_cell_angle_alpha    90
_cell_angle_beta     100.247
_cell_angle_gamma    90

_space_group_name_H-M_alt    "P 1"
_space_group_IT_number       1

loop_
  _space_group_symop_operation_xyz
  'x, y, z'

loop_
  _atom_site_type_symbol
  _atom_site_label
  _atom_site_symmetry_multiplicity
  _atom_site_fract_x
  _atom_site_fract_y
  _atom_site_fract_z
  _atom_site_occupancy
  U   U1        1.0  0.75497  0.26252  0.70106  1.0000
  U   U2        1.0  0.24503  0.76252  0.29894  1.0000
  U   U3        1.0  0.20775  0.22831  0.82855  1.0000
  U   U4        1.0  0.79225  0.72831  0.17145  1.0000
  O   O1        1.0  0.70840  0.09530  0.71790  1.0000
  O   O2        1.0  0.29160  0.59530  0.28210  1.0000
  O   O3        1.0  0.78950  0.43000  0.68140  1.0000
  O   O4        1.0  0.21050  0.93000  0.31860  1.0000
  O   O5        1.0  0.20930  0.05450  0.85080  1.0000
  O   O6        1.0  0.79070  0.55450  0.14920  1.0000
  O   O7        1.0  0.21920  0.39350  0.80580  1.0000
  O   O8        1.0  0.78080  0.89350  0.19420  1.0000
  O   O9        1.0  0.02100  0.20880  0.67700  1.0000
  O   O10       1.0  0.97900  0.70880  0.32300  1.0000
  O   O11       1.0  0.77070  0.22010  0.53740  1.0000
  O   O12       1.0  0.22930  0.72010  0.46260  1.0000
  O   O13       1.0  0.91060  0.19990  0.41950  1.0000
  O   O14       1.0  0.08940  0.69990  0.58050  1.0000
  O   O15       1.0  0.35940  0.17840  0.70760  1.0000
  O   O16       1.0  0.64060  0.67840  0.29240  1.0000
  O   O17       1.0  0.48090  0.29070  0.60520  1.0000
  O   O18       1.0  0.51910  0.79070  0.39480  1.0000
  O   O19       1.0  0.93370  0.25190  0.85330  1.0000
  O   O20       1.0  0.06630  0.75190  0.14670  1.0000
  O   O21       1.0  0.18500  0.25850  0.99250  1.0000
  O   O22       1.0  0.81500  0.75850  0.00750  1.0000
  O   O23       1.0  0.04200  0.25670  0.11080  1.0000
  O   O24       1.0  0.95800  0.75670  0.88920  1.0000
  O   O25       1.0  0.60050  0.33680  0.81560  1.0000
  O   O26       1.0  0.39950  0.83680  0.18440  1.0000
  O   O27       1.0  0.48140  0.24710  0.92760  1.0000
  O   O28       1.0  0.51860  0.74710  0.07240  1.0000
  C   C1        1.0  0.05620  0.17930  0.58460  1.0000
  C   C2        1.0  0.94380  0.67930  0.41540  1.0000
  C   C3        1.0  0.90160  0.20210  0.50700  1.0000
  C   C4        1.0  0.09840  0.70210  0.49300  1.0000
  C   C5        1.0  0.19170  0.26540  0.56170  1.0000
  C   C6        1.0  0.80830  0.76540  0.43830  1.0000
  H   H1        1.0  0.15960  0.35510  0.56610  1.0000
  H   H2        1.0  0.84040  0.85510  0.43390  1.0000
  H   H3        1.0  0.20600  0.24940  0.49550  1.0000
  H   H4        1.0  0.79400  0.74940  0.50450  1.0000
  C   C7        1.0  0.35390  0.24380  0.62910  1.0000
  C   C8        1.0  0.64610  0.74380  0.37090  1.0000
  C   C9        1.0  0.09000  0.03500  0.57720  1.0000
  C   C10       1.0  0.91000  0.53500  0.42280  1.0000
  H   H5        1.0  0.18680  0.01270  0.62260  1.0000
  H   H6        1.0  0.81320  0.51270  0.37740  1.0000
  H   H7        1.0  0.10590  0.01490  0.51270  1.0000
  H   H8        1.0  0.89410  0.51490  0.48730  1.0000
  H   H9        1.0  0.99880  0.98660  0.59180  1.0000
  H   H10       1.0  0.00120  0.48660  0.40820  1.0000
  C   C11       1.0  0.89920  0.22250  0.94590  1.0000
  C   C12       1.0  0.10080  0.72250  0.05410  1.0000
  C   C13       1.0  0.05230  0.24780  0.02280  1.0000
  C   C14       1.0  0.94770  0.74780  0.97720  1.0000
  C   C15       1.0  0.75910  0.31190  0.97100  1.0000
  C   C16       1.0  0.24090  0.81190  0.02900  1.0000
  H   H11       1.0  0.74130  0.29240  0.03600  1.0000
  H   H12       1.0  0.25870  0.79240  0.96400  1.0000
  H   H13       1.0  0.79270  0.40160  0.96970  1.0000
  H   H14       1.0  0.20730  0.90160  0.03030  1.0000
  C   C17       1.0  0.60130  0.29300  0.90020  1.0000
  C   C18       1.0  0.39870  0.79300  0.09980  1.0000
  C   C19       1.0  0.85290  0.08260  0.95650  1.0000
  C   C20       1.0  0.14710  0.58260  0.04350  1.0000
  H   H15       1.0  0.74540  0.06740  0.91990  1.0000
  H   H16       1.0  0.25460  0.56740  0.08010  1.0000
  H   H17       1.0  0.85370  0.06360  0.02360  1.0000
  H   H18       1.0  0.14630  0.56360  0.97640  1.0000
  H   H19       1.0  0.93010  0.02770  0.93260  1.0000
  H   H20       1.0  0.06990  0.52770  0.06740  1.0000
