data_image0
_chemical_formula_structural       Ag2O4S2C2O2C2H2C2H2O4C2H2C4H2C2
_chemical_formula_sum              "Ag2 O10 S2 C14 H8"
_cell_length_a       6.0178
_cell_length_b       7.4969
_cell_length_c       14.5404
_cell_angle_alpha    76.205
_cell_angle_beta     87.845
_cell_angle_gamma    89.788

_space_group_name_H-M_alt    "P 1"
_space_group_IT_number       1

loop_
  _space_group_symop_operation_xyz
  'x, y, z'

loop_
  _atom_site_type_symbol
  _atom_site_label
  _atom_site_symmetry_multiplicity
  _atom_site_fract_x
  _atom_site_fract_y
  _atom_site_fract_z
  _atom_site_occupancy
  Ag  Ag1       1.0  0.78306  0.42216  0.03673  1.0000
  Ag  Ag2       1.0  0.21694  0.57784  0.96327  1.0000
  O   O1        1.0  0.36650  0.31080  0.03140  1.0000
  O   O2        1.0  0.63350  0.68920  0.96860  1.0000
  O   O3        1.0  0.02850  0.20290  0.08372  1.0000
  O   O4        1.0  0.97150  0.79710  0.91628  1.0000
  S   S1        1.0  0.53922  0.42811  0.26910  1.0000
  S   S2        1.0  0.46078  0.57189  0.73090  1.0000
  C   C1        1.0  0.45510  0.64520  0.20145  1.0000
  C   C2        1.0  0.54490  0.35480  0.79855  1.0000
  O   O5        1.0  0.73600  0.37650  0.22057  1.0000
  O   O6        1.0  0.26400  0.62350  0.77943  1.0000
  C   C3        1.0  0.17930  0.84540  0.11919  1.0000
  C   C4        1.0  0.82070  0.15460  0.88081  1.0000
  H   H1        1.0  0.03830  0.86310  0.09450  1.0000
  H   H2        1.0  0.96170  0.13690  0.90550  1.0000
  C   C5        1.0  0.60040  0.79220  0.18979  1.0000
  C   C6        1.0  0.39960  0.20780  0.81021  1.0000
  H   H3        1.0  0.74240  0.77380  0.21340  1.0000
  H   H4        1.0  0.25760  0.22620  0.78660  1.0000
  O   O7        1.0  0.35420  0.30390  0.27409  1.0000
  O   O8        1.0  0.64580  0.69610  0.72591  1.0000
  O   O9        1.0  0.58730  0.45640  0.36169  1.0000
  O   O10       1.0  0.41270  0.54360  0.63831  1.0000
  C   C7        1.0  0.24500  0.66990  0.16455  1.0000
  C   C8        1.0  0.75500  0.33010  0.83545  1.0000
  H   H5        1.0  0.14950  0.57030  0.17020  1.0000
  H   H6        1.0  0.85050  0.42970  0.82980  1.0000
  C   C9        1.0  0.32150  0.99540  0.11004  1.0000
  C   C10       1.0  0.67850  0.00460  0.88996  1.0000
  C   C11       1.0  0.53540  0.96640  0.14328  1.0000
  C   C12       1.0  0.46460  0.03360  0.85672  1.0000
  H   H7        1.0  0.63490  0.06420  0.13420  1.0000
  H   H8        1.0  0.36510  0.93580  0.86580  1.0000
  C   C13       1.0  0.23360  0.18510  0.07126  1.0000
  C   C14       1.0  0.76640  0.81490  0.92874  1.0000
