data_image0
_chemical_formula_structural       Cu8N8O28C12H4C4H4C4H4C4H4C12H4C4H4C4H4C4H4C8H12
_chemical_formula_sum              "Cu8 N8 O28 C56 H44"
_cell_length_a       12.911
_cell_length_b       13.862
_cell_length_c       13.052
_cell_angle_alpha    90
_cell_angle_beta     112.921
_cell_angle_gamma    90

_space_group_name_H-M_alt    "P 1"
_space_group_IT_number       1

loop_
  _space_group_symop_operation_xyz
  'x, y, z'

loop_
  _atom_site_type_symbol
  _atom_site_label
  _atom_site_symmetry_multiplicity
  _atom_site_fract_x
  _atom_site_fract_y
  _atom_site_fract_z
  _atom_site_occupancy
  Cu  Cu1       1.0  0.40130  0.56587  0.47349  1.0000
  Cu  Cu2       1.0  0.09870  0.06587  0.02651  1.0000
  Cu  Cu3       1.0  0.59870  0.43413  0.52651  1.0000
  Cu  Cu4       1.0  0.90130  0.93413  0.97349  1.0000
  Cu  Cu5       1.0  0.41965  0.39858  0.65286  1.0000
  Cu  Cu6       1.0  0.08035  0.89858  0.84714  1.0000
  Cu  Cu7       1.0  0.58035  0.60142  0.34714  1.0000
  Cu  Cu8       1.0  0.91965  0.10142  0.15286  1.0000
  N   N1        1.0  0.16860  0.16230  0.15080  1.0000
  N   N2        1.0  0.33140  0.66230  0.34920  1.0000
  N   N3        1.0  0.83140  0.83770  0.84920  1.0000
  N   N4        1.0  0.66860  0.33770  0.65080  1.0000
  N   N5        1.0  0.15620  0.80110  0.78560  1.0000
  N   N6        1.0  0.34380  0.30110  0.71440  1.0000
  N   N7        1.0  0.84380  0.19890  0.21440  1.0000
  N   N8        1.0  0.65620  0.69890  0.28560  1.0000
  O   O1        1.0  0.27520  0.45060  0.39770  1.0000
  O   O2        1.0  0.22480  0.95060  0.10230  1.0000
  O   O3        1.0  0.72480  0.54940  0.60230  1.0000
  O   O4        1.0  0.77520  0.04940  0.89770  1.0000
  O   O5        1.0  0.36460  0.32920  0.51020  1.0000
  O   O6        1.0  0.13540  0.82920  0.98980  1.0000
  O   O7        1.0  0.63540  0.67080  0.48980  1.0000
  O   O8        1.0  0.86460  0.17080  0.01020  1.0000
  O   O9        1.0  0.33750  0.63720  0.56200  1.0000
  O   O10       1.0  0.16250  0.13720  0.93800  1.0000
  O   O11       1.0  0.66250  0.36280  0.43800  1.0000
  O   O12       1.0  0.83750  0.86280  0.06200  1.0000
  O   O13       1.0  0.29430  0.51310  0.64960  1.0000
  O   O14       1.0  0.20570  0.01310  0.85040  1.0000
  O   O15       1.0  0.70570  0.48690  0.35040  1.0000
  O   O16       1.0  0.79430  0.98690  0.14960  1.0000
  O   O17       1.0  0.50170  0.48810  0.59690  1.0000
  O   O18       1.0  0.99830  0.98810  0.90310  1.0000
  O   O19       1.0  0.49830  0.51190  0.40310  1.0000
  O   O20       1.0  0.00170  0.01190  0.09690  1.0000
  O   O21       1.0  0.51340  0.42480  0.80850  1.0000
  O   O22       1.0  0.98660  0.92480  0.69150  1.0000
  O   O23       1.0  0.48660  0.57520  0.19150  1.0000
  O   O24       1.0  0.01340  0.07520  0.30850  1.0000
  O   O25       1.0  0.59590  0.56110  0.79270  1.0000
  O   O26       1.0  0.90410  0.06110  0.70730  1.0000
  O   O27       1.0  0.40410  0.43890  0.20730  1.0000
  O   O28       1.0  0.09590  0.93890  0.29270  1.0000
  C   C1        1.0  0.29880  0.36260  0.41720  1.0000
  C   C2        1.0  0.20120  0.86260  0.08280  1.0000
  C   C3        1.0  0.70120  0.63740  0.58280  1.0000
  C   C4        1.0  0.79880  0.13740  0.91720  1.0000
  C   C5        1.0  0.25180  0.29230  0.32470  1.0000
  C   C6        1.0  0.24820  0.79230  0.17530  1.0000
  C   C7        1.0  0.74820  0.70770  0.67530  1.0000
  C   C8        1.0  0.75180  0.20770  0.82470  1.0000
  C   C9        1.0  0.17960  0.32230  0.22090  1.0000
  C   C10       1.0  0.32040  0.82230  0.27910  1.0000
  C   C11       1.0  0.82040  0.67770  0.77910  1.0000
  C   C12       1.0  0.67960  0.17770  0.72090  1.0000
  H   H1        1.0  0.15850  0.38670  0.20750  1.0000
  H   H2        1.0  0.34150  0.88670  0.29250  1.0000
  H   H3        1.0  0.84150  0.61330  0.79250  1.0000
  H   H4        1.0  0.65850  0.11330  0.70750  1.0000
  C   C13       1.0  0.13810  0.25280  0.13480  1.0000
  C   C14       1.0  0.36190  0.75280  0.36520  1.0000
  C   C15       1.0  0.86190  0.74720  0.86520  1.0000
  C   C16       1.0  0.63810  0.24720  0.63480  1.0000
  H   H5        1.0  0.08780  0.27210  0.06490  1.0000
  H   H6        1.0  0.41220  0.77210  0.43510  1.0000
  H   H7        1.0  0.91220  0.72790  0.93510  1.0000
  H   H8        1.0  0.58780  0.22790  0.56490  1.0000
  C   C17       1.0  0.23980  0.13170  0.25010  1.0000
  C   C18       1.0  0.26020  0.63170  0.24990  1.0000
  C   C19       1.0  0.76020  0.86830  0.74990  1.0000
  C   C20       1.0  0.73980  0.36830  0.75010  1.0000
  H   H9        1.0  0.26120  0.06720  0.25990  1.0000
  H   H10       1.0  0.23880  0.56720  0.24010  1.0000
  H   H11       1.0  0.73880  0.93280  0.74010  1.0000
  H   H12       1.0  0.76120  0.43280  0.75990  1.0000
  C   C21       1.0  0.28270  0.19580  0.33960  1.0000
  C   C22       1.0  0.21730  0.69580  0.16040  1.0000
  C   C23       1.0  0.71730  0.80420  0.66040  1.0000
  C   C24       1.0  0.78270  0.30420  0.83960  1.0000
  H   H13       1.0  0.33170  0.17380  0.40880  1.0000
  H   H14       1.0  0.16830  0.67380  0.09120  1.0000
  H   H15       1.0  0.66830  0.82620  0.59120  1.0000
  H   H16       1.0  0.83170  0.32620  0.90880  1.0000
  C   C25       1.0  0.29210  0.59880  0.63020  1.0000
  C   C26       1.0  0.20790  0.09880  0.86980  1.0000
  C   C27       1.0  0.70790  0.40120  0.36980  1.0000
  C   C28       1.0  0.79210  0.90120  0.13020  1.0000
  C   C29       1.0  0.24740  0.66990  0.68350  1.0000
  C   C30       1.0  0.25260  0.16990  0.81650  1.0000
  C   C31       1.0  0.75260  0.33010  0.31650  1.0000
  C   C32       1.0  0.74740  0.83010  0.18350  1.0000
  C   C33       1.0  0.24070  0.76820  0.65780  1.0000
  C   C34       1.0  0.25930  0.26820  0.84220  1.0000
  C   C35       1.0  0.75930  0.23180  0.34220  1.0000
  C   C36       1.0  0.74070  0.73180  0.15780  1.0000
  H   H17       1.0  0.26740  0.79150  0.60590  1.0000
  H   H18       1.0  0.23260  0.29150  0.89410  1.0000
  H   H19       1.0  0.73260  0.20850  0.39410  1.0000
  H   H20       1.0  0.76740  0.70850  0.10590  1.0000
  C   C37       1.0  0.19390  0.83020  0.71080  1.0000
  C   C38       1.0  0.30610  0.33020  0.78920  1.0000
  C   C39       1.0  0.80610  0.16980  0.28920  1.0000
  C   C40       1.0  0.69390  0.66980  0.21080  1.0000
  H   H21       1.0  0.18900  0.89540  0.69280  1.0000
  H   H22       1.0  0.31100  0.39540  0.80720  1.0000
  H   H23       1.0  0.81100  0.10460  0.30720  1.0000
  H   H24       1.0  0.68900  0.60460  0.19280  1.0000
  C   C41       1.0  0.16470  0.70750  0.81330  1.0000
  C   C42       1.0  0.33530  0.20750  0.68670  1.0000
  C   C43       1.0  0.83530  0.29250  0.18670  1.0000
  C   C44       1.0  0.66470  0.79250  0.31330  1.0000
  H   H25       1.0  0.13920  0.68710  0.86720  1.0000
  H   H26       1.0  0.36080  0.18710  0.63280  1.0000
  H   H27       1.0  0.86080  0.31290  0.13280  1.0000
  H   H28       1.0  0.63920  0.81290  0.36720  1.0000
  C   C45       1.0  0.21010  0.64030  0.76460  1.0000
  C   C46       1.0  0.28990  0.14030  0.73540  1.0000
  C   C47       1.0  0.78990  0.35970  0.23540  1.0000
  C   C48       1.0  0.71010  0.85970  0.26460  1.0000
  H   H29       1.0  0.21550  0.57590  0.78610  1.0000
  H   H30       1.0  0.28450  0.07590  0.71390  1.0000
  H   H31       1.0  0.78450  0.42410  0.21390  1.0000
  H   H32       1.0  0.71550  0.92410  0.28610  1.0000
  C   C49       1.0  0.57780  0.49820  0.84540  1.0000
  C   C50       1.0  0.92220  0.99820  0.65460  1.0000
  C   C51       1.0  0.42220  0.50180  0.15460  1.0000
  C   C52       1.0  0.07780  0.00180  0.34540  1.0000
  C   C53       1.0  0.64810  0.49680  0.96990  1.0000
  C   C54       1.0  0.85190  0.99680  0.53010  1.0000
  C   C55       1.0  0.35190  0.50320  0.03010  1.0000
  C   C56       1.0  0.14810  0.00320  0.46990  1.0000
  H   H33       1.0  0.72620  0.49040  0.98250  1.0000
  H   H34       1.0  0.77380  0.99040  0.51750  1.0000
  H   H35       1.0  0.27380  0.50960  0.01750  1.0000
  H   H36       1.0  0.22620  0.00960  0.48250  1.0000
  H   H37       1.0  0.62560  0.44330  0.00320  1.0000
  H   H38       1.0  0.87440  0.94330  0.49680  1.0000
  H   H39       1.0  0.37440  0.55670  0.99680  1.0000
  H   H40       1.0  0.12560  0.05670  0.50320  1.0000
  H   H41       1.0  0.63690  0.55590  0.00260  1.0000
  H   H42       1.0  0.86310  0.05590  0.49740  1.0000
  H   H43       1.0  0.36310  0.44410  0.99740  1.0000
  H   H44       1.0  0.13690  0.94410  0.50260  1.0000
