data_image0
_chemical_formula_structural       Cu4C12H4C8N8O16
_chemical_formula_sum              "Cu4 C20 H4 N8 O16"
_cell_length_a       8.1582
_cell_length_b       6.362
_cell_length_c       18.679
_cell_angle_alpha    90
_cell_angle_beta     101.862
_cell_angle_gamma    90

_space_group_name_H-M_alt    "P 1"
_space_group_IT_number       1

loop_
  _space_group_symop_operation_xyz
  'x, y, z'

loop_
  _atom_site_type_symbol
  _atom_site_label
  _atom_site_symmetry_multiplicity
  _atom_site_fract_x
  _atom_site_fract_y
  _atom_site_fract_z
  _atom_site_occupancy
  Cu  Cu1       1.0  0.11209  0.72576  0.50180  1.0000
  Cu  Cu2       1.0  0.88791  0.22576  0.99820  1.0000
  Cu  Cu3       1.0  0.88791  0.27424  0.49820  1.0000
  Cu  Cu4       1.0  0.11209  0.77424  0.00180  1.0000
  C   C1        1.0  0.33560  0.72600  0.63644  1.0000
  C   C2        1.0  0.66440  0.22600  0.86356  1.0000
  C   C3        1.0  0.66440  0.27400  0.36356  1.0000
  C   C4        1.0  0.33560  0.77400  0.13644  1.0000
  C   C5        1.0  0.23730  0.92620  0.63423  1.0000
  C   C6        1.0  0.76270  0.42620  0.86577  1.0000
  C   C7        1.0  0.76270  0.07380  0.36577  1.0000
  C   C8        1.0  0.23730  0.57380  0.13423  1.0000
  C   C9        1.0  0.22600  0.10110  0.67817  1.0000
  C   C10       1.0  0.77400  0.60110  0.82183  1.0000
  C   C11       1.0  0.77400  0.89890  0.32183  1.0000
  C   C12       1.0  0.22600  0.39890  0.17817  1.0000
  H   H1        1.0  0.28430  0.12660  0.72560  1.0000
  H   H2        1.0  0.71570  0.62660  0.77440  1.0000
  H   H3        1.0  0.71570  0.87340  0.27440  1.0000
  H   H4        1.0  0.28430  0.37340  0.22560  1.0000
  C   C13       1.0  0.10670  0.22880  0.63437  1.0000
  C   C14       1.0  0.89330  0.72880  0.86563  1.0000
  C   C15       1.0  0.89330  0.77120  0.36563  1.0000
  C   C16       1.0  0.10670  0.27120  0.13437  1.0000
  C   C17       1.0  0.02250  0.43540  0.63753  1.0000
  C   C18       1.0  0.97750  0.93540  0.86247  1.0000
  C   C19       1.0  0.97750  0.56460  0.36247  1.0000
  C   C20       1.0  0.02250  0.06460  0.13753  1.0000
  N   N1        1.0  0.13150  0.95170  0.56971  1.0000
  N   N2        1.0  0.86850  0.45170  0.93029  1.0000
  N   N3        1.0  0.86850  0.04830  0.43029  1.0000
  N   N4        1.0  0.13150  0.54830  0.06971  1.0000
  N   N5        1.0  0.05350  0.13460  0.56948  1.0000
  N   N6        1.0  0.94650  0.63460  0.93052  1.0000
  N   N7        1.0  0.94650  0.86540  0.43052  1.0000
  N   N8        1.0  0.05350  0.36540  0.06948  1.0000
  O   O1        1.0  0.29805  0.61620  0.57641  1.0000
  O   O2        1.0  0.70195  0.11620  0.92359  1.0000
  O   O3        1.0  0.70195  0.38380  0.42359  1.0000
  O   O4        1.0  0.29805  0.88380  0.07641  1.0000
  O   O5        1.0  0.44127  0.67630  0.69028  1.0000
  O   O6        1.0  0.55873  0.17630  0.80972  1.0000
  O   O7        1.0  0.55873  0.32370  0.30972  1.0000
  O   O8        1.0  0.44127  0.82370  0.19028  1.0000
  O   O9        1.0  0.92084  0.48920  0.57719  1.0000
  O   O10       1.0  0.07916  0.98920  0.92281  1.0000
  O   O11       1.0  0.07916  0.51080  0.42281  1.0000
  O   O12       1.0  0.92084  0.01080  0.07719  1.0000
  O   O13       1.0  0.04633  0.54470  0.69333  1.0000
  O   O14       1.0  0.95367  0.04470  0.80667  1.0000
  O   O15       1.0  0.95367  0.45530  0.30667  1.0000
  O   O16       1.0  0.04633  0.95530  0.19333  1.0000
