data_image0
_chemical_formula_structural       Zn16P8O24C16H8C8H8C16H8C8H8C8O16P8O24C16H8C8H8C16H8C8H8C8O16
_chemical_formula_sum              "Zn16 P16 O80 C112 H64"
_cell_length_a       25.997
_cell_length_b       8.577
_cell_length_c       25.822
_cell_angle_alpha    90
_cell_angle_beta     92.424
_cell_angle_gamma    90

_space_group_name_H-M_alt    "P 1"
_space_group_IT_number       1

loop_
  _space_group_symop_operation_xyz
  'x, y, z'

loop_
  _atom_site_type_symbol
  _atom_site_label
  _atom_site_symmetry_multiplicity
  _atom_site_fract_x
  _atom_site_fract_y
  _atom_site_fract_z
  _atom_site_occupancy
  Zn  Zn1       1.0  0.14122  0.45695  0.10828  1.0000
  Zn  Zn2       1.0  0.64122  0.95695  0.10828  1.0000
  Zn  Zn3       1.0  0.85878  0.45695  0.39172  1.0000
  Zn  Zn4       1.0  0.35878  0.95695  0.39172  1.0000
  Zn  Zn5       1.0  0.85878  0.54305  0.89172  1.0000
  Zn  Zn6       1.0  0.35878  0.04305  0.89172  1.0000
  Zn  Zn7       1.0  0.14122  0.54305  0.60828  1.0000
  Zn  Zn8       1.0  0.64122  0.04305  0.60828  1.0000
  Zn  Zn9       1.0  0.22941  0.99303  0.99838  1.0000
  Zn  Zn10      1.0  0.72941  0.49303  0.99838  1.0000
  Zn  Zn11      1.0  0.77059  0.99303  0.50162  1.0000
  Zn  Zn12      1.0  0.27059  0.49303  0.50162  1.0000
  Zn  Zn13      1.0  0.77059  0.00697  0.00162  1.0000
  Zn  Zn14      1.0  0.27059  0.50697  0.00162  1.0000
  Zn  Zn15      1.0  0.22941  0.00697  0.49838  1.0000
  Zn  Zn16      1.0  0.72941  0.50697  0.49838  1.0000
  P   P1        1.0  0.16716  0.29987  0.99915  1.0000
  P   P2        1.0  0.66716  0.79987  0.99915  1.0000
  P   P3        1.0  0.83284  0.29987  0.50085  1.0000
  P   P4        1.0  0.33284  0.79987  0.50085  1.0000
  P   P5        1.0  0.83284  0.70013  0.00085  1.0000
  P   P6        1.0  0.33284  0.20013  0.00085  1.0000
  P   P7        1.0  0.16716  0.70013  0.49915  1.0000
  P   P8        1.0  0.66716  0.20013  0.49915  1.0000
  O   O1        1.0  0.16349  0.30580  0.05739  1.0000
  O   O2        1.0  0.66349  0.80580  0.05739  1.0000
  O   O3        1.0  0.83651  0.30580  0.44261  1.0000
  O   O4        1.0  0.33651  0.80580  0.44261  1.0000
  O   O5        1.0  0.83651  0.69420  0.94261  1.0000
  O   O6        1.0  0.33651  0.19420  0.94261  1.0000
  O   O7        1.0  0.16349  0.69420  0.55739  1.0000
  O   O8        1.0  0.66349  0.19420  0.55739  1.0000
  O   O9        1.0  0.17045  0.13020  0.98146  1.0000
  O   O10       1.0  0.67045  0.63020  0.98146  1.0000
  O   O11       1.0  0.82955  0.13020  0.51854  1.0000
  O   O12       1.0  0.32955  0.63020  0.51854  1.0000
  O   O13       1.0  0.82955  0.86980  0.01854  1.0000
  O   O14       1.0  0.32955  0.36980  0.01854  1.0000
  O   O15       1.0  0.17045  0.86980  0.48146  1.0000
  O   O16       1.0  0.67045  0.36980  0.48146  1.0000
  O   O17       1.0  0.21013  0.39770  0.97882  1.0000
  O   O18       1.0  0.71013  0.89770  0.97882  1.0000
  O   O19       1.0  0.78987  0.39770  0.52118  1.0000
  O   O20       1.0  0.28987  0.89770  0.52118  1.0000
  O   O21       1.0  0.78987  0.60230  0.02118  1.0000
  O   O22       1.0  0.28987  0.10230  0.02118  1.0000
  O   O23       1.0  0.21013  0.60230  0.47882  1.0000
  O   O24       1.0  0.71013  0.10230  0.47882  1.0000
  C   C1        1.0  0.10877  0.38100  0.97042  1.0000
  C   C2        1.0  0.60877  0.88100  0.97042  1.0000
  C   C3        1.0  0.89123  0.38100  0.52958  1.0000
  C   C4        1.0  0.39123  0.88100  0.52958  1.0000
  C   C5        1.0  0.89123  0.61900  0.02958  1.0000
  C   C6        1.0  0.39123  0.11900  0.02958  1.0000
  C   C7        1.0  0.10877  0.61900  0.47042  1.0000
  C   C8        1.0  0.60877  0.11900  0.47042  1.0000
  C   C9        1.0  0.06830  0.28970  0.95350  1.0000
  C   C10       1.0  0.56830  0.78970  0.95350  1.0000
  C   C11       1.0  0.93170  0.28970  0.54650  1.0000
  C   C12       1.0  0.43170  0.78970  0.54650  1.0000
  C   C13       1.0  0.93170  0.71030  0.04650  1.0000
  C   C14       1.0  0.43170  0.21030  0.04650  1.0000
  C   C15       1.0  0.06830  0.71030  0.45350  1.0000
  C   C16       1.0  0.56830  0.21030  0.45350  1.0000
  H   H1        1.0  0.07150  0.18190  0.95560  1.0000
  H   H2        1.0  0.57150  0.68190  0.95560  1.0000
  H   H3        1.0  0.92850  0.18190  0.54440  1.0000
  H   H4        1.0  0.42850  0.68190  0.54440  1.0000
  H   H5        1.0  0.92850  0.81810  0.04440  1.0000
  H   H6        1.0  0.42850  0.31810  0.04440  1.0000
  H   H7        1.0  0.07150  0.81810  0.45560  1.0000
  H   H8        1.0  0.57150  0.31810  0.45560  1.0000
  C   C17       1.0  0.02280  0.35340  0.93350  1.0000
  C   C18       1.0  0.52280  0.85340  0.93350  1.0000
  C   C19       1.0  0.97720  0.35340  0.56650  1.0000
  C   C20       1.0  0.47720  0.85340  0.56650  1.0000
  C   C21       1.0  0.97720  0.64660  0.06650  1.0000
  C   C22       1.0  0.47720  0.14660  0.06650  1.0000
  C   C23       1.0  0.02280  0.64660  0.43350  1.0000
  C   C24       1.0  0.52280  0.14660  0.43350  1.0000
  H   H9        1.0  0.99640  0.28790  0.92130  1.0000
  H   H10       1.0  0.49640  0.78790  0.92130  1.0000
  H   H11       1.0  0.00360  0.28790  0.57870  1.0000
  H   H12       1.0  0.50360  0.78790  0.57870  1.0000
  H   H13       1.0  0.00360  0.71210  0.07870  1.0000
  H   H14       1.0  0.50360  0.21210  0.07870  1.0000
  H   H15       1.0  0.99640  0.71210  0.42130  1.0000
  H   H16       1.0  0.49640  0.21210  0.42130  1.0000
  C   C25       1.0  0.01605  0.51140  0.93130  1.0000
  C   C26       1.0  0.51605  0.01140  0.93130  1.0000
  C   C27       1.0  0.98395  0.51140  0.56870  1.0000
  C   C28       1.0  0.48395  0.01140  0.56870  1.0000
  C   C29       1.0  0.98395  0.48860  0.06870  1.0000
  C   C30       1.0  0.48395  0.98860  0.06870  1.0000
  C   C31       1.0  0.01605  0.48860  0.43130  1.0000
  C   C32       1.0  0.51605  0.98860  0.43130  1.0000
  C   C33       1.0  0.05650  0.60450  0.94740  1.0000
  C   C34       1.0  0.55650  0.10450  0.94740  1.0000
  C   C35       1.0  0.94350  0.60450  0.55260  1.0000
  C   C36       1.0  0.44350  0.10450  0.55260  1.0000
  C   C37       1.0  0.94350  0.39550  0.05260  1.0000
  C   C38       1.0  0.44350  0.89550  0.05260  1.0000
  C   C39       1.0  0.05650  0.39550  0.44740  1.0000
  C   C40       1.0  0.55650  0.89550  0.44740  1.0000
  H   H17       1.0  0.05300  0.71240  0.94600  1.0000
  H   H18       1.0  0.55300  0.21240  0.94600  1.0000
  H   H19       1.0  0.94700  0.71240  0.55400  1.0000
  H   H20       1.0  0.44700  0.21240  0.55400  1.0000
  H   H21       1.0  0.94700  0.28760  0.05400  1.0000
  H   H22       1.0  0.44700  0.78760  0.05400  1.0000
  H   H23       1.0  0.05300  0.28760  0.44600  1.0000
  H   H24       1.0  0.55300  0.78760  0.44600  1.0000
  C   C41       1.0  0.10310  0.53920  0.96590  1.0000
  C   C42       1.0  0.60310  0.03920  0.96590  1.0000
  C   C43       1.0  0.89690  0.53920  0.53410  1.0000
  C   C44       1.0  0.39690  0.03920  0.53410  1.0000
  C   C45       1.0  0.89690  0.46080  0.03410  1.0000
  C   C46       1.0  0.39690  0.96080  0.03410  1.0000
  C   C47       1.0  0.10310  0.46080  0.46590  1.0000
  C   C48       1.0  0.60310  0.96080  0.46590  1.0000
  H   H25       1.0  0.13060  0.60420  0.97530  1.0000
  H   H26       1.0  0.63060  0.10420  0.97530  1.0000
  H   H27       1.0  0.86940  0.60420  0.52470  1.0000
  H   H28       1.0  0.36940  0.10420  0.52470  1.0000
  H   H29       1.0  0.86940  0.39580  0.02470  1.0000
  H   H30       1.0  0.36940  0.89580  0.02470  1.0000
  H   H31       1.0  0.13060  0.39580  0.47530  1.0000
  H   H32       1.0  0.63060  0.89580  0.47530  1.0000
  C   C49       1.0  0.96508  0.57720  0.91250  1.0000
  C   C50       1.0  0.46508  0.07720  0.91250  1.0000
  C   C51       1.0  0.03492  0.57720  0.58750  1.0000
  C   C52       1.0  0.53492  0.07720  0.58750  1.0000
  C   C53       1.0  0.03492  0.42280  0.08750  1.0000
  C   C54       1.0  0.53492  0.92280  0.08750  1.0000
  C   C55       1.0  0.96508  0.42280  0.41250  1.0000
  C   C56       1.0  0.46508  0.92280  0.41250  1.0000
  O   O25       1.0  0.92967  0.47940  0.90497  1.0000
  O   O26       1.0  0.42967  0.97940  0.90497  1.0000
  O   O27       1.0  0.07033  0.47940  0.59503  1.0000
  O   O28       1.0  0.57033  0.97940  0.59503  1.0000
  O   O29       1.0  0.07033  0.52060  0.09503  1.0000
  O   O30       1.0  0.57033  0.02060  0.09503  1.0000
  O   O31       1.0  0.92967  0.52060  0.40497  1.0000
  O   O32       1.0  0.42967  0.02060  0.40497  1.0000
  O   O33       1.0  0.95985  0.72210  0.90655  1.0000
  O   O34       1.0  0.45985  0.22210  0.90655  1.0000
  O   O35       1.0  0.04015  0.72210  0.59345  1.0000
  O   O36       1.0  0.54015  0.22210  0.59345  1.0000
  O   O37       1.0  0.04015  0.27790  0.09345  1.0000
  O   O38       1.0  0.54015  0.77790  0.09345  1.0000
  O   O39       1.0  0.95985  0.27790  0.40655  1.0000
  O   O40       1.0  0.45985  0.77790  0.40655  1.0000
  P   P9        1.0  0.22526  0.73686  0.08797  1.0000
  P   P10       1.0  0.72526  0.23686  0.08797  1.0000
  P   P11       1.0  0.77474  0.73686  0.41203  1.0000
  P   P12       1.0  0.27474  0.23686  0.41203  1.0000
  P   P13       1.0  0.77474  0.26314  0.91203  1.0000
  P   P14       1.0  0.27474  0.76314  0.91203  1.0000
  P   P15       1.0  0.22526  0.26314  0.58797  1.0000
  P   P16       1.0  0.72526  0.76314  0.58797  1.0000
  O   O41       1.0  0.20904  0.88700  0.06029  1.0000
  O   O42       1.0  0.70904  0.38700  0.06029  1.0000
  O   O43       1.0  0.79096  0.88700  0.43971  1.0000
  O   O44       1.0  0.29096  0.38700  0.43971  1.0000
  O   O45       1.0  0.79096  0.11300  0.93971  1.0000
  O   O46       1.0  0.29096  0.61300  0.93971  1.0000
  O   O47       1.0  0.20904  0.11300  0.56029  1.0000
  O   O48       1.0  0.70904  0.61300  0.56029  1.0000
  O   O49       1.0  0.26379  0.64510  0.05902  1.0000
  O   O50       1.0  0.76379  0.14510  0.05902  1.0000
  O   O51       1.0  0.73621  0.64510  0.44098  1.0000
  O   O52       1.0  0.23621  0.14510  0.44098  1.0000
  O   O53       1.0  0.73621  0.35490  0.94098  1.0000
  O   O54       1.0  0.23621  0.85490  0.94098  1.0000
  O   O55       1.0  0.26379  0.35490  0.55902  1.0000
  O   O56       1.0  0.76379  0.85490  0.55902  1.0000
  O   O57       1.0  0.17822  0.64890  0.10265  1.0000
  O   O58       1.0  0.67822  0.14890  0.10265  1.0000
  O   O59       1.0  0.82178  0.64890  0.39735  1.0000
  O   O60       1.0  0.32178  0.14890  0.39735  1.0000
  O   O61       1.0  0.82178  0.35110  0.89735  1.0000
  O   O62       1.0  0.32178  0.85110  0.89735  1.0000
  O   O63       1.0  0.17822  0.35110  0.60265  1.0000
  O   O64       1.0  0.67822  0.85110  0.60265  1.0000
  C   C57       1.0  0.25963  0.79150  0.14737  1.0000
  C   C58       1.0  0.75963  0.29150  0.14737  1.0000
  C   C59       1.0  0.74037  0.79150  0.35263  1.0000
  C   C60       1.0  0.24037  0.29150  0.35263  1.0000
  C   C61       1.0  0.74037  0.20850  0.85263  1.0000
  C   C62       1.0  0.24037  0.70850  0.85263  1.0000
  C   C63       1.0  0.25963  0.20850  0.64737  1.0000
  C   C64       1.0  0.75963  0.70850  0.64737  1.0000
  C   C65       1.0  0.29930  0.89410  0.14630  1.0000
  C   C66       1.0  0.79930  0.39410  0.14630  1.0000
  C   C67       1.0  0.70070  0.89410  0.35370  1.0000
  C   C68       1.0  0.20070  0.39410  0.35370  1.0000
  C   C69       1.0  0.70070  0.10590  0.85370  1.0000
  C   C70       1.0  0.20070  0.60590  0.85370  1.0000
  C   C71       1.0  0.29930  0.10590  0.64630  1.0000
  C   C72       1.0  0.79930  0.60590  0.64630  1.0000
  H   H33       1.0  0.30730  0.94100  0.11520  1.0000
  H   H34       1.0  0.80730  0.44100  0.11520  1.0000
  H   H35       1.0  0.69270  0.94100  0.38480  1.0000
  H   H36       1.0  0.19270  0.44100  0.38480  1.0000
  H   H37       1.0  0.69270  0.05900  0.88480  1.0000
  H   H38       1.0  0.19270  0.55900  0.88480  1.0000
  H   H39       1.0  0.30730  0.05900  0.61520  1.0000
  H   H40       1.0  0.80730  0.55900  0.61520  1.0000
  C   C73       1.0  0.32830  0.93000  0.19150  1.0000
  C   C74       1.0  0.82830  0.43000  0.19150  1.0000
  C   C75       1.0  0.67170  0.93000  0.30850  1.0000
  C   C76       1.0  0.17170  0.43000  0.30850  1.0000
  C   C77       1.0  0.67170  0.07000  0.80850  1.0000
  C   C78       1.0  0.17170  0.57000  0.80850  1.0000
  C   C79       1.0  0.32830  0.07000  0.69150  1.0000
  C   C80       1.0  0.82830  0.57000  0.69150  1.0000
  H   H41       1.0  0.35650  0.99610  0.18970  1.0000
  H   H42       1.0  0.85650  0.49610  0.18970  1.0000
  H   H43       1.0  0.64350  0.99610  0.31030  1.0000
  H   H44       1.0  0.14350  0.49610  0.31030  1.0000
  H   H45       1.0  0.64350  0.00390  0.81030  1.0000
  H   H46       1.0  0.14350  0.50390  0.81030  1.0000
  H   H47       1.0  0.35650  0.00390  0.68970  1.0000
  H   H48       1.0  0.85650  0.50390  0.68970  1.0000
  C   C81       1.0  0.31630  0.87100  0.23734  1.0000
  C   C82       1.0  0.81630  0.37100  0.23734  1.0000
  C   C83       1.0  0.68370  0.87100  0.26266  1.0000
  C   C84       1.0  0.18370  0.37100  0.26266  1.0000
  C   C85       1.0  0.68370  0.12900  0.76266  1.0000
  C   C86       1.0  0.18370  0.62900  0.76266  1.0000
  C   C87       1.0  0.31630  0.12900  0.73734  1.0000
  C   C88       1.0  0.81630  0.62900  0.73734  1.0000
  C   C89       1.0  0.27690  0.77070  0.23890  1.0000
  C   C90       1.0  0.77690  0.27070  0.23890  1.0000
  C   C91       1.0  0.72310  0.77070  0.26110  1.0000
  C   C92       1.0  0.22310  0.27070  0.26110  1.0000
  C   C93       1.0  0.72310  0.22930  0.76110  1.0000
  C   C94       1.0  0.22310  0.72930  0.76110  1.0000
  C   C95       1.0  0.27690  0.22930  0.73890  1.0000
  C   C96       1.0  0.77690  0.72930  0.73890  1.0000
  H   H49       1.0  0.26900  0.72480  0.27030  1.0000
  H   H50       1.0  0.76900  0.22480  0.27030  1.0000
  H   H51       1.0  0.73100  0.72480  0.22970  1.0000
  H   H52       1.0  0.23100  0.22480  0.22970  1.0000
  H   H53       1.0  0.73100  0.27520  0.72970  1.0000
  H   H54       1.0  0.23100  0.77520  0.72970  1.0000
  H   H55       1.0  0.26900  0.27520  0.77030  1.0000
  H   H56       1.0  0.76900  0.77520  0.77030  1.0000
  C   C97       1.0  0.24740  0.73400  0.19360  1.0000
  C   C98       1.0  0.74740  0.23400  0.19360  1.0000
  C   C99       1.0  0.75260  0.73400  0.30640  1.0000
  C   C100      1.0  0.25260  0.23400  0.30640  1.0000
  C   C101      1.0  0.75260  0.26600  0.80640  1.0000
  C   C102      1.0  0.25260  0.76600  0.80640  1.0000
  C   C103      1.0  0.24740  0.26600  0.69360  1.0000
  C   C104      1.0  0.74740  0.76600  0.69360  1.0000
  H   H57       1.0  0.21900  0.66890  0.19570  1.0000
  H   H58       1.0  0.71900  0.16890  0.19570  1.0000
  H   H59       1.0  0.78100  0.66890  0.30430  1.0000
  H   H60       1.0  0.28100  0.16890  0.30430  1.0000
  H   H61       1.0  0.78100  0.33110  0.80430  1.0000
  H   H62       1.0  0.28100  0.83110  0.80430  1.0000
  H   H63       1.0  0.21900  0.33110  0.69570  1.0000
  H   H64       1.0  0.71900  0.83110  0.69570  1.0000
  C   C105      1.0  0.34570  0.92140  0.28600  1.0000
  C   C106      1.0  0.84570  0.42140  0.28600  1.0000
  C   C107      1.0  0.65430  0.92140  0.21400  1.0000
  C   C108      1.0  0.15430  0.42140  0.21400  1.0000
  C   C109      1.0  0.65430  0.07860  0.71400  1.0000
  C   C110      1.0  0.15430  0.57860  0.71400  1.0000
  C   C111      1.0  0.34570  0.07860  0.78600  1.0000
  C   C112      1.0  0.84570  0.57860  0.78600  1.0000
  O   O65       1.0  0.37800  0.02650  0.28370  1.0000
  O   O66       1.0  0.87800  0.52650  0.28370  1.0000
  O   O67       1.0  0.62200  0.02650  0.21630  1.0000
  O   O68       1.0  0.12200  0.52650  0.21630  1.0000
  O   O69       1.0  0.62200  0.97350  0.71630  1.0000
  O   O70       1.0  0.12200  0.47350  0.71630  1.0000
  O   O71       1.0  0.37800  0.97350  0.78370  1.0000
  O   O72       1.0  0.87800  0.47350  0.78370  1.0000
  O   O73       1.0  0.33362  0.85730  0.32769  1.0000
  O   O74       1.0  0.83362  0.35730  0.32769  1.0000
  O   O75       1.0  0.66638  0.85730  0.17231  1.0000
  O   O76       1.0  0.16638  0.35730  0.17231  1.0000
  O   O77       1.0  0.66638  0.14270  0.67231  1.0000
  O   O78       1.0  0.16638  0.64270  0.67231  1.0000
  O   O79       1.0  0.33362  0.14270  0.82769  1.0000
  O   O80       1.0  0.83362  0.64270  0.82769  1.0000
