data_image0
_chemical_formula_structural       C8H2C2H2C2H2C2H2C2H2C6H2C2H2C2H2C2H2C2H2C8H2C2H2C2H2C2H2C2H2C2N4O16Rh4Ag2C4H2C2H2C2H2C2H2C2H2
_chemical_formula_sum              "C60 H40 N4 O16 Rh4 Ag2"
_cell_length_a       12.2802
_cell_length_b       13.3534
_cell_length_c       17.3652
_cell_angle_alpha    83.105
_cell_angle_beta     83.373
_cell_angle_gamma    64.333

_space_group_name_H-M_alt    "P 1"
_space_group_IT_number       1

loop_
  _space_group_symop_operation_xyz
  'x, y, z'

loop_
  _atom_site_type_symbol
  _atom_site_label
  _atom_site_symmetry_multiplicity
  _atom_site_fract_x
  _atom_site_fract_y
  _atom_site_fract_z
  _atom_site_occupancy
  C   C1        1.0  0.11290  0.70940  0.30910  1.0000
  C   C2        1.0  0.88710  0.29060  0.69090  1.0000
  C   C3        1.0  0.78570  0.56470  0.44990  1.0000
  C   C4        1.0  0.21430  0.43530  0.55010  1.0000
  C   C5        1.0  0.65720  0.61380  0.42790  1.0000
  C   C6        1.0  0.34280  0.38620  0.57210  1.0000
  C   C7        1.0  0.57050  0.60270  0.47920  1.0000
  C   C8        1.0  0.42950  0.39730  0.52080  1.0000
  H   H1        1.0  0.59010  0.56280  0.52720  1.0000
  H   H2        1.0  0.40990  0.43720  0.47280  1.0000
  C   C9        1.0  0.45080  0.65280  0.45810  1.0000
  C   C10       1.0  0.54920  0.34720  0.54190  1.0000
  H   H3        1.0  0.39050  0.64730  0.49360  1.0000
  H   H4        1.0  0.60950  0.35270  0.50640  1.0000
  C   C11       1.0  0.41980  0.70790  0.38940  1.0000
  C   C12       1.0  0.58020  0.29210  0.61060  1.0000
  H   H5        1.0  0.33930  0.73990  0.37730  1.0000
  H   H6        1.0  0.66070  0.26010  0.62270  1.0000
  C   C13       1.0  0.50440  0.71700  0.33820  1.0000
  C   C14       1.0  0.49560  0.28300  0.66180  1.0000
  H   H7        1.0  0.48360  0.75440  0.28960  1.0000
  H   H8        1.0  0.51640  0.24560  0.71040  1.0000
  C   C15       1.0  0.62360  0.67100  0.35710  1.0000
  C   C16       1.0  0.37640  0.32900  0.64290  1.0000
  H   H9        1.0  0.68210  0.67890  0.32110  1.0000
  H   H10       1.0  0.31790  0.32110  0.67890  1.0000
  C   C17       1.0  0.11030  0.32650  0.42000  1.0000
  C   C18       1.0  0.88970  0.67350  0.58000  1.0000
  C   C19       1.0  0.18750  0.22460  0.37700  1.0000
  C   C20       1.0  0.81250  0.77540  0.62300  1.0000
  C   C21       1.0  0.20360  0.22970  0.29810  1.0000
  C   C22       1.0  0.79640  0.77030  0.70190  1.0000
  H   H11       1.0  0.17000  0.29850  0.26980  1.0000
  H   H12       1.0  0.83000  0.70150  0.73020  1.0000
  C   C23       1.0  0.26880  0.13490  0.25920  1.0000
  C   C24       1.0  0.73120  0.86510  0.74080  1.0000
  H   H13       1.0  0.27910  0.14040  0.20520  1.0000
  H   H14       1.0  0.72090  0.85960  0.79480  1.0000
  C   C25       1.0  0.31830  0.03320  0.29940  1.0000
  C   C26       1.0  0.68170  0.96680  0.70060  1.0000
  H   H15       1.0  0.36120  0.96910  0.27320  1.0000
  H   H16       1.0  0.63880  0.03090  0.72680  1.0000
  C   C27       1.0  0.30390  0.02630  0.37940  1.0000
  C   C28       1.0  0.69610  0.97370  0.62060  1.0000
  H   H17       1.0  0.33890  0.95720  0.40710  1.0000
  H   H18       1.0  0.66110  0.04280  0.59290  1.0000
  C   C29       1.0  0.23810  0.12110  0.41960  1.0000
  C   C30       1.0  0.76190  0.87890  0.58040  1.0000
  H   H19       1.0  0.22790  0.11580  0.47360  1.0000
  H   H20       1.0  0.77210  0.88420  0.52640  1.0000
  C   C31       1.0  0.24120  0.89750  0.15740  1.0000
  C   C32       1.0  0.75880  0.10250  0.84260  1.0000
  C   C33       1.0  0.37750  0.03670  0.87810  1.0000
  C   C34       1.0  0.62250  0.96330  0.12190  1.0000
  C   C35       1.0  0.31150  0.05180  0.80800  1.0000
  C   C36       1.0  0.68850  0.94820  0.19200  1.0000
  C   C37       1.0  0.35430  0.07890  0.73580  1.0000
  C   C38       1.0  0.64570  0.92110  0.26420  1.0000
  H   H21       1.0  0.42590  0.08790  0.72980  1.0000
  H   H22       1.0  0.57410  0.91210  0.27020  1.0000
  C   C39       1.0  0.29010  0.09270  0.67180  1.0000
  C   C40       1.0  0.70990  0.90730  0.32820  1.0000
  H   H23       1.0  0.31990  0.11030  0.62300  1.0000
  H   H24       1.0  0.68010  0.88970  0.37700  1.0000
  C   C41       1.0  0.18570  0.08130  0.67830  1.0000
  C   C42       1.0  0.81430  0.91870  0.32170  1.0000
  H   H25       1.0  0.14150  0.09420  0.63520  1.0000
  H   H26       1.0  0.85850  0.90580  0.36480  1.0000
  C   C43       1.0  0.14650  0.05010  0.75020  1.0000
  C   C44       1.0  0.85350  0.94990  0.24980  1.0000
  H   H27       1.0  0.07800  0.03630  0.75490  1.0000
  H   H28       1.0  0.92200  0.96370  0.24510  1.0000
  C   C45       1.0  0.20530  0.03860  0.81560  1.0000
  C   C46       1.0  0.79470  0.96140  0.18440  1.0000
  H   H29       1.0  0.17400  0.02220  0.86430  1.0000
  H   H30       1.0  0.82600  0.97780  0.13570  1.0000
  C   C47       1.0  0.39590  0.20810  0.03080  1.0000
  C   C48       1.0  0.60410  0.79190  0.96920  1.0000
  N   N1        1.0  0.07660  0.65840  0.35280  1.0000
  N   N2        1.0  0.92340  0.34160  0.64720  1.0000
  N   N3        1.0  0.28770  0.93960  0.11650  1.0000
  N   N4        1.0  0.71230  0.06040  0.88350  1.0000
  O   O1        1.0  0.85670  0.59930  0.40890  1.0000
  O   O2        1.0  0.14330  0.40070  0.59110  1.0000
  O   O3        1.0  0.10070  0.41960  0.38540  1.0000
  O   O4        1.0  0.89930  0.58040  0.61460  1.0000
  O   O5        1.0  0.33020  0.01520  0.94320  1.0000
  O   O6        1.0  0.66980  0.98480  0.05680  1.0000
  O   O7        1.0  0.34290  0.14710  0.05960  1.0000
  O   O8        1.0  0.65710  0.85290  0.94040  1.0000
  O   O9        1.0  0.47530  0.04810  0.86800  1.0000
  O   O10       1.0  0.52470  0.95190  0.13200  1.0000
  O   O11       1.0  0.49060  0.17880  0.98670  1.0000
  O   O12       1.0  0.50940  0.82120  0.01330  1.0000
  O   O13       1.0  0.81310  0.49390  0.50790  1.0000
  O   O14       1.0  0.18690  0.50610  0.49210  1.0000
  O   O15       1.0  0.06350  0.31170  0.48620  1.0000
  O   O16       1.0  0.93650  0.68830  0.51380  1.0000
  Rh  Rh1       1.0  0.02349  0.55625  0.44734  1.0000
  Rh  Rh2       1.0  0.97651  0.44375  0.55266  1.0000
  Rh  Rh3       1.0  0.42221  0.98286  0.04004  1.0000
  Rh  Rh4       1.0  0.57779  0.01714  0.95996  1.0000
  Ag  Ag1       1.0  0.17402  0.80463  0.23364  1.0000
  Ag  Ag2       1.0  0.82598  0.19537  0.76636  1.0000
  C   C49       1.0  0.34370  0.32500  0.04960  1.0000
  C   C50       1.0  0.65630  0.67500  0.95040  1.0000
  C   C51       1.0  0.22690  0.37360  0.08440  1.0000
  C   C52       1.0  0.77310  0.62640  0.91560  1.0000
  H   H31       1.0  0.18200  0.33200  0.09610  1.0000
  H   H32       1.0  0.81800  0.66800  0.90390  1.0000
  C   C53       1.0  0.17710  0.48430  0.10170  1.0000
  C   C54       1.0  0.82290  0.51570  0.89830  1.0000
  H   H33       1.0  0.09900  0.51690  0.12500  1.0000
  H   H34       1.0  0.90100  0.48310  0.87500  1.0000
  C   C55       1.0  0.24420  0.54650  0.08410  1.0000
  C   C56       1.0  0.75580  0.45350  0.91590  1.0000
  H   H35       1.0  0.21090  0.62060  0.09570  1.0000
  H   H36       1.0  0.78910  0.37940  0.90430  1.0000
  C   C57       1.0  0.36100  0.49780  0.04930  1.0000
  C   C58       1.0  0.63900  0.50220  0.95070  1.0000
  H   H37       1.0  0.40590  0.53940  0.03760  1.0000
  H   H38       1.0  0.59410  0.46060  0.96240  1.0000
  C   C59       1.0  0.41070  0.38710  0.03200  1.0000
  C   C60       1.0  0.58930  0.61290  0.96800  1.0000
  H   H39       1.0  0.48890  0.35450  0.00870  1.0000
  H   H40       1.0  0.51110  0.64550  0.99130  1.0000
