data_image0
_chemical_formula_structural       Zn8P8O24C16H8C8H8C16H8C8H8C8O16
_chemical_formula_sum              "Zn8 P8 O40 C56 H32"
_cell_length_a       22.071
_cell_length_b       5.4007
_cell_length_c       20.256
_cell_angle_alpha    90
_cell_angle_beta     108.335
_cell_angle_gamma    90

_space_group_name_H-M_alt    "P 1"
_space_group_IT_number       1

loop_
  _space_group_symop_operation_xyz
  'x, y, z'

loop_
  _atom_site_type_symbol
  _atom_site_label
  _atom_site_symmetry_multiplicity
  _atom_site_fract_x
  _atom_site_fract_y
  _atom_site_fract_z
  _atom_site_occupancy
  Zn  Zn1       1.0  0.19623  0.54972  0.04043  1.0000
  Zn  Zn2       1.0  0.69623  0.04972  0.04043  1.0000
  Zn  Zn3       1.0  0.80377  0.54972  0.45957  1.0000
  Zn  Zn4       1.0  0.30377  0.04972  0.45957  1.0000
  Zn  Zn5       1.0  0.80377  0.45028  0.95957  1.0000
  Zn  Zn6       1.0  0.30377  0.95028  0.95957  1.0000
  Zn  Zn7       1.0  0.19623  0.45028  0.54043  1.0000
  Zn  Zn8       1.0  0.69623  0.95028  0.54043  1.0000
  P   P1        1.0  0.27379  0.04456  0.09652  1.0000
  P   P2        1.0  0.77379  0.54456  0.09652  1.0000
  P   P3        1.0  0.72621  0.04456  0.40348  1.0000
  P   P4        1.0  0.22621  0.54456  0.40348  1.0000
  P   P5        1.0  0.72621  0.95544  0.90348  1.0000
  P   P6        1.0  0.22621  0.45544  0.90348  1.0000
  P   P7        1.0  0.27379  0.95544  0.59652  1.0000
  P   P8        1.0  0.77379  0.45544  0.59652  1.0000
  O   O1        1.0  0.21318  0.88950  0.07137  1.0000
  O   O2        1.0  0.71318  0.38950  0.07137  1.0000
  O   O3        1.0  0.78682  0.88950  0.42863  1.0000
  O   O4        1.0  0.28682  0.38950  0.42863  1.0000
  O   O5        1.0  0.78682  0.11050  0.92863  1.0000
  O   O6        1.0  0.28682  0.61050  0.92863  1.0000
  O   O7        1.0  0.21318  0.11050  0.57137  1.0000
  O   O8        1.0  0.71318  0.61050  0.57137  1.0000
  O   O9        1.0  0.32237  0.97290  0.05982  1.0000
  O   O10       1.0  0.82237  0.47290  0.05982  1.0000
  O   O11       1.0  0.67763  0.97290  0.44018  1.0000
  O   O12       1.0  0.17763  0.47290  0.44018  1.0000
  O   O13       1.0  0.67763  0.02710  0.94018  1.0000
  O   O14       1.0  0.17763  0.52710  0.94018  1.0000
  O   O15       1.0  0.32237  0.02710  0.55982  1.0000
  O   O16       1.0  0.82237  0.52710  0.55982  1.0000
  O   O17       1.0  0.26014  0.32190  0.09259  1.0000
  O   O18       1.0  0.76014  0.82190  0.09259  1.0000
  O   O19       1.0  0.73986  0.32190  0.40741  1.0000
  O   O20       1.0  0.23986  0.82190  0.40741  1.0000
  O   O21       1.0  0.73986  0.67810  0.90741  1.0000
  O   O22       1.0  0.23986  0.17810  0.90741  1.0000
  O   O23       1.0  0.26014  0.67810  0.59259  1.0000
  O   O24       1.0  0.76014  0.17810  0.59259  1.0000
  C   C1        1.0  0.31223  0.98070  0.18825  1.0000
  C   C2        1.0  0.81223  0.48070  0.18825  1.0000
  C   C3        1.0  0.68777  0.98070  0.31175  1.0000
  C   C4        1.0  0.18777  0.48070  0.31175  1.0000
  C   C5        1.0  0.68777  0.01930  0.81175  1.0000
  C   C6        1.0  0.18777  0.51930  0.81175  1.0000
  C   C7        1.0  0.31223  0.01930  0.68825  1.0000
  C   C8        1.0  0.81223  0.51930  0.68825  1.0000
  C   C9        1.0  0.34735  0.76390  0.21011  1.0000
  C   C10       1.0  0.84735  0.26390  0.21011  1.0000
  C   C11       1.0  0.65265  0.76390  0.28989  1.0000
  C   C12       1.0  0.15265  0.26390  0.28989  1.0000
  C   C13       1.0  0.65265  0.23610  0.78989  1.0000
  C   C14       1.0  0.15265  0.73610  0.78989  1.0000
  C   C15       1.0  0.34735  0.23610  0.71011  1.0000
  C   C16       1.0  0.84735  0.73610  0.71011  1.0000
  H   H1        1.0  0.35100  0.64980  0.17720  1.0000
  H   H2        1.0  0.85100  0.14980  0.17720  1.0000
  H   H3        1.0  0.64900  0.64980  0.32280  1.0000
  H   H4        1.0  0.14900  0.14980  0.32280  1.0000
  H   H5        1.0  0.64900  0.35020  0.82280  1.0000
  H   H6        1.0  0.14900  0.85020  0.82280  1.0000
  H   H7        1.0  0.35100  0.35020  0.67720  1.0000
  H   H8        1.0  0.85100  0.85020  0.67720  1.0000
  C   C17       1.0  0.37696  0.71650  0.28023  1.0000
  C   C18       1.0  0.87696  0.21650  0.28023  1.0000
  C   C19       1.0  0.62304  0.71650  0.21977  1.0000
  C   C20       1.0  0.12304  0.21650  0.21977  1.0000
  C   C21       1.0  0.62304  0.28350  0.71977  1.0000
  C   C22       1.0  0.12304  0.78350  0.71977  1.0000
  C   C23       1.0  0.37696  0.28350  0.78023  1.0000
  C   C24       1.0  0.87696  0.78350  0.78023  1.0000
  H   H9        1.0  0.40080  0.57260  0.29380  1.0000
  H   H10       1.0  0.90080  0.07260  0.29380  1.0000
  H   H11       1.0  0.59920  0.57260  0.20620  1.0000
  H   H12       1.0  0.09920  0.07260  0.20620  1.0000
  H   H13       1.0  0.59920  0.42740  0.70620  1.0000
  H   H14       1.0  0.09920  0.92740  0.70620  1.0000
  H   H15       1.0  0.40080  0.42740  0.79380  1.0000
  H   H16       1.0  0.90080  0.92740  0.79380  1.0000
  C   C25       1.0  0.37107  0.88460  0.33074  1.0000
  C   C26       1.0  0.87107  0.38460  0.33074  1.0000
  C   C27       1.0  0.62893  0.88460  0.16926  1.0000
  C   C28       1.0  0.12893  0.38460  0.16926  1.0000
  C   C29       1.0  0.62893  0.11540  0.66926  1.0000
  C   C30       1.0  0.12893  0.61540  0.66926  1.0000
  C   C31       1.0  0.37107  0.11540  0.83074  1.0000
  C   C32       1.0  0.87107  0.61540  0.83074  1.0000
  C   C33       1.0  0.33568  0.09740  0.30935  1.0000
  C   C34       1.0  0.83568  0.59740  0.30935  1.0000
  C   C35       1.0  0.66432  0.09740  0.19065  1.0000
  C   C36       1.0  0.16432  0.59740  0.19065  1.0000
  C   C37       1.0  0.66432  0.90260  0.69065  1.0000
  C   C38       1.0  0.16432  0.40260  0.69065  1.0000
  C   C39       1.0  0.33568  0.90260  0.80935  1.0000
  C   C40       1.0  0.83568  0.40260  0.80935  1.0000
  H   H17       1.0  0.33130  0.20960  0.34240  1.0000
  H   H18       1.0  0.83130  0.70960  0.34240  1.0000
  H   H19       1.0  0.66870  0.20960  0.15760  1.0000
  H   H20       1.0  0.16870  0.70960  0.15760  1.0000
  H   H21       1.0  0.66870  0.79040  0.65760  1.0000
  H   H22       1.0  0.16870  0.29040  0.65760  1.0000
  H   H23       1.0  0.33130  0.79040  0.84240  1.0000
  H   H24       1.0  0.83130  0.29040  0.84240  1.0000
  C   C41       1.0  0.30652  0.14600  0.23897  1.0000
  C   C42       1.0  0.80652  0.64600  0.23897  1.0000
  C   C43       1.0  0.69348  0.14600  0.26103  1.0000
  C   C44       1.0  0.19348  0.64600  0.26103  1.0000
  C   C45       1.0  0.69348  0.85400  0.76103  1.0000
  C   C46       1.0  0.19348  0.35400  0.76103  1.0000
  C   C47       1.0  0.30652  0.85400  0.73897  1.0000
  C   C48       1.0  0.80652  0.35400  0.73897  1.0000
  H   H25       1.0  0.28290  0.29050  0.22560  1.0000
  H   H26       1.0  0.78290  0.79050  0.22560  1.0000
  H   H27       1.0  0.71710  0.29050  0.27440  1.0000
  H   H28       1.0  0.21710  0.79050  0.27440  1.0000
  H   H29       1.0  0.71710  0.70950  0.77440  1.0000
  H   H30       1.0  0.21710  0.20950  0.77440  1.0000
  H   H31       1.0  0.28290  0.70950  0.72560  1.0000
  H   H32       1.0  0.78290  0.20950  0.72560  1.0000
  C   C49       1.0  0.40481  0.82800  0.40646  1.0000
  C   C50       1.0  0.90481  0.32800  0.40646  1.0000
  C   C51       1.0  0.59519  0.82800  0.09354  1.0000
  C   C52       1.0  0.09519  0.32800  0.09354  1.0000
  C   C53       1.0  0.59519  0.17200  0.59354  1.0000
  C   C54       1.0  0.09519  0.67200  0.59354  1.0000
  C   C55       1.0  0.40481  0.17200  0.90646  1.0000
  C   C56       1.0  0.90481  0.67200  0.90646  1.0000
  O   O25       1.0  0.38938  0.95490  0.45314  1.0000
  O   O26       1.0  0.88938  0.45490  0.45314  1.0000
  O   O27       1.0  0.61062  0.95490  0.04686  1.0000
  O   O28       1.0  0.11062  0.45490  0.04686  1.0000
  O   O29       1.0  0.61062  0.04510  0.54686  1.0000
  O   O30       1.0  0.11062  0.54510  0.54686  1.0000
  O   O31       1.0  0.38938  0.04510  0.95314  1.0000
  O   O32       1.0  0.88938  0.54510  0.95314  1.0000
  O   O33       1.0  0.44802  0.67210  0.42226  1.0000
  O   O34       1.0  0.94802  0.17210  0.42226  1.0000
  O   O35       1.0  0.55198  0.67210  0.07774  1.0000
  O   O36       1.0  0.05198  0.17210  0.07774  1.0000
  O   O37       1.0  0.55198  0.32790  0.57774  1.0000
  O   O38       1.0  0.05198  0.82790  0.57774  1.0000
  O   O39       1.0  0.44802  0.32790  0.92226  1.0000
  O   O40       1.0  0.94802  0.82790  0.92226  1.0000
