data_image0
_chemical_formula_structural       U8O40C8O8C32O4H8
_chemical_formula_sum              "U8 O52 C40 H8"
_cell_length_a       13.5546
_cell_length_b       14.6026
_cell_length_c       11.7865
_cell_angle_alpha    90
_cell_angle_beta     110.728
_cell_angle_gamma    90

_space_group_name_H-M_alt    "P 1"
_space_group_IT_number       1

loop_
  _space_group_symop_operation_xyz
  'x, y, z'

loop_
  _atom_site_type_symbol
  _atom_site_label
  _atom_site_symmetry_multiplicity
  _atom_site_fract_x
  _atom_site_fract_y
  _atom_site_fract_z
  _atom_site_occupancy
  U   U1        1.0  0.50196  0.01980  0.34723  1.0000
  U   U2        1.0  0.49804  0.51980  0.15277  1.0000
  U   U3        1.0  0.49804  0.98020  0.65277  1.0000
  U   U4        1.0  0.50196  0.48020  0.84723  1.0000
  U   U5        1.0  0.22281  0.01971  0.39147  1.0000
  U   U6        1.0  0.77719  0.51971  0.10853  1.0000
  U   U7        1.0  0.77719  0.98029  0.60853  1.0000
  U   U8        1.0  0.22281  0.48029  0.89147  1.0000
  O   O1        1.0  0.21750  0.14110  0.38900  1.0000
  O   O2        1.0  0.78250  0.64110  0.11100  1.0000
  O   O3        1.0  0.78250  0.85890  0.61100  1.0000
  O   O4        1.0  0.21750  0.35890  0.88900  1.0000
  O   O5        1.0  0.22160  0.90060  0.39320  1.0000
  O   O6        1.0  0.77840  0.40060  0.10680  1.0000
  O   O7        1.0  0.77840  0.09940  0.60680  1.0000
  O   O8        1.0  0.22160  0.59940  0.89320  1.0000
  O   O9        1.0  0.52580  0.13850  0.37840  1.0000
  O   O10       1.0  0.47420  0.63850  0.12160  1.0000
  O   O11       1.0  0.47420  0.86150  0.62160  1.0000
  O   O12       1.0  0.52580  0.36150  0.87840  1.0000
  O   O13       1.0  0.47710  0.90360  0.30600  1.0000
  O   O14       1.0  0.52290  0.40360  0.19400  1.0000
  O   O15       1.0  0.52290  0.09640  0.69400  1.0000
  O   O16       1.0  0.47710  0.59640  0.80600  1.0000
  O   O17       1.0  0.03760  0.01220  0.30840  1.0000
  O   O18       1.0  0.96240  0.51220  0.19160  1.0000
  O   O19       1.0  0.96240  0.98780  0.69160  1.0000
  O   O20       1.0  0.03760  0.48780  0.80840  1.0000
  O   O21       1.0  0.85520  0.96920  0.44220  1.0000
  O   O22       1.0  0.14480  0.46920  0.05780  1.0000
  O   O23       1.0  0.14480  0.03080  0.55780  1.0000
  O   O24       1.0  0.85520  0.53080  0.94220  1.0000
  O   O25       1.0  0.84420  0.99450  0.83920  1.0000
  O   O26       1.0  0.15580  0.49450  0.66080  1.0000
  O   O27       1.0  0.15580  0.00550  0.16080  1.0000
  O   O28       1.0  0.84420  0.50550  0.33920  1.0000
  O   O29       1.0  0.51290  0.94790  0.85790  1.0000
  O   O30       1.0  0.48710  0.44790  0.64210  1.0000
  O   O31       1.0  0.48710  0.05210  0.14210  1.0000
  O   O32       1.0  0.51290  0.55210  0.35790  1.0000
  O   O33       1.0  0.68250  0.94710  0.77370  1.0000
  O   O34       1.0  0.31750  0.44710  0.72630  1.0000
  O   O35       1.0  0.31750  0.05290  0.22630  1.0000
  O   O36       1.0  0.68250  0.55290  0.27370  1.0000
  O   O37       1.0  0.39640  0.01340  0.45910  1.0000
  O   O38       1.0  0.60360  0.51340  0.04090  1.0000
  O   O39       1.0  0.60360  0.98660  0.54090  1.0000
  O   O40       1.0  0.39640  0.48660  0.95910  1.0000
  C   C1        1.0  0.85730  0.01150  0.19830  1.0000
  C   C2        1.0  0.14270  0.51150  0.30170  1.0000
  C   C3        1.0  0.14270  0.98850  0.80170  1.0000
  C   C4        1.0  0.85730  0.48850  0.69830  1.0000
  C   C5        1.0  0.95310  0.05540  0.29130  1.0000
  C   C6        1.0  0.04690  0.55540  0.20870  1.0000
  C   C7        1.0  0.04690  0.94460  0.70870  1.0000
  C   C8        1.0  0.95310  0.44460  0.79130  1.0000
  O   O41       1.0  0.94330  0.12750  0.33630  1.0000
  O   O42       1.0  0.05670  0.62750  0.16370  1.0000
  O   O43       1.0  0.05670  0.87250  0.66370  1.0000
  O   O44       1.0  0.94330  0.37250  0.83630  1.0000
  O   O45       1.0  0.68590  0.99700  0.36890  1.0000
  O   O46       1.0  0.31410  0.49700  0.13110  1.0000
  O   O47       1.0  0.31410  0.00300  0.63110  1.0000
  O   O48       1.0  0.68590  0.50300  0.86890  1.0000
  C   C9        1.0  0.68550  0.94060  0.13620  1.0000
  C   C10       1.0  0.31450  0.44060  0.36380  1.0000
  C   C11       1.0  0.31450  0.05940  0.86380  1.0000
  C   C12       1.0  0.68550  0.55940  0.63620  1.0000
  C   C13       1.0  0.77030  0.97880  0.22570  1.0000
  C   C14       1.0  0.22970  0.47880  0.27430  1.0000
  C   C15       1.0  0.22970  0.02120  0.77430  1.0000
  C   C16       1.0  0.77030  0.52120  0.72570  1.0000
  C   C17       1.0  0.67980  0.93850  0.01590  1.0000
  C   C18       1.0  0.32020  0.43850  0.48410  1.0000
  C   C19       1.0  0.32020  0.06150  0.98410  1.0000
  C   C20       1.0  0.67980  0.56150  0.51590  1.0000
  C   C21       1.0  0.85300  0.00710  0.07820  1.0000
  C   C22       1.0  0.14700  0.50710  0.42180  1.0000
  C   C23       1.0  0.14700  0.99290  0.92180  1.0000
  C   C24       1.0  0.85300  0.49290  0.57820  1.0000
  C   C25       1.0  0.76390  0.97230  0.98800  1.0000
  C   C26       1.0  0.23610  0.47230  0.51200  1.0000
  C   C27       1.0  0.23610  0.02770  0.01200  1.0000
  C   C28       1.0  0.76390  0.52770  0.48800  1.0000
  C   C29       1.0  0.76400  0.97310  0.85960  1.0000
  C   C30       1.0  0.23600  0.47310  0.64040  1.0000
  C   C31       1.0  0.23600  0.02690  0.14040  1.0000
  C   C32       1.0  0.76400  0.52690  0.35960  1.0000
  C   C33       1.0  0.77190  0.98290  0.35310  1.0000
  C   C34       1.0  0.22810  0.48290  0.14690  1.0000
  C   C35       1.0  0.22810  0.01710  0.64690  1.0000
  C   C36       1.0  0.77190  0.51710  0.85310  1.0000
  C   C37       1.0  0.58220  0.89260  0.92470  1.0000
  C   C38       1.0  0.41780  0.39260  0.57530  1.0000
  C   C39       1.0  0.41780  0.10740  0.07530  1.0000
  C   C40       1.0  0.58220  0.60740  0.42470  1.0000
  O   O49       1.0  0.57580  0.80940  0.92990  1.0000
  O   O50       1.0  0.42420  0.30940  0.57010  1.0000
  O   O51       1.0  0.42420  0.19060  0.07010  1.0000
  O   O52       1.0  0.57580  0.69060  0.42990  1.0000
  H   H1        1.0  0.62893  0.91492  0.15697  1.0000
  H   H2        1.0  0.37107  0.41492  0.34303  1.0000
  H   H3        1.0  0.37107  0.08508  0.84303  1.0000
  H   H4        1.0  0.62893  0.58508  0.65697  1.0000
  H   H5        1.0  0.91169  0.02819  0.05781  1.0000
  H   H6        1.0  0.08831  0.52819  0.44219  1.0000
  H   H7        1.0  0.08831  0.97181  0.94219  1.0000
  H   H8        1.0  0.91169  0.47181  0.55781  1.0000
