data_image0
_chemical_formula_structural       In4O40C12H4C12H4C8H4C4H4C4H4C4H4C8H4C8H4C8H4C8H4C4H4C4H4C4H4C4H4C4H4C8H4C8
_chemical_formula_sum              "In4 O40 C112 H64"
_cell_length_a       22.748
_cell_length_b       15.8466
_cell_length_c       15.1126
_cell_angle_alpha    90
_cell_angle_beta     90
_cell_angle_gamma    90

_space_group_name_H-M_alt    "P 1"
_space_group_IT_number       1

loop_
  _space_group_symop_operation_xyz
  'x, y, z'

loop_
  _atom_site_type_symbol
  _atom_site_label
  _atom_site_symmetry_multiplicity
  _atom_site_fract_x
  _atom_site_fract_y
  _atom_site_fract_z
  _atom_site_occupancy
  In  In1       1.0  0.17101  0.60203  0.86692  1.0000
  In  In2       1.0  0.17101  0.39797  0.36692  1.0000
  In  In3       1.0  0.67101  0.10203  0.86692  1.0000
  In  In4       1.0  0.67101  0.89797  0.36692  1.0000
  O   O1        1.0  0.13170  0.70150  0.77310  1.0000
  O   O2        1.0  0.13170  0.29850  0.27310  1.0000
  O   O3        1.0  0.63170  0.20150  0.77310  1.0000
  O   O4        1.0  0.63170  0.79850  0.27310  1.0000
  O   O5        1.0  0.11024  0.67140  0.96150  1.0000
  O   O6        1.0  0.11024  0.32860  0.46150  1.0000
  O   O7        1.0  0.61024  0.17140  0.96150  1.0000
  O   O8        1.0  0.61024  0.82860  0.46150  1.0000
  O   O9        1.0  0.70119  0.96020  0.85510  1.0000
  O   O10       1.0  0.70119  0.03980  0.35510  1.0000
  O   O11       1.0  0.20119  0.46020  0.85510  1.0000
  O   O12       1.0  0.20119  0.53980  0.35510  1.0000
  O   O13       1.0  0.73672  0.80200  0.42360  1.0000
  O   O14       1.0  0.73672  0.19800  0.92360  1.0000
  O   O15       1.0  0.23672  0.30200  0.42360  1.0000
  O   O16       1.0  0.23672  0.69800  0.92360  1.0000
  O   O17       1.0  0.14635  0.57190  0.72570  1.0000
  O   O18       1.0  0.14635  0.42810  0.22570  1.0000
  O   O19       1.0  0.64635  0.07190  0.72570  1.0000
  O   O20       1.0  0.64635  0.92810  0.22570  1.0000
  O   O21       1.0  0.07655  0.55890  0.89430  1.0000
  O   O22       1.0  0.07655  0.44110  0.39430  1.0000
  O   O23       1.0  0.57655  0.05890  0.89430  1.0000
  O   O24       1.0  0.57655  0.94110  0.39430  1.0000
  O   O25       1.0  0.76090  0.87560  0.30890  1.0000
  O   O26       1.0  0.76090  0.12440  0.80890  1.0000
  O   O27       1.0  0.26090  0.37560  0.30890  1.0000
  O   O28       1.0  0.26090  0.62440  0.80890  1.0000
  O   O29       1.0  0.70414  0.02570  0.98340  1.0000
  O   O30       1.0  0.70414  0.97430  0.48340  1.0000
  O   O31       1.0  0.20414  0.52570  0.98340  1.0000
  O   O32       1.0  0.20414  0.47430  0.48340  1.0000
  O   O33       1.0  0.01125  0.71820  0.39150  1.0000
  O   O34       1.0  0.01125  0.28180  0.89150  1.0000
  O   O35       1.0  0.51125  0.21820  0.39150  1.0000
  O   O36       1.0  0.51125  0.78180  0.89150  1.0000
  O   O37       1.0  0.84266  0.69020  0.08320  1.0000
  O   O38       1.0  0.84266  0.30980  0.58320  1.0000
  O   O39       1.0  0.34266  0.19020  0.08320  1.0000
  O   O40       1.0  0.34266  0.80980  0.58320  1.0000
  C   C1        1.0  0.00920  0.63750  0.98280  1.0000
  C   C2        1.0  0.00920  0.36250  0.48280  1.0000
  C   C3        1.0  0.50920  0.13750  0.98280  1.0000
  C   C4        1.0  0.50920  0.86250  0.48280  1.0000
  C   C5        1.0  0.83600  0.79130  0.37420  1.0000
  C   C6        1.0  0.83600  0.20870  0.87420  1.0000
  C   C7        1.0  0.33600  0.29130  0.37420  1.0000
  C   C8        1.0  0.33600  0.70870  0.87420  1.0000
  C   C9        1.0  0.87760  0.81440  0.30970  1.0000
  C   C10       1.0  0.87760  0.18560  0.80970  1.0000
  C   C11       1.0  0.37760  0.31440  0.30970  1.0000
  C   C12       1.0  0.37760  0.68560  0.80970  1.0000
  H   H1        1.0  0.86600  0.84670  0.26140  1.0000
  H   H2        1.0  0.86600  0.15330  0.76140  1.0000
  H   H3        1.0  0.36600  0.34670  0.26140  1.0000
  H   H4        1.0  0.36600  0.65330  0.76140  1.0000
  C   C13       1.0  0.77540  0.82400  0.36870  1.0000
  C   C14       1.0  0.77540  0.17600  0.86870  1.0000
  C   C15       1.0  0.27540  0.32400  0.36870  1.0000
  C   C16       1.0  0.27540  0.67600  0.86870  1.0000
  C   C17       1.0  0.09770  0.66650  0.62730  1.0000
  C   C18       1.0  0.09770  0.33350  0.12730  1.0000
  C   C19       1.0  0.59770  0.16650  0.62730  1.0000
  C   C20       1.0  0.59770  0.83350  0.12730  1.0000
  C   C21       1.0  0.07470  0.74590  0.61220  1.0000
  C   C22       1.0  0.07470  0.25410  0.11220  1.0000
  C   C23       1.0  0.57470  0.24590  0.61220  1.0000
  C   C24       1.0  0.57470  0.75410  0.11220  1.0000
  H   H5        1.0  0.07960  0.78790  0.65460  1.0000
  H   H6        1.0  0.07960  0.21210  0.15460  1.0000
  H   H7        1.0  0.57960  0.28790  0.65460  1.0000
  H   H8        1.0  0.57960  0.71210  0.15460  1.0000
  C   C25       1.0  0.03790  0.70060  0.47210  1.0000
  C   C26       1.0  0.03790  0.29940  0.97210  1.0000
  C   C27       1.0  0.53790  0.20060  0.47210  1.0000
  C   C28       1.0  0.53790  0.79940  0.97210  1.0000
  C   C29       1.0  0.99460  0.71870  0.01310  1.0000
  C   C30       1.0  0.99460  0.28130  0.51310  1.0000
  C   C31       1.0  0.49460  0.21870  0.01310  1.0000
  C   C32       1.0  0.49460  0.78130  0.51310  1.0000
  H   H9        1.0  0.02260  0.76140  0.01040  1.0000
  H   H10       1.0  0.02260  0.23860  0.51040  1.0000
  H   H11       1.0  0.52260  0.26140  0.01040  1.0000
  H   H12       1.0  0.52260  0.73860  0.51040  1.0000
  C   C33       1.0  0.06190  0.62250  0.48330  1.0000
  C   C34       1.0  0.06190  0.37750  0.98330  1.0000
  C   C35       1.0  0.56190  0.12250  0.48330  1.0000
  C   C36       1.0  0.56190  0.87750  0.98330  1.0000
  H   H13       1.0  0.05820  0.58180  0.43930  1.0000
  H   H14       1.0  0.05820  0.41820  0.93930  1.0000
  H   H15       1.0  0.55820  0.08180  0.43930  1.0000
  H   H16       1.0  0.55820  0.91820  0.93930  1.0000
  C   C37       1.0  0.04450  0.76400  0.53490  1.0000
  C   C38       1.0  0.04450  0.23600  0.03490  1.0000
  C   C39       1.0  0.54450  0.26400  0.53490  1.0000
  C   C40       1.0  0.54450  0.73600  0.03490  1.0000
  H   H17       1.0  0.02890  0.81750  0.52520  1.0000
  H   H18       1.0  0.02890  0.18250  0.02520  1.0000
  H   H19       1.0  0.52890  0.31750  0.52520  1.0000
  H   H20       1.0  0.52890  0.68250  0.02520  1.0000
  C   C41       1.0  0.09230  0.60400  0.56250  1.0000
  C   C42       1.0  0.09230  0.39600  0.06250  1.0000
  C   C43       1.0  0.59230  0.10400  0.56250  1.0000
  C   C44       1.0  0.59230  0.89600  0.06250  1.0000
  H   H21       1.0  0.10860  0.55080  0.57140  1.0000
  H   H22       1.0  0.10860  0.44920  0.07140  1.0000
  H   H23       1.0  0.60860  0.05080  0.57140  1.0000
  H   H24       1.0  0.60860  0.94920  0.07140  1.0000
  C   C45       1.0  0.95320  0.74240  0.38970  1.0000
  C   C46       1.0  0.95320  0.25760  0.88970  1.0000
  C   C47       1.0  0.45320  0.24240  0.38970  1.0000
  C   C48       1.0  0.45320  0.75760  0.88970  1.0000
  C   C49       1.0  0.96660  0.57470  0.98850  1.0000
  C   C50       1.0  0.96660  0.42530  0.48850  1.0000
  C   C51       1.0  0.46660  0.07470  0.98850  1.0000
  C   C52       1.0  0.46660  0.92530  0.48850  1.0000
  H   H25       1.0  0.97560  0.52040  0.96960  1.0000
  H   H26       1.0  0.97560  0.47960  0.46960  1.0000
  H   H27       1.0  0.47560  0.02040  0.96960  1.0000
  H   H28       1.0  0.47560  0.97960  0.46960  1.0000
  C   C53       1.0  0.12650  0.64580  0.71280  1.0000
  C   C54       1.0  0.12650  0.35420  0.21280  1.0000
  C   C55       1.0  0.62650  0.14580  0.71280  1.0000
  C   C56       1.0  0.62650  0.85420  0.21280  1.0000
  C   C57       1.0  0.85340  0.74400  0.44470  1.0000
  C   C58       1.0  0.85340  0.25600  0.94470  1.0000
  C   C59       1.0  0.35340  0.24400  0.44470  1.0000
  C   C60       1.0  0.35340  0.75600  0.94470  1.0000
  H   H29       1.0  0.82590  0.72780  0.48690  1.0000
  H   H30       1.0  0.82590  0.27220  0.98690  1.0000
  H   H31       1.0  0.32590  0.22780  0.48690  1.0000
  H   H32       1.0  0.32590  0.77220  0.98690  1.0000
  C   C61       1.0  0.89800  0.67290  0.04950  1.0000
  C   C62       1.0  0.89800  0.32710  0.54950  1.0000
  C   C63       1.0  0.39800  0.17290  0.04950  1.0000
  C   C64       1.0  0.39800  0.82710  0.54950  1.0000
  C   C65       1.0  0.91090  0.59180  0.02190  1.0000
  C   C66       1.0  0.91090  0.40820  0.52190  1.0000
  C   C67       1.0  0.41090  0.09180  0.02190  1.0000
  C   C68       1.0  0.41090  0.90820  0.52190  1.0000
  H   H33       1.0  0.88280  0.54940  0.02570  1.0000
  H   H34       1.0  0.88280  0.45060  0.52570  1.0000
  H   H35       1.0  0.38280  0.04940  0.02570  1.0000
  H   H36       1.0  0.38280  0.95060  0.52570  1.0000
  C   C69       1.0  0.74850  0.88890  0.97350  1.0000
  C   C70       1.0  0.74850  0.11110  0.47350  1.0000
  C   C71       1.0  0.24850  0.38890  0.97350  1.0000
  C   C72       1.0  0.24850  0.61110  0.47350  1.0000
  C   C73       1.0  0.77770  0.83240  0.91990  1.0000
  C   C74       1.0  0.77770  0.16760  0.41990  1.0000
  C   C75       1.0  0.27770  0.33240  0.91990  1.0000
  C   C76       1.0  0.27770  0.66760  0.41990  1.0000
  H   H37       1.0  0.77500  0.83860  0.85890  1.0000
  H   H38       1.0  0.77500  0.16140  0.35890  1.0000
  H   H39       1.0  0.27500  0.33860  0.85890  1.0000
  H   H40       1.0  0.27500  0.66140  0.35890  1.0000
  C   C77       1.0  0.94020  0.73620  0.04640  1.0000
  C   C78       1.0  0.94020  0.26380  0.54640  1.0000
  C   C79       1.0  0.44020  0.23620  0.04640  1.0000
  C   C80       1.0  0.44020  0.76380  0.54640  1.0000
  H   H41       1.0  0.93140  0.79010  0.06690  1.0000
  H   H42       1.0  0.93140  0.20990  0.56690  1.0000
  H   H43       1.0  0.43140  0.29010  0.06690  1.0000
  H   H44       1.0  0.43140  0.70990  0.56690  1.0000
  C   C81       1.0  0.81050  0.76740  0.95340  1.0000
  C   C82       1.0  0.81050  0.23260  0.45340  1.0000
  C   C83       1.0  0.31050  0.26740  0.95340  1.0000
  C   C84       1.0  0.31050  0.73260  0.45340  1.0000
  H   H45       1.0  0.83110  0.73140  0.91590  1.0000
  H   H46       1.0  0.83110  0.26860  0.41590  1.0000
  H   H47       1.0  0.33110  0.23140  0.91590  1.0000
  H   H48       1.0  0.33110  0.76860  0.41590  1.0000
  C   C85       1.0  0.91260  0.71910  0.45470  1.0000
  C   C86       1.0  0.91260  0.28090  0.95470  1.0000
  C   C87       1.0  0.41260  0.21910  0.45470  1.0000
  C   C88       1.0  0.41260  0.78090  0.95470  1.0000
  H   H49       1.0  0.92440  0.68770  0.50360  1.0000
  H   H50       1.0  0.92440  0.31230  0.00360  1.0000
  H   H51       1.0  0.42440  0.18770  0.50360  1.0000
  H   H52       1.0  0.42440  0.81230  0.00360  1.0000
  C   C89       1.0  0.93550  0.78950  0.31730  1.0000
  C   C90       1.0  0.93550  0.21050  0.81730  1.0000
  C   C91       1.0  0.43550  0.28950  0.31730  1.0000
  C   C92       1.0  0.43550  0.71050  0.81730  1.0000
  H   H53       1.0  0.96260  0.80440  0.27400  1.0000
  H   H54       1.0  0.96260  0.19560  0.77400  1.0000
  H   H55       1.0  0.46260  0.30440  0.27400  1.0000
  H   H56       1.0  0.46260  0.69560  0.77400  1.0000
  C   C93       1.0  0.78220  0.81030  0.10100  1.0000
  C   C94       1.0  0.78220  0.18970  0.60100  1.0000
  C   C95       1.0  0.28220  0.31030  0.10100  1.0000
  C   C96       1.0  0.28220  0.68970  0.60100  1.0000
  H   H57       1.0  0.78310  0.80180  0.16180  1.0000
  H   H58       1.0  0.78310  0.19820  0.66180  1.0000
  H   H59       1.0  0.28310  0.30180  0.16180  1.0000
  H   H60       1.0  0.28310  0.69820  0.66180  1.0000
  C   C97       1.0  0.81240  0.75640  0.04530  1.0000
  C   C98       1.0  0.81240  0.24360  0.54530  1.0000
  C   C99       1.0  0.31240  0.25640  0.04530  1.0000
  C   C100      1.0  0.31240  0.74360  0.54530  1.0000
  C   C101      1.0  0.75050  0.87700  0.06610  1.0000
  C   C102      1.0  0.75050  0.12300  0.56610  1.0000
  C   C103      1.0  0.25050  0.37700  0.06610  1.0000
  C   C104      1.0  0.25050  0.62300  0.56610  1.0000
  H   H61       1.0  0.73060  0.91390  0.10350  1.0000
  H   H62       1.0  0.73060  0.08610  0.60350  1.0000
  H   H63       1.0  0.23060  0.41390  0.10350  1.0000
  H   H64       1.0  0.23060  0.58610  0.60350  1.0000
  C   C105      1.0  0.71640  0.96220  0.93660  1.0000
  C   C106      1.0  0.71640  0.03780  0.43660  1.0000
  C   C107      1.0  0.21640  0.46220  0.93660  1.0000
  C   C108      1.0  0.21640  0.53780  0.43660  1.0000
  C   C109      1.0  0.06800  0.62040  0.94440  1.0000
  C   C110      1.0  0.06800  0.37960  0.44440  1.0000
  C   C111      1.0  0.56800  0.12040  0.94440  1.0000
  C   C112      1.0  0.56800  0.87960  0.44440  1.0000
