data_image0
_chemical_formula_structural       In4O32C12H4C4H8C4H8C4H12C4H12C4H12C20H4C4H8C4H8C4H12C4H12C4H12C8
_chemical_formula_sum              "In4 O32 C80 H112"
_cell_length_a       12.3398
_cell_length_b       13.4958
_cell_length_c       16.9799
_cell_angle_alpha    90
_cell_angle_beta     90
_cell_angle_gamma    90

_space_group_name_H-M_alt    "P 1"
_space_group_IT_number       1

loop_
  _space_group_symop_operation_xyz
  'x, y, z'

loop_
  _atom_site_type_symbol
  _atom_site_label
  _atom_site_symmetry_multiplicity
  _atom_site_fract_x
  _atom_site_fract_y
  _atom_site_fract_z
  _atom_site_occupancy
  In  In1       1.0  0.28603  0.10486  0.13098  1.0000
  In  In2       1.0  0.21397  0.89514  0.63098  1.0000
  In  In3       1.0  0.71397  0.60486  0.36902  1.0000
  In  In4       1.0  0.78603  0.39514  0.86902  1.0000
  O   O1        1.0  0.27070  0.28500  0.10412  1.0000
  O   O2        1.0  0.22930  0.71500  0.60412  1.0000
  O   O3        1.0  0.72930  0.78500  0.39588  1.0000
  O   O4        1.0  0.77070  0.21500  0.89588  1.0000
  O   O5        1.0  0.30550  0.17070  0.01572  1.0000
  O   O6        1.0  0.19450  0.82930  0.51572  1.0000
  O   O7        1.0  0.69450  0.67070  0.48428  1.0000
  O   O8        1.0  0.80550  0.32930  0.98428  1.0000
  O   O9        1.0  0.63620  0.48460  0.92970  1.0000
  O   O10       1.0  0.86380  0.51540  0.42970  1.0000
  O   O11       1.0  0.36380  0.98460  0.57030  1.0000
  O   O12       1.0  0.13620  0.01540  0.07030  1.0000
  O   O13       1.0  0.61490  0.37250  0.83737  1.0000
  O   O14       1.0  0.88510  0.62750  0.33737  1.0000
  O   O15       1.0  0.38510  0.87250  0.66263  1.0000
  O   O16       1.0  0.11490  0.12750  0.16263  1.0000
  O   O17       1.0  0.37820  0.97390  0.07369  1.0000
  O   O18       1.0  0.12180  0.02610  0.57369  1.0000
  O   O19       1.0  0.62180  0.47390  0.42631  1.0000
  O   O20       1.0  0.87820  0.52610  0.92631  1.0000
  O   O21       1.0  0.29580  0.95360  0.18728  1.0000
  O   O22       1.0  0.20420  0.04640  0.68728  1.0000
  O   O23       1.0  0.70420  0.45360  0.31272  1.0000
  O   O24       1.0  0.79580  0.54640  0.81272  1.0000
  O   O25       1.0  0.68080  0.66110  0.24442  1.0000
  O   O26       1.0  0.81920  0.33890  0.74442  1.0000
  O   O27       1.0  0.31920  0.16110  0.25558  1.0000
  O   O28       1.0  0.18080  0.83890  0.75558  1.0000
  O   O29       1.0  0.54670  0.64120  0.32717  1.0000
  O   O30       1.0  0.95330  0.35880  0.82717  1.0000
  O   O31       1.0  0.45330  0.14120  0.17283  1.0000
  O   O32       1.0  0.04670  0.85880  0.67283  1.0000
  C   C1        1.0  0.31260  0.34100  0.97210  1.0000
  C   C2        1.0  0.18740  0.65900  0.47210  1.0000
  C   C3        1.0  0.68740  0.84100  0.52790  1.0000
  C   C4        1.0  0.81260  0.15900  0.02790  1.0000
  C   C5        1.0  0.42680  0.38930  0.98610  1.0000
  C   C6        1.0  0.07320  0.61070  0.48610  1.0000
  C   C7        1.0  0.57320  0.88930  0.51390  1.0000
  C   C8        1.0  0.92680  0.11070  0.01390  1.0000
  C   C9        1.0  0.45430  0.43400  0.90450  1.0000
  C   C10       1.0  0.04570  0.56600  0.40450  1.0000
  C   C11       1.0  0.54570  0.93400  0.59550  1.0000
  C   C12       1.0  0.95430  0.06600  0.09550  1.0000
  H   H1        1.0  0.43180  0.50360  0.90460  1.0000
  H   H2        1.0  0.06820  0.49640  0.40460  1.0000
  H   H3        1.0  0.56820  0.00360  0.59540  1.0000
  H   H4        1.0  0.93180  0.99640  0.09540  1.0000
  C   C13       1.0  0.38470  0.37810  0.84240  1.0000
  C   C14       1.0  0.11530  0.62190  0.34240  1.0000
  C   C15       1.0  0.61530  0.87810  0.65760  1.0000
  C   C16       1.0  0.88470  0.12190  0.15760  1.0000
  H   H5        1.0  0.33420  0.42290  0.81700  1.0000
  H   H6        1.0  0.16580  0.57710  0.31700  1.0000
  H   H7        1.0  0.66580  0.92290  0.68300  1.0000
  H   H8        1.0  0.83420  0.07710  0.18300  1.0000
  H   H9        1.0  0.43050  0.34830  0.80240  1.0000
  H   H10       1.0  0.06950  0.65170  0.30240  1.0000
  H   H11       1.0  0.56950  0.84830  0.69760  1.0000
  H   H12       1.0  0.93050  0.15170  0.19760  1.0000
  C   C17       1.0  0.32490  0.29930  0.88850  1.0000
  C   C18       1.0  0.17510  0.70070  0.38850  1.0000
  C   C19       1.0  0.67510  0.79930  0.61150  1.0000
  C   C20       1.0  0.82490  0.20070  0.11150  1.0000
  H   H13       1.0  0.36590  0.23800  0.88930  1.0000
  H   H14       1.0  0.13410  0.76200  0.38930  1.0000
  H   H15       1.0  0.63410  0.73800  0.61070  1.0000
  H   H16       1.0  0.86590  0.26200  0.11070  1.0000
  H   H17       1.0  0.25440  0.28650  0.86530  1.0000
  H   H18       1.0  0.24560  0.71350  0.36530  1.0000
  H   H19       1.0  0.74560  0.78650  0.63470  1.0000
  H   H20       1.0  0.75440  0.21350  0.13470  1.0000
  C   C21       1.0  0.22150  0.41660  0.97380  1.0000
  C   C22       1.0  0.27850  0.58340  0.47380  1.0000
  C   C23       1.0  0.77850  0.91660  0.52620  1.0000
  C   C24       1.0  0.72150  0.08340  0.02620  1.0000
  H   H21       1.0  0.15380  0.38400  0.96360  1.0000
  H   H22       1.0  0.34620  0.61600  0.46360  1.0000
  H   H23       1.0  0.84620  0.88400  0.53640  1.0000
  H   H24       1.0  0.65380  0.11600  0.03640  1.0000
  H   H25       1.0  0.23410  0.46600  0.93420  1.0000
  H   H26       1.0  0.26590  0.53400  0.43420  1.0000
  H   H27       1.0  0.76590  0.96600  0.56580  1.0000
  H   H28       1.0  0.73410  0.03400  0.06580  1.0000
  H   H29       1.0  0.21900  0.44750  0.02470  1.0000
  H   H30       1.0  0.28100  0.55250  0.52470  1.0000
  H   H31       1.0  0.78100  0.94750  0.47530  1.0000
  H   H32       1.0  0.71900  0.05250  0.97530  1.0000
  C   C25       1.0  0.51070  0.31070  0.01140  1.0000
  C   C26       1.0  0.98930  0.68930  0.51140  1.0000
  C   C27       1.0  0.48930  0.81070  0.48860  1.0000
  C   C28       1.0  0.01070  0.18930  0.98860  1.0000
  H   H33       1.0  0.49120  0.28450  0.06200  1.0000
  H   H34       1.0  0.00880  0.71550  0.56200  1.0000
  H   H35       1.0  0.50880  0.78450  0.43800  1.0000
  H   H36       1.0  0.99120  0.21550  0.93800  1.0000
  H   H37       1.0  0.58120  0.34050  0.01440  1.0000
  H   H38       1.0  0.91880  0.65950  0.51440  1.0000
  H   H39       1.0  0.41880  0.84050  0.48560  1.0000
  H   H40       1.0  0.08120  0.15950  0.98560  1.0000
  H   H41       1.0  0.51190  0.25790  0.97340  1.0000
  H   H42       1.0  0.98810  0.74210  0.47340  1.0000
  H   H43       1.0  0.48810  0.75790  0.52660  1.0000
  H   H44       1.0  0.01190  0.24210  0.02660  1.0000
  C   C29       1.0  0.42650  0.46730  0.04950  1.0000
  C   C30       1.0  0.07350  0.53270  0.54950  1.0000
  C   C31       1.0  0.57350  0.96730  0.45050  1.0000
  C   C32       1.0  0.92650  0.03270  0.95050  1.0000
  H   H45       1.0  0.41060  0.43700  0.09940  1.0000
  H   H46       1.0  0.08940  0.56300  0.59940  1.0000
  H   H47       1.0  0.58940  0.93700  0.40060  1.0000
  H   H48       1.0  0.91060  0.06300  0.90060  1.0000
  H   H49       1.0  0.37240  0.51620  0.03780  1.0000
  H   H50       1.0  0.12760  0.48380  0.53780  1.0000
  H   H51       1.0  0.62760  0.01620  0.46220  1.0000
  H   H52       1.0  0.87240  0.98380  0.96220  1.0000
  H   H53       1.0  0.49640  0.49840  0.05190  1.0000
  H   H54       1.0  0.00360  0.50160  0.55190  1.0000
  H   H55       1.0  0.50360  0.99840  0.44810  1.0000
  H   H56       1.0  0.99640  0.00160  0.94810  1.0000
  C   C33       1.0  0.29280  0.26130  0.03500  1.0000
  C   C34       1.0  0.20720  0.73870  0.53500  1.0000
  C   C35       1.0  0.70720  0.76130  0.46500  1.0000
  C   C36       1.0  0.79280  0.23870  0.96500  1.0000
  C   C37       1.0  0.57660  0.43030  0.88900  1.0000
  C   C38       1.0  0.92340  0.56970  0.38900  1.0000
  C   C39       1.0  0.42340  0.93030  0.61100  1.0000
  C   C40       1.0  0.07660  0.06970  0.11100  1.0000
  C   C41       1.0  0.38650  0.81020  0.13150  1.0000
  C   C42       1.0  0.11350  0.18980  0.63150  1.0000
  C   C43       1.0  0.61350  0.31020  0.36850  1.0000
  C   C44       1.0  0.88650  0.68980  0.86850  1.0000
  C   C45       1.0  0.50180  0.79840  0.17040  1.0000
  C   C46       1.0  0.99820  0.20160  0.67040  1.0000
  C   C47       1.0  0.49820  0.29840  0.32960  1.0000
  C   C48       1.0  0.00180  0.70160  0.82960  1.0000
  C   C49       1.0  0.50110  0.68690  0.19370  1.0000
  C   C50       1.0  0.99890  0.31310  0.69370  1.0000
  C   C51       1.0  0.49890  0.18690  0.30630  1.0000
  C   C52       1.0  0.00110  0.81310  0.80630  1.0000
  H   H57       1.0  0.52380  0.64960  0.14710  1.0000
  H   H58       1.0  0.97620  0.35040  0.64710  1.0000
  H   H59       1.0  0.47620  0.14960  0.35290  1.0000
  H   H60       1.0  0.02380  0.85040  0.85290  1.0000
  C   C53       1.0  0.38340  0.65760  0.21070  1.0000
  C   C54       1.0  0.11660  0.34240  0.71070  1.0000
  C   C55       1.0  0.61660  0.15760  0.28930  1.0000
  C   C56       1.0  0.88340  0.84240  0.78930  1.0000
  H   H61       1.0  0.36360  0.59890  0.18110  1.0000
  H   H62       1.0  0.13640  0.40110  0.68110  1.0000
  H   H63       1.0  0.63640  0.09890  0.31890  1.0000
  H   H64       1.0  0.86360  0.90110  0.81890  1.0000
  H   H65       1.0  0.37330  0.64430  0.26640  1.0000
  H   H66       1.0  0.12670  0.35570  0.76640  1.0000
  H   H67       1.0  0.62670  0.14430  0.23360  1.0000
  H   H68       1.0  0.87330  0.85570  0.73360  1.0000
  C   C57       1.0  0.31560  0.74580  0.18520  1.0000
  C   C58       1.0  0.18440  0.25420  0.68520  1.0000
  C   C59       1.0  0.68440  0.24580  0.31480  1.0000
  C   C60       1.0  0.81560  0.75420  0.81480  1.0000
  H   H69       1.0  0.29250  0.78350  0.23080  1.0000
  H   H70       1.0  0.20750  0.21650  0.73080  1.0000
  H   H71       1.0  0.70750  0.28350  0.26920  1.0000
  H   H72       1.0  0.79250  0.71650  0.76920  1.0000
  H   H73       1.0  0.25170  0.72350  0.15700  1.0000
  H   H74       1.0  0.24830  0.27650  0.65700  1.0000
  H   H75       1.0  0.74830  0.22350  0.34300  1.0000
  H   H76       1.0  0.75170  0.77650  0.84300  1.0000
  C   C61       1.0  0.38250  0.77070  0.04710  1.0000
  C   C62       1.0  0.11750  0.22930  0.54710  1.0000
  C   C63       1.0  0.61750  0.27070  0.45290  1.0000
  C   C64       1.0  0.88250  0.72930  0.95290  1.0000
  H   H77       1.0  0.42830  0.81060  0.01410  1.0000
  H   H78       1.0  0.07170  0.18940  0.51410  1.0000
  H   H79       1.0  0.57170  0.31060  0.48590  1.0000
  H   H80       1.0  0.92830  0.68940  0.98590  1.0000
  H   H81       1.0  0.30940  0.77350  0.02800  1.0000
  H   H82       1.0  0.19060  0.22650  0.52800  1.0000
  H   H83       1.0  0.69060  0.27350  0.47200  1.0000
  H   H84       1.0  0.80940  0.72650  0.97200  1.0000
  H   H85       1.0  0.40750  0.70340  0.04630  1.0000
  H   H86       1.0  0.09250  0.29660  0.54630  1.0000
  H   H87       1.0  0.59250  0.20340  0.45370  1.0000
  H   H88       1.0  0.90750  0.79660  0.95370  1.0000
  C   C65       1.0  0.59480  0.82550  0.11520  1.0000
  C   C66       1.0  0.90520  0.17450  0.61520  1.0000
  C   C67       1.0  0.40520  0.32550  0.38480  1.0000
  C   C68       1.0  0.09480  0.67450  0.88480  1.0000
  H   H89       1.0  0.59130  0.89480  0.10290  1.0000
  H   H90       1.0  0.90870  0.10520  0.60290  1.0000
  H   H91       1.0  0.40870  0.39480  0.39710  1.0000
  H   H92       1.0  0.09130  0.60520  0.89710  1.0000
  H   H93       1.0  0.58900  0.78750  0.06760  1.0000
  H   H94       1.0  0.91100  0.21250  0.56760  1.0000
  H   H95       1.0  0.41100  0.28750  0.43240  1.0000
  H   H96       1.0  0.08900  0.71250  0.93240  1.0000
  H   H97       1.0  0.66270  0.81110  0.14040  1.0000
  H   H98       1.0  0.83730  0.18890  0.64040  1.0000
  H   H99       1.0  0.33730  0.31110  0.35960  1.0000
  H   H100      1.0  0.16270  0.68890  0.85960  1.0000
  C   C69       1.0  0.51140  0.86180  0.24460  1.0000
  C   C70       1.0  0.98860  0.13820  0.74460  1.0000
  C   C71       1.0  0.48860  0.36180  0.25540  1.0000
  C   C72       1.0  0.01140  0.63820  0.75540  1.0000
  H   H101      1.0  0.45370  0.84540  0.28020  1.0000
  H   H102      1.0  0.04630  0.15460  0.78020  1.0000
  H   H103      1.0  0.54630  0.34540  0.21980  1.0000
  H   H104      1.0  0.95370  0.65460  0.71980  1.0000
  H   H105      1.0  0.50670  0.93060  0.23060  1.0000
  H   H106      1.0  0.99330  0.06940  0.73060  1.0000
  H   H107      1.0  0.49330  0.43060  0.26940  1.0000
  H   H108      1.0  0.00670  0.56940  0.76940  1.0000
  H   H109      1.0  0.57980  0.84920  0.26950  1.0000
  H   H110      1.0  0.92020  0.15080  0.76950  1.0000
  H   H111      1.0  0.42020  0.34920  0.23050  1.0000
  H   H112      1.0  0.07980  0.65080  0.73050  1.0000
  C   C73       1.0  0.35190  0.91840  0.13070  1.0000
  C   C74       1.0  0.14810  0.08160  0.63070  1.0000
  C   C75       1.0  0.64810  0.41840  0.36930  1.0000
  C   C76       1.0  0.85190  0.58160  0.86930  1.0000
  C   C77       1.0  0.58060  0.66200  0.25890  1.0000
  C   C78       1.0  0.91940  0.33800  0.75890  1.0000
  C   C79       1.0  0.41940  0.16200  0.24110  1.0000
  C   C80       1.0  0.08060  0.83800  0.74110  1.0000
