data_image0
_chemical_formula_structural       Zn2O24C6H2C2H2C2H2C8H2C2H2C2H2C8H2C2H2C2H2C8H2C2H2C2H2C4H4C2H4C2H4C2H4C2H4C4H4C4H4C4H4C2
_chemical_formula_sum              "Zn2 O24 C72 H56"
_cell_length_a       13.1666
_cell_length_b       13.7904
_cell_length_c       14.4801
_cell_angle_alpha    113.767
_cell_angle_beta     111.255
_cell_angle_gamma    97.615

_space_group_name_H-M_alt    "P 1"
_space_group_IT_number       1

loop_
  _space_group_symop_operation_xyz
  'x, y, z'

loop_
  _atom_site_type_symbol
  _atom_site_label
  _atom_site_symmetry_multiplicity
  _atom_site_fract_x
  _atom_site_fract_y
  _atom_site_fract_z
  _atom_site_occupancy
  Zn  Zn1       1.0  0.77268  0.87346  0.72186  1.0000
  Zn  Zn2       1.0  0.22732  0.12654  0.27814  1.0000
  O   O1        1.0  0.87507  0.25298  0.76024  1.0000
  O   O2        1.0  0.12493  0.74702  0.23976  1.0000
  O   O3        1.0  0.87809  0.03221  0.82176  1.0000
  O   O4        1.0  0.12191  0.96779  0.17824  1.0000
  O   O5        1.0  0.73927  0.05104  0.69605  1.0000
  O   O6        1.0  0.26073  0.94896  0.30395  1.0000
  O   O7        1.0  0.81519  0.53558  0.70306  1.0000
  O   O8        1.0  0.18481  0.46442  0.29694  1.0000
  O   O9        1.0  0.83864  0.82829  0.83798  1.0000
  O   O10       1.0  0.16136  0.17171  0.16202  1.0000
  O   O11       1.0  0.87440  0.71951  0.91525  1.0000
  O   O12       1.0  0.12560  0.28049  0.08475  1.0000
  O   O13       1.0  0.62260  0.20504  0.38796  1.0000
  O   O14       1.0  0.37740  0.79496  0.61204  1.0000
  O   O15       1.0  0.39300  0.16810  0.32314  1.0000
  O   O16       1.0  0.60700  0.83190  0.67686  1.0000
  O   O17       1.0  0.34534  0.05020  0.14497  1.0000
  O   O18       1.0  0.65466  0.94980  0.85503  1.0000
  O   O19       1.0  0.01048  0.25958  0.51551  1.0000
  O   O20       1.0  0.98952  0.74042  0.48449  1.0000
  O   O21       1.0  0.22795  0.20623  0.42586  1.0000
  O   O22       1.0  0.77205  0.79377  0.57414  1.0000
  O   O23       1.0  0.03958  0.15283  0.32101  1.0000
  O   O24       1.0  0.96042  0.84717  0.67899  1.0000
  C   C1        1.0  0.96350  0.34341  0.78841  1.0000
  C   C2        1.0  0.03650  0.65659  0.21159  1.0000
  C   C3        1.0  0.05300  0.32300  0.76130  1.0000
  C   C4        1.0  0.94700  0.67700  0.23870  1.0000
  C   C5        1.0  0.14000  0.41540  0.79080  1.0000
  C   C6        1.0  0.86000  0.58460  0.20920  1.0000
  H   H1        1.0  0.20340  0.40440  0.77620  1.0000
  H   H2        1.0  0.79660  0.59560  0.22380  1.0000
  C   C7        1.0  0.13570  0.52310  0.84110  1.0000
  C   C8        1.0  0.86430  0.47690  0.15890  1.0000
  H   H3        1.0  0.19550  0.58500  0.85990  1.0000
  H   H4        1.0  0.80450  0.41500  0.14010  1.0000
  C   C9        1.0  0.04470  0.54040  0.86400  1.0000
  C   C10       1.0  0.95530  0.45960  0.13600  1.0000
  H   H5        1.0  0.04130  0.61420  0.89680  1.0000
  H   H6        1.0  0.95870  0.38580  0.10320  1.0000
  C   C11       1.0  0.95770  0.45116  0.83977  1.0000
  C   C12       1.0  0.04230  0.54884  0.16023  1.0000
  C   C13       1.0  0.72300  0.45995  0.68909  1.0000
  C   C14       1.0  0.27700  0.54005  0.31091  1.0000
  C   C15       1.0  0.74360  0.42970  0.77390  1.0000
  C   C16       1.0  0.25640  0.57030  0.22610  1.0000
  C   C17       1.0  0.65030  0.36100  0.76690  1.0000
  C   C18       1.0  0.34970  0.63900  0.23310  1.0000
  H   H7        1.0  0.66180  0.34030  0.82410  1.0000
  H   H8        1.0  0.33820  0.65970  0.17590  1.0000
  C   C19       1.0  0.54060  0.32220  0.67720  1.0000
  C   C20       1.0  0.45940  0.67780  0.32280  1.0000
  H   H9        1.0  0.47660  0.28050  0.67650  1.0000
  H   H10       1.0  0.52340  0.71950  0.32350  1.0000
  C   C21       1.0  0.52520  0.34470  0.58920  1.0000
  C   C22       1.0  0.47480  0.65530  0.41080  1.0000
  H   H11       1.0  0.45080  0.31490  0.52630  1.0000
  H   H12       1.0  0.54920  0.68510  0.47370  1.0000
  C   C23       1.0  0.61720  0.41028  0.59085  1.0000
  C   C24       1.0  0.38280  0.58972  0.40915  1.0000
  C   C25       1.0  0.69998  0.29434  0.39974  1.0000
  C   C26       1.0  0.30002  0.70566  0.60026  1.0000
  C   C27       1.0  0.68910  0.40067  0.44590  1.0000
  C   C28       1.0  0.31090  0.59933  0.55410  1.0000
  C   C29       1.0  0.76190  0.48720  0.45040  1.0000
  C   C30       1.0  0.23810  0.51280  0.54960  1.0000
  H   H13       1.0  0.75440  0.55970  0.47890  1.0000
  H   H14       1.0  0.24560  0.44030  0.52110  1.0000
  C   C31       1.0  0.84520  0.46980  0.41410  1.0000
  C   C32       1.0  0.15480  0.53020  0.58590  1.0000
  H   H15       1.0  0.89390  0.52980  0.41740  1.0000
  H   H16       1.0  0.10610  0.47020  0.58260  1.0000
  C   C33       1.0  0.85680  0.36460  0.37290  1.0000
  C   C34       1.0  0.14320  0.63540  0.62710  1.0000
  H   H17       1.0  0.91520  0.35350  0.34980  1.0000
  H   H18       1.0  0.08480  0.64650  0.65020  1.0000
  C   C35       1.0  0.78471  0.27469  0.36450  1.0000
  C   C36       1.0  0.21529  0.72531  0.63550  1.0000
  C   C37       1.0  0.93350  0.16802  0.49830  1.0000
  C   C38       1.0  0.06650  0.83198  0.50170  1.0000
  C   C39       1.0  0.82960  0.11393  0.39770  1.0000
  C   C40       1.0  0.17040  0.88607  0.60230  1.0000
  C   C41       1.0  0.75530  0.01500  0.37390  1.0000
  C   C42       1.0  0.24470  0.98500  0.62610  1.0000
  H   H19       1.0  0.68600  0.97480  0.30440  1.0000
  H   H20       1.0  0.31400  0.02520  0.69560  1.0000
  C   C43       1.0  0.78180  0.97520  0.45060  1.0000
  C   C44       1.0  0.21820  0.02480  0.54940  1.0000
  H   H21       1.0  0.73270  0.90610  0.43210  1.0000
  H   H22       1.0  0.26730  0.09390  0.56790  1.0000
  C   C45       1.0  0.87950  0.03580  0.55390  1.0000
  C   C46       1.0  0.12050  0.96420  0.44610  1.0000
  H   H23       1.0  0.89480  0.00980  0.60750  1.0000
  H   H24       1.0  0.10520  0.99020  0.39250  1.0000
  C   C47       1.0  0.95640  0.13460  0.58130  1.0000
  C   C48       1.0  0.04360  0.86540  0.41870  1.0000
  C   C49       1.0  0.86190  0.47220  0.87186  1.0000
  C   C50       1.0  0.13810  0.52780  0.12814  1.0000
  H   H25       1.0  0.85860  0.43670  0.91850  1.0000
  H   H26       1.0  0.14140  0.56330  0.08150  1.0000
  H   H27       1.0  0.88210  0.55400  0.91990  1.0000
  H   H28       1.0  0.11790  0.44600  0.08010  1.0000
  C   C51       1.0  0.59913  0.42211  0.48671  1.0000
  C   C52       1.0  0.40087  0.57789  0.51329  1.0000
  H   H29       1.0  0.52260  0.36930  0.42400  1.0000
  H   H30       1.0  0.47740  0.63070  0.57600  1.0000
  H   H31       1.0  0.59780  0.49890  0.50380  1.0000
  H   H32       1.0  0.40220  0.50110  0.49620  1.0000
  C   C53       1.0  0.80010  0.16041  0.31710  1.0000
  C   C54       1.0  0.19990  0.83959  0.68290  1.0000
  H   H33       1.0  0.72790  0.10680  0.24800  1.0000
  H   H34       1.0  0.27210  0.89320  0.75200  1.0000
  H   H35       1.0  0.86190  0.16590  0.29420  1.0000
  H   H36       1.0  0.13810  0.83410  0.70580  1.0000
  C   C55       1.0  0.05470  0.20470  0.70020  1.0000
  C   C56       1.0  0.94530  0.79530  0.29980  1.0000
  H   H37       1.0  0.12860  0.20870  0.69640  1.0000
  H   H38       1.0  0.87140  0.79130  0.30360  1.0000
  H   H39       1.0  0.05120  0.16700  0.74510  1.0000
  H   H40       1.0  0.94880  0.83300  0.25490  1.0000
  C   C57       1.0  0.90230  0.21420  0.84130  1.0000
  C   C58       1.0  0.09770  0.78580  0.15870  1.0000
  H   H41       1.0  0.88260  0.25710  0.90220  1.0000
  H   H42       1.0  0.11740  0.74290  0.09780  1.0000
  H   H43       1.0  0.98580  0.22510  0.87630  1.0000
  H   H44       1.0  0.01420  0.77490  0.12370  1.0000
  C   C59       1.0  0.83360  0.09090  0.78080  1.0000
  C   C60       1.0  0.16640  0.90910  0.21920  1.0000
  C   C61       1.0  0.80260  0.63933  0.71260  1.0000
  C   C62       1.0  0.19740  0.36067  0.28740  1.0000
  H   H45       1.0  0.72030  0.62630  0.66630  1.0000
  H   H46       1.0  0.27970  0.37370  0.33370  1.0000
  H   H47       1.0  0.84680  0.66510  0.67950  1.0000
  H   H48       1.0  0.15320  0.33490  0.32050  1.0000
  C   C63       1.0  0.84160  0.73312  0.83250  1.0000
  C   C64       1.0  0.15840  0.26688  0.16750  1.0000
  C   C65       1.0  0.54170  0.12660  0.27240  1.0000
  C   C66       1.0  0.45830  0.87340  0.72760  1.0000
  H   H49       1.0  0.55130  0.05220  0.25460  1.0000
  H   H50       1.0  0.44870  0.94780  0.74540  1.0000
  H   H51       1.0  0.56020  0.15000  0.22250  1.0000
  H   H52       1.0  0.43980  0.85000  0.77750  1.0000
  C   C67       1.0  0.41700  0.11510  0.24490  1.0000
  C   C68       1.0  0.58300  0.88490  0.75510  1.0000
  C   C69       1.0  0.11937  0.24763  0.52484  1.0000
  C   C70       1.0  0.88063  0.75237  0.47516  1.0000
  H   H53       1.0  0.13760  0.19920  0.55940  1.0000
  H   H54       1.0  0.86240  0.80080  0.44060  1.0000
  H   H55       1.0  0.17950  0.32230  0.57700  1.0000
  H   H56       1.0  0.82050  0.67770  0.42300  1.0000
  C   C71       1.0  0.12510  0.19819  0.41300  1.0000
  C   C72       1.0  0.87490  0.80181  0.58700  1.0000
