data_image0
_chemical_formula_structural       Ni2O18N4C4N2C2H2C2H2C4H2C6H2C4H12
_chemical_formula_sum              "Ni2 O18 N6 C22 H20"
_cell_length_a       6.958
_cell_length_b       10.909
_cell_length_c       11.877
_cell_angle_alpha    82.523
_cell_angle_beta     82.286
_cell_angle_gamma    71.561

_space_group_name_H-M_alt    "P 1"
_space_group_IT_number       1

loop_
  _space_group_symop_operation_xyz
  'x, y, z'

loop_
  _atom_site_type_symbol
  _atom_site_label
  _atom_site_symmetry_multiplicity
  _atom_site_fract_x
  _atom_site_fract_y
  _atom_site_fract_z
  _atom_site_occupancy
  Ni  Ni1       1.0  0.50000  0.00000  0.50000  1.0000
  Ni  Ni2       1.0  0.50000  0.50000  0.00000  1.0000
  O   O1        1.0  0.38770  0.84740  0.52390  1.0000
  O   O2        1.0  0.61230  0.15260  0.47610  1.0000
  O   O3        1.0  0.80840  0.40760  0.02910  1.0000
  O   O4        1.0  0.19160  0.59240  0.97090  1.0000
  O   O5        1.0  0.45610  0.31910  0.01110  1.0000
  O   O6        1.0  0.54390  0.68090  0.98890  1.0000
  O   O7        1.0  0.10840  0.89600  0.64680  1.0000
  O   O8        1.0  0.89160  0.10400  0.35320  1.0000
  O   O9        1.0  0.11970  0.29260  0.73960  1.0000
  O   O10       1.0  0.88030  0.70740  0.26040  1.0000
  O   O11       1.0  0.24670  0.10260  0.59500  1.0000
  O   O12       1.0  0.75330  0.89740  0.40500  1.0000
  O   O13       1.0  0.67060  0.93570  0.64100  1.0000
  O   O14       1.0  0.32940  0.06430  0.35900  1.0000
  O   O15       1.0  0.39160  0.16190  0.13560  1.0000
  O   O16       1.0  0.60840  0.83810  0.86440  1.0000
  O   O17       1.0  0.05340  0.45440  0.84660  1.0000
  O   O18       1.0  0.94660  0.54560  0.15340  1.0000
  N   N1        1.0  0.32630  0.46980  0.34470  1.0000
  N   N2        1.0  0.67370  0.53020  0.65530  1.0000
  N   N3        1.0  0.38460  0.54350  0.25510  1.0000
  N   N4        1.0  0.61540  0.45650  0.74490  1.0000
  C   C1        1.0  0.21880  0.69230  0.56890  1.0000
  C   C2        1.0  0.78120  0.30770  0.43110  1.0000
  C   C3        1.0  0.27250  0.51940  0.45410  1.0000
  C   C4        1.0  0.72750  0.48060  0.54590  1.0000
  N   N5        1.0  0.42250  0.47450  0.16880  1.0000
  N   N6        1.0  0.57750  0.52550  0.83120  1.0000
  C   C5        1.0  0.27460  0.64370  0.46340  1.0000
  C   C6        1.0  0.72540  0.35630  0.53660  1.0000
  H   H1        1.0  0.31100  0.68800  0.40900  1.0000
  H   H2        1.0  0.68900  0.31200  0.59100  1.0000
  C   C7        1.0  0.16050  0.61750  0.66240  1.0000
  C   C8        1.0  0.83950  0.38250  0.33760  1.0000
  H   H3        1.0  0.10900  0.65500  0.73800  1.0000
  H   H4        1.0  0.89100  0.34500  0.26200  1.0000
  C   C9        1.0  0.39020  0.35770  0.20150  1.0000
  C   C10       1.0  0.60980  0.64230  0.79850  1.0000
  C   C11       1.0  0.22330  0.44180  0.54640  1.0000
  C   C12       1.0  0.77670  0.55820  0.45360  1.0000
  H   H5        1.0  0.23100  0.36400  0.54900  1.0000
  H   H6        1.0  0.76900  0.63600  0.45100  1.0000
  C   C13       1.0  0.16690  0.48980  0.65220  1.0000
  C   C14       1.0  0.83310  0.51020  0.34780  1.0000
  C   C15       1.0  0.41540  0.27050  0.11090  1.0000
  C   C16       1.0  0.58460  0.72950  0.88910  1.0000
  C   C17       1.0  0.32850  0.35460  0.31520  1.0000
  C   C18       1.0  0.67150  0.64540  0.68480  1.0000
  H   H7        1.0  0.30100  0.28800  0.36800  1.0000
  H   H8        1.0  0.69900  0.71200  0.63200  1.0000
  C   C19       1.0  0.23770  0.82420  0.58040  1.0000
  C   C20       1.0  0.76230  0.17580  0.41960  1.0000
  C   C21       1.0  0.11090  0.40560  0.75410  1.0000
  C   C22       1.0  0.88910  0.59440  0.24590  1.0000
  H   H9        1.0  0.82100  0.46000  0.07200  1.0000
  H   H10       1.0  0.17900  0.54000  0.92800  1.0000
  H   H11       1.0  0.86200  0.42200  0.96200  1.0000
  H   H12       1.0  0.13800  0.57800  0.03800  1.0000
  H   H13       1.0  0.15800  0.06600  0.62500  1.0000
  H   H14       1.0  0.84200  0.93400  0.37500  1.0000
  H   H15       1.0  0.25200  0.15800  0.63800  1.0000
  H   H16       1.0  0.74800  0.84200  0.36200  1.0000
  H   H17       1.0  0.62500  0.91300  0.70700  1.0000
  H   H18       1.0  0.37500  0.08700  0.29300  1.0000
  H   H19       1.0  0.79400  0.93200  0.64000  1.0000
  H   H20       1.0  0.20600  0.06800  0.36000  1.0000
