data_image0
_chemical_formula_structural       Cd4O4C4H4C4O12C12O4C16H4O4H4O4H8
_chemical_formula_sum              "Cd4 O28 C36 H20"
_cell_length_a       10.1781
_cell_length_b       12.2779
_cell_length_c       14.9454
_cell_angle_alpha    90
_cell_angle_beta     105.826
_cell_angle_gamma    90

_space_group_name_H-M_alt    "P 1"
_space_group_IT_number       1

loop_
  _space_group_symop_operation_xyz
  'x, y, z'

loop_
  _atom_site_type_symbol
  _atom_site_label
  _atom_site_symmetry_multiplicity
  _atom_site_fract_x
  _atom_site_fract_y
  _atom_site_fract_z
  _atom_site_occupancy
  Cd  Cd1       1.0  0.68054  0.06944  0.06299  1.0000
  Cd  Cd2       1.0  0.31946  0.56944  0.43701  1.0000
  Cd  Cd3       1.0  0.31946  0.93056  0.93701  1.0000
  Cd  Cd4       1.0  0.68054  0.43056  0.56299  1.0000
  O   O1        1.0  0.40740  0.08639  0.02153  1.0000
  O   O2        1.0  0.59260  0.58639  0.47847  1.0000
  O   O3        1.0  0.59260  0.91361  0.97847  1.0000
  O   O4        1.0  0.40740  0.41361  0.52153  1.0000
  C   C1        1.0  0.34180  0.29541  0.17532  1.0000
  C   C2        1.0  0.65820  0.79541  0.32468  1.0000
  C   C3        1.0  0.65820  0.70459  0.82468  1.0000
  C   C4        1.0  0.34180  0.20459  0.67532  1.0000
  H   H1        1.0  0.42890  0.32560  0.19350  1.0000
  H   H2        1.0  0.57110  0.82560  0.30650  1.0000
  H   H3        1.0  0.57110  0.67440  0.80650  1.0000
  H   H4        1.0  0.42890  0.17440  0.69350  1.0000
  C   C5        1.0  0.43030  0.16260  0.07836  1.0000
  C   C6        1.0  0.56970  0.66260  0.42164  1.0000
  C   C7        1.0  0.56970  0.83740  0.92164  1.0000
  C   C8        1.0  0.43030  0.33740  0.57836  1.0000
  O   O5        1.0  0.85816  0.18945  0.13893  1.0000
  O   O6        1.0  0.14184  0.68945  0.36107  1.0000
  O   O7        1.0  0.14184  0.81055  0.86107  1.0000
  O   O8        1.0  0.85816  0.31055  0.63893  1.0000
  O   O9        1.0  0.38950  0.46361  0.30981  1.0000
  O   O10       1.0  0.61050  0.96361  0.19019  1.0000
  O   O11       1.0  0.61050  0.53639  0.69019  1.0000
  O   O12       1.0  0.38950  0.03639  0.80981  1.0000
  O   O13       1.0  0.54857  0.20076  0.11234  1.0000
  O   O14       1.0  0.45143  0.70076  0.38766  1.0000
  O   O15       1.0  0.45143  0.79924  0.88766  1.0000
  O   O16       1.0  0.54857  0.29924  0.61234  1.0000
  C   C9        1.0  0.27300  0.42131  0.28774  1.0000
  C   C10       1.0  0.72700  0.92131  0.21226  1.0000
  C   C11       1.0  0.72700  0.57869  0.71226  1.0000
  C   C12       1.0  0.27300  0.07869  0.78774  1.0000
  C   C13       1.0  0.93790  0.15929  0.09312  1.0000
  C   C14       1.0  0.06210  0.65929  0.40688  1.0000
  C   C15       1.0  0.06210  0.84071  0.90688  1.0000
  C   C16       1.0  0.93790  0.34071  0.59312  1.0000
  C   C17       1.0  0.08040  0.20699  0.11914  1.0000
  C   C18       1.0  0.91960  0.70699  0.38086  1.0000
  C   C19       1.0  0.91960  0.79301  0.88086  1.0000
  C   C20       1.0  0.08040  0.29301  0.61914  1.0000
  O   O17       1.0  0.90500  0.09181  0.02874  1.0000
  O   O18       1.0  0.09500  0.59181  0.47126  1.0000
  O   O19       1.0  0.09500  0.90819  0.97126  1.0000
  O   O20       1.0  0.90500  0.40819  0.52874  1.0000
  C   C21       1.0  0.31460  0.21116  0.11097  1.0000
  C   C22       1.0  0.68540  0.71116  0.38903  1.0000
  C   C23       1.0  0.68540  0.78884  0.88903  1.0000
  C   C24       1.0  0.31460  0.28884  0.61097  1.0000
  C   C25       1.0  0.24050  0.33537  0.21300  1.0000
  C   C26       1.0  0.75950  0.83537  0.28700  1.0000
  C   C27       1.0  0.75950  0.66463  0.78700  1.0000
  C   C28       1.0  0.24050  0.16463  0.71300  1.0000
  C   C29       1.0  0.11030  0.29054  0.18499  1.0000
  C   C30       1.0  0.88970  0.79054  0.31501  1.0000
  C   C31       1.0  0.88970  0.70946  0.81501  1.0000
  C   C32       1.0  0.11030  0.20946  0.68499  1.0000
  C   C33       1.0  0.18280  0.16732  0.08173  1.0000
  C   C34       1.0  0.81720  0.66732  0.41827  1.0000
  C   C35       1.0  0.81720  0.83268  0.91827  1.0000
  C   C36       1.0  0.18280  0.33268  0.58173  1.0000
  H   H5        1.0  0.16340  0.11200  0.03760  1.0000
  H   H6        1.0  0.83660  0.61200  0.46240  1.0000
  H   H7        1.0  0.83660  0.88800  0.96240  1.0000
  H   H8        1.0  0.16340  0.38800  0.53760  1.0000
  O   O21       1.0  0.18400  0.44750  0.32652  1.0000
  O   O22       1.0  0.81600  0.94750  0.17348  1.0000
  O   O23       1.0  0.81600  0.55250  0.67348  1.0000
  O   O24       1.0  0.18400  0.05250  0.82652  1.0000
  H   H9        1.0  0.03200  0.31600  0.21000  1.0000
  H   H10       1.0  0.96800  0.81600  0.29000  1.0000
  H   H11       1.0  0.96800  0.68400  0.79000  1.0000
  H   H12       1.0  0.03200  0.18400  0.71000  1.0000
  O   O25       1.0  0.61920  0.14000  0.91440  1.0000
  O   O26       1.0  0.38080  0.64000  0.58560  1.0000
  O   O27       1.0  0.38080  0.86000  0.08560  1.0000
  O   O28       1.0  0.61920  0.36000  0.41440  1.0000
  H   H13       1.0  0.56760  0.09470  0.87700  1.0000
  H   H14       1.0  0.43240  0.59470  0.62300  1.0000
  H   H15       1.0  0.43240  0.90530  0.12300  1.0000
  H   H16       1.0  0.56760  0.40530  0.37700  1.0000
  H   H17       1.0  0.69020  0.14520  0.89400  1.0000
  H   H18       1.0  0.30980  0.64520  0.60600  1.0000
  H   H19       1.0  0.30980  0.85480  0.10600  1.0000
  H   H20       1.0  0.69020  0.35480  0.39400  1.0000
