data_image0
_chemical_formula_structural       Ag8Mo48P4O160N16C8H8C8H8C8H8C8H8
_chemical_formula_sum              "Ag8 Mo48 P4 O160 N16 C32 H32"
_cell_length_a       16.808
_cell_length_b       18.827
_cell_length_c       14.104
_cell_angle_alpha    90
_cell_angle_beta     90
_cell_angle_gamma    90

_space_group_name_H-M_alt    "P 1"
_space_group_IT_number       1

loop_
  _space_group_symop_operation_xyz
  'x, y, z'

loop_
  _atom_site_type_symbol
  _atom_site_label
  _atom_site_symmetry_multiplicity
  _atom_site_fract_x
  _atom_site_fract_y
  _atom_site_fract_z
  _atom_site_occupancy
  Ag  Ag1       1.0  0.23306  0.01968  0.38414  1.0000
  Ag  Ag2       1.0  0.76694  0.98032  0.88414  1.0000
  Ag  Ag3       1.0  0.76694  0.01968  0.38414  1.0000
  Ag  Ag4       1.0  0.23306  0.98032  0.88414  1.0000
  Ag  Ag5       1.0  0.73306  0.51968  0.38414  1.0000
  Ag  Ag6       1.0  0.26694  0.48032  0.88414  1.0000
  Ag  Ag7       1.0  0.26694  0.51968  0.38414  1.0000
  Ag  Ag8       1.0  0.73306  0.48032  0.88414  1.0000
  Mo  Mo1       1.0  0.39613  0.15309  0.44726  1.0000
  Mo  Mo2       1.0  0.60387  0.84691  0.94726  1.0000
  Mo  Mo3       1.0  0.60387  0.15309  0.44726  1.0000
  Mo  Mo4       1.0  0.39613  0.84691  0.94726  1.0000
  Mo  Mo5       1.0  0.89613  0.65309  0.44726  1.0000
  Mo  Mo6       1.0  0.10387  0.34691  0.94726  1.0000
  Mo  Mo7       1.0  0.10387  0.65309  0.44726  1.0000
  Mo  Mo8       1.0  0.89613  0.34691  0.94726  1.0000
  Mo  Mo9       1.0  0.60691  0.13031  0.80084  1.0000
  Mo  Mo10      1.0  0.39309  0.86969  0.30084  1.0000
  Mo  Mo11      1.0  0.39309  0.13031  0.80084  1.0000
  Mo  Mo12      1.0  0.60691  0.86969  0.30084  1.0000
  Mo  Mo13      1.0  0.10691  0.63031  0.80084  1.0000
  Mo  Mo14      1.0  0.89309  0.36969  0.30084  1.0000
  Mo  Mo15      1.0  0.89309  0.63031  0.80084  1.0000
  Mo  Mo16      1.0  0.10691  0.36969  0.30084  1.0000
  Mo  Mo17      1.0  0.71193  0.23519  0.63867  1.0000
  Mo  Mo18      1.0  0.28807  0.76481  0.13867  1.0000
  Mo  Mo19      1.0  0.28807  0.23519  0.63867  1.0000
  Mo  Mo20      1.0  0.71193  0.76481  0.13867  1.0000
  Mo  Mo21      1.0  0.21193  0.73519  0.63867  1.0000
  Mo  Mo22      1.0  0.78807  0.26481  0.13867  1.0000
  Mo  Mo23      1.0  0.78807  0.73519  0.63867  1.0000
  Mo  Mo24      1.0  0.21193  0.26481  0.13867  1.0000
  Mo  Mo25      1.0  0.39566  0.34330  0.47054  1.0000
  Mo  Mo26      1.0  0.60434  0.65670  0.97054  1.0000
  Mo  Mo27      1.0  0.60434  0.34330  0.47054  1.0000
  Mo  Mo28      1.0  0.39566  0.65670  0.97054  1.0000
  Mo  Mo29      1.0  0.89566  0.84330  0.47054  1.0000
  Mo  Mo30      1.0  0.10434  0.15670  0.97054  1.0000
  Mo  Mo31      1.0  0.10434  0.84330  0.47054  1.0000
  Mo  Mo32      1.0  0.89566  0.15670  0.97054  1.0000
  Mo  Mo33      1.0  0.60785  0.31422  0.82447  1.0000
  Mo  Mo34      1.0  0.39215  0.68578  0.32447  1.0000
  Mo  Mo35      1.0  0.39215  0.31422  0.82447  1.0000
  Mo  Mo36      1.0  0.60785  0.68578  0.32447  1.0000
  Mo  Mo37      1.0  0.10785  0.81422  0.82447  1.0000
  Mo  Mo38      1.0  0.89215  0.18578  0.32447  1.0000
  Mo  Mo39      1.0  0.89215  0.81422  0.82447  1.0000
  Mo  Mo40      1.0  0.10785  0.18578  0.32447  1.0000
  Mo  Mo41      1.0  0.50000  0.42301  0.65739  1.0000
  Mo  Mo42      1.0  0.50000  0.57699  0.15739  1.0000
  Mo  Mo43      1.0  0.00000  0.92301  0.65739  1.0000
  Mo  Mo44      1.0  0.00000  0.07699  0.15739  1.0000
  Mo  Mo45      1.0  0.50000  0.04735  0.60901  1.0000
  Mo  Mo46      1.0  0.50000  0.95265  0.10901  1.0000
  Mo  Mo47      1.0  0.00000  0.54735  0.60901  1.0000
  Mo  Mo48      1.0  0.00000  0.45265  0.10901  1.0000
  P   P1        1.0  0.50000  0.23610  0.63560  1.0000
  P   P2        1.0  0.50000  0.76390  0.13560  1.0000
  P   P3        1.0  0.00000  0.73610  0.63560  1.0000
  P   P4        1.0  0.00000  0.26390  0.13560  1.0000
  O   O1        1.0  0.34330  0.11860  0.35900  1.0000
  O   O2        1.0  0.65670  0.88140  0.85900  1.0000
  O   O3        1.0  0.65670  0.11860  0.35900  1.0000
  O   O4        1.0  0.34330  0.88140  0.85900  1.0000
  O   O5        1.0  0.84330  0.61860  0.35900  1.0000
  O   O6        1.0  0.15670  0.38140  0.85900  1.0000
  O   O7        1.0  0.15670  0.61860  0.35900  1.0000
  O   O8        1.0  0.84330  0.38140  0.85900  1.0000
  O   O9        1.0  0.50000  0.30760  0.86020  1.0000
  O   O10       1.0  0.50000  0.69240  0.36020  1.0000
  O   O11       1.0  0.00000  0.80760  0.86020  1.0000
  O   O12       1.0  0.00000  0.19240  0.36020  1.0000
  O   O13       1.0  0.32160  0.17200  0.54200  1.0000
  O   O14       1.0  0.67840  0.82800  0.04200  1.0000
  O   O15       1.0  0.67840  0.17200  0.54200  1.0000
  O   O16       1.0  0.32160  0.82800  0.04200  1.0000
  O   O17       1.0  0.82160  0.67200  0.54200  1.0000
  O   O18       1.0  0.17840  0.32800  0.04200  1.0000
  O   O19       1.0  0.17840  0.67200  0.54200  1.0000
  O   O20       1.0  0.82160  0.32800  0.04200  1.0000
  O   O21       1.0  0.57350  0.23110  0.69900  1.0000
  O   O22       1.0  0.42650  0.76890  0.19900  1.0000
  O   O23       1.0  0.42650  0.23110  0.69900  1.0000
  O   O24       1.0  0.57350  0.76890  0.19900  1.0000
  O   O25       1.0  0.07350  0.73110  0.69900  1.0000
  O   O26       1.0  0.92650  0.26890  0.19900  1.0000
  O   O27       1.0  0.92650  0.73110  0.69900  1.0000
  O   O28       1.0  0.07350  0.26890  0.19900  1.0000
  O   O29       1.0  0.50000  0.14640  0.38530  1.0000
  O   O30       1.0  0.50000  0.85360  0.88530  1.0000
  O   O31       1.0  0.00000  0.64640  0.38530  1.0000
  O   O32       1.0  0.00000  0.35360  0.88530  1.0000
  O   O33       1.0  0.34430  0.38990  0.39400  1.0000
  O   O34       1.0  0.65570  0.61010  0.89400  1.0000
  O   O35       1.0  0.65570  0.38990  0.39400  1.0000
  O   O36       1.0  0.34430  0.61010  0.89400  1.0000
  O   O37       1.0  0.84430  0.88990  0.39400  1.0000
  O   O38       1.0  0.15570  0.11010  0.89400  1.0000
  O   O39       1.0  0.15570  0.88990  0.39400  1.0000
  O   O40       1.0  0.84430  0.11010  0.89400  1.0000
  O   O41       1.0  0.39940  0.25130  0.42030  1.0000
  O   O42       1.0  0.60060  0.74870  0.92030  1.0000
  O   O43       1.0  0.60060  0.25130  0.42030  1.0000
  O   O44       1.0  0.39940  0.74870  0.92030  1.0000
  O   O45       1.0  0.89940  0.75130  0.42030  1.0000
  O   O46       1.0  0.10060  0.24870  0.92030  1.0000
  O   O47       1.0  0.10060  0.75130  0.42030  1.0000
  O   O48       1.0  0.89940  0.24870  0.92030  1.0000
  O   O49       1.0  0.50000  0.35690  0.41780  1.0000
  O   O50       1.0  0.50000  0.64310  0.91780  1.0000
  O   O51       1.0  0.00000  0.85690  0.41780  1.0000
  O   O52       1.0  0.00000  0.14310  0.91780  1.0000
  O   O53       1.0  0.42190  0.41580  0.55790  1.0000
  O   O54       1.0  0.57810  0.58420  0.05790  1.0000
  O   O55       1.0  0.57810  0.41580  0.55790  1.0000
  O   O56       1.0  0.42190  0.58420  0.05790  1.0000
  O   O57       1.0  0.92190  0.91580  0.55790  1.0000
  O   O58       1.0  0.07810  0.08420  0.05790  1.0000
  O   O59       1.0  0.07810  0.91580  0.55790  1.0000
  O   O60       1.0  0.92190  0.08420  0.05790  1.0000
  O   O61       1.0  0.80930  0.23340  0.63070  1.0000
  O   O62       1.0  0.19070  0.76660  0.13070  1.0000
  O   O63       1.0  0.19070  0.23340  0.63070  1.0000
  O   O64       1.0  0.80930  0.76660  0.13070  1.0000
  O   O65       1.0  0.30930  0.73340  0.63070  1.0000
  O   O66       1.0  0.69070  0.26660  0.13070  1.0000
  O   O67       1.0  0.69070  0.73340  0.63070  1.0000
  O   O68       1.0  0.30930  0.26660  0.13070  1.0000
  O   O69       1.0  0.64990  0.07740  0.87750  1.0000
  O   O70       1.0  0.35010  0.92260  0.37750  1.0000
  O   O71       1.0  0.35010  0.07740  0.87750  1.0000
  O   O72       1.0  0.64990  0.92260  0.37750  1.0000
  O   O73       1.0  0.14990  0.57740  0.87750  1.0000
  O   O74       1.0  0.85010  0.42260  0.37750  1.0000
  O   O75       1.0  0.85010  0.57740  0.87750  1.0000
  O   O76       1.0  0.14990  0.42260  0.37750  1.0000
  O   O77       1.0  0.57930  0.07000  0.69930  1.0000
  O   O78       1.0  0.42070  0.93000  0.19930  1.0000
  O   O79       1.0  0.42070  0.07000  0.69930  1.0000
  O   O80       1.0  0.57930  0.93000  0.19930  1.0000
  O   O81       1.0  0.07930  0.57000  0.69930  1.0000
  O   O82       1.0  0.92070  0.43000  0.19930  1.0000
  O   O83       1.0  0.92070  0.57000  0.69930  1.0000
  O   O84       1.0  0.07930  0.43000  0.19930  1.0000
  O   O85       1.0  0.68030  0.31210  0.55920  1.0000
  O   O86       1.0  0.31970  0.68790  0.05920  1.0000
  O   O87       1.0  0.31970  0.31210  0.55920  1.0000
  O   O88       1.0  0.68030  0.68790  0.05920  1.0000
  O   O89       1.0  0.18030  0.81210  0.55920  1.0000
  O   O90       1.0  0.81970  0.18790  0.05920  1.0000
  O   O91       1.0  0.81970  0.81210  0.55920  1.0000
  O   O92       1.0  0.18030  0.18790  0.05920  1.0000
  O   O93       1.0  0.69630  0.15900  0.72730  1.0000
  O   O94       1.0  0.30370  0.84100  0.22730  1.0000
  O   O95       1.0  0.30370  0.15900  0.72730  1.0000
  O   O96       1.0  0.69630  0.84100  0.22730  1.0000
  O   O97       1.0  0.19630  0.65900  0.72730  1.0000
  O   O98       1.0  0.80370  0.34100  0.22730  1.0000
  O   O99       1.0  0.80370  0.65900  0.72730  1.0000
  O   O100      1.0  0.19630  0.34100  0.22730  1.0000
  O   O101      1.0  0.50000  0.50910  0.67750  1.0000
  O   O102      1.0  0.50000  0.49090  0.17750  1.0000
  O   O103      1.0  0.00000  0.00910  0.67750  1.0000
  O   O104      1.0  0.00000  0.99090  0.17750  1.0000
  O   O105      1.0  0.69700  0.29600  0.74530  1.0000
  O   O106      1.0  0.30300  0.70400  0.24530  1.0000
  O   O107      1.0  0.30300  0.29600  0.74530  1.0000
  O   O108      1.0  0.69700  0.70400  0.24530  1.0000
  O   O109      1.0  0.19700  0.79600  0.74530  1.0000
  O   O110      1.0  0.80300  0.20400  0.24530  1.0000
  O   O111      1.0  0.80300  0.79600  0.74530  1.0000
  O   O112      1.0  0.19700  0.20400  0.24530  1.0000
  O   O113      1.0  0.50000  0.30590  0.58280  1.0000
  O   O114      1.0  0.50000  0.69410  0.08280  1.0000
  O   O115      1.0  0.00000  0.80590  0.58280  1.0000
  O   O116      1.0  0.00000  0.19410  0.08280  1.0000
  O   O117      1.0  0.50000  0.17390  0.56470  1.0000
  O   O118      1.0  0.50000  0.82610  0.06470  1.0000
  O   O119      1.0  0.00000  0.67390  0.56470  1.0000
  O   O120      1.0  0.00000  0.32610  0.06470  1.0000
  O   O121      1.0  0.61830  0.21900  0.87010  1.0000
  O   O122      1.0  0.38170  0.78100  0.37010  1.0000
  O   O123      1.0  0.38170  0.21900  0.87010  1.0000
  O   O124      1.0  0.61830  0.78100  0.37010  1.0000
  O   O125      1.0  0.11830  0.71900  0.87010  1.0000
  O   O126      1.0  0.88170  0.28100  0.37010  1.0000
  O   O127      1.0  0.88170  0.71900  0.87010  1.0000
  O   O128      1.0  0.11830  0.28100  0.37010  1.0000
  O   O129      1.0  0.42260  0.06870  0.51460  1.0000
  O   O130      1.0  0.57740  0.93130  0.01460  1.0000
  O   O131      1.0  0.57740  0.06870  0.51460  1.0000
  O   O132      1.0  0.42260  0.93130  0.01460  1.0000
  O   O133      1.0  0.92260  0.56870  0.51460  1.0000
  O   O134      1.0  0.07740  0.43130  0.01460  1.0000
  O   O135      1.0  0.07740  0.56870  0.51460  1.0000
  O   O136      1.0  0.92260  0.43130  0.01460  1.0000
  O   O137      1.0  0.57760  0.38830  0.74240  1.0000
  O   O138      1.0  0.42240  0.61170  0.24240  1.0000
  O   O139      1.0  0.42240  0.38830  0.74240  1.0000
  O   O140      1.0  0.57760  0.61170  0.24240  1.0000
  O   O141      1.0  0.07760  0.88830  0.74240  1.0000
  O   O142      1.0  0.92240  0.11170  0.24240  1.0000
  O   O143      1.0  0.92240  0.88830  0.74240  1.0000
  O   O144      1.0  0.07760  0.11170  0.24240  1.0000
  O   O145      1.0  0.65310  0.35620  0.91340  1.0000
  O   O146      1.0  0.34690  0.64380  0.41340  1.0000
  O   O147      1.0  0.34690  0.35620  0.91340  1.0000
  O   O148      1.0  0.65310  0.64380  0.41340  1.0000
  O   O149      1.0  0.15310  0.85620  0.91340  1.0000
  O   O150      1.0  0.84690  0.14380  0.41340  1.0000
  O   O151      1.0  0.84690  0.85620  0.91340  1.0000
  O   O152      1.0  0.15310  0.14380  0.41340  1.0000
  O   O153      1.0  0.50000  0.13260  0.83710  1.0000
  O   O154      1.0  0.50000  0.86740  0.33710  1.0000
  O   O155      1.0  0.00000  0.63260  0.83710  1.0000
  O   O156      1.0  0.00000  0.36740  0.33710  1.0000
  O   O157      1.0  0.50000  0.95880  0.60370  1.0000
  O   O158      1.0  0.50000  0.04120  0.10370  1.0000
  O   O159      1.0  0.00000  0.45880  0.60370  1.0000
  O   O160      1.0  0.00000  0.54120  0.10370  1.0000
  N   N1        1.0  0.23590  0.00760  0.53610  1.0000
  N   N2        1.0  0.76410  0.99240  0.03610  1.0000
  N   N3        1.0  0.76410  0.00760  0.53610  1.0000
  N   N4        1.0  0.23590  0.99240  0.03610  1.0000
  N   N5        1.0  0.73590  0.50760  0.53610  1.0000
  N   N6        1.0  0.26410  0.49240  0.03610  1.0000
  N   N7        1.0  0.26410  0.50760  0.53610  1.0000
  N   N8        1.0  0.73590  0.49240  0.03610  1.0000
  N   N9        1.0  0.23040  0.98940  0.73010  1.0000
  N   N10       1.0  0.76960  0.01060  0.23010  1.0000
  N   N11       1.0  0.76960  0.98940  0.73010  1.0000
  N   N12       1.0  0.23040  0.01060  0.23010  1.0000
  N   N13       1.0  0.73040  0.48940  0.73010  1.0000
  N   N14       1.0  0.26960  0.51060  0.23010  1.0000
  N   N15       1.0  0.26960  0.48940  0.73010  1.0000
  N   N16       1.0  0.73040  0.51060  0.23010  1.0000
  C   C1        1.0  0.27710  0.95860  0.57730  1.0000
  C   C2        1.0  0.72290  0.04140  0.07730  1.0000
  C   C3        1.0  0.72290  0.95860  0.57730  1.0000
  C   C4        1.0  0.27710  0.04140  0.07730  1.0000
  C   C5        1.0  0.77710  0.45860  0.57730  1.0000
  C   C6        1.0  0.22290  0.54140  0.07730  1.0000
  C   C7        1.0  0.22290  0.45860  0.57730  1.0000
  C   C8        1.0  0.77710  0.54140  0.07730  1.0000
  H   H1        1.0  0.30980  0.92980  0.54060  1.0000
  H   H2        1.0  0.69020  0.07020  0.04060  1.0000
  H   H3        1.0  0.69020  0.92980  0.54060  1.0000
  H   H4        1.0  0.30980  0.07020  0.04060  1.0000
  H   H5        1.0  0.80980  0.42980  0.54060  1.0000
  H   H6        1.0  0.19020  0.57020  0.04060  1.0000
  H   H7        1.0  0.19020  0.42980  0.54060  1.0000
  H   H8        1.0  0.80980  0.57020  0.04060  1.0000
  C   C9        1.0  0.19000  0.05080  0.59230  1.0000
  C   C10       1.0  0.81000  0.94920  0.09230  1.0000
  C   C11       1.0  0.81000  0.05080  0.59230  1.0000
  C   C12       1.0  0.19000  0.94920  0.09230  1.0000
  C   C13       1.0  0.69000  0.55080  0.59230  1.0000
  C   C14       1.0  0.31000  0.44920  0.09230  1.0000
  C   C15       1.0  0.31000  0.55080  0.59230  1.0000
  C   C16       1.0  0.69000  0.44920  0.09230  1.0000
  H   H9        1.0  0.15880  0.08630  0.56550  1.0000
  H   H10       1.0  0.84120  0.91370  0.06550  1.0000
  H   H11       1.0  0.84120  0.08630  0.56550  1.0000
  H   H12       1.0  0.15880  0.91370  0.06550  1.0000
  H   H13       1.0  0.65880  0.58630  0.56550  1.0000
  H   H14       1.0  0.34120  0.41370  0.06550  1.0000
  H   H15       1.0  0.34120  0.58630  0.56550  1.0000
  H   H16       1.0  0.65880  0.41370  0.06550  1.0000
  C   C17       1.0  0.19080  0.04070  0.68920  1.0000
  C   C18       1.0  0.80920  0.95930  0.18920  1.0000
  C   C19       1.0  0.80920  0.04070  0.68920  1.0000
  C   C20       1.0  0.19080  0.95930  0.18920  1.0000
  C   C21       1.0  0.69080  0.54070  0.68920  1.0000
  C   C22       1.0  0.30920  0.45930  0.18920  1.0000
  C   C23       1.0  0.30920  0.54070  0.68920  1.0000
  C   C24       1.0  0.69080  0.45930  0.18920  1.0000
  H   H17       1.0  0.16180  0.07170  0.72710  1.0000
  H   H18       1.0  0.83820  0.92830  0.22710  1.0000
  H   H19       1.0  0.83820  0.07170  0.72710  1.0000
  H   H20       1.0  0.16180  0.92830  0.22710  1.0000
  H   H21       1.0  0.66180  0.57170  0.72710  1.0000
  H   H22       1.0  0.33820  0.42830  0.22710  1.0000
  H   H23       1.0  0.33820  0.57170  0.72710  1.0000
  H   H24       1.0  0.66180  0.42830  0.22710  1.0000
  C   C25       1.0  0.27410  0.94750  0.67410  1.0000
  C   C26       1.0  0.72590  0.05250  0.17410  1.0000
  C   C27       1.0  0.72590  0.94750  0.67410  1.0000
  C   C28       1.0  0.27410  0.05250  0.17410  1.0000
  C   C29       1.0  0.77410  0.44750  0.67410  1.0000
  C   C30       1.0  0.22590  0.55250  0.17410  1.0000
  C   C31       1.0  0.22590  0.44750  0.67410  1.0000
  C   C32       1.0  0.77410  0.55250  0.17410  1.0000
  H   H25       1.0  0.30300  0.91040  0.70060  1.0000
  H   H26       1.0  0.69700  0.08960  0.20060  1.0000
  H   H27       1.0  0.69700  0.91040  0.70060  1.0000
  H   H28       1.0  0.30300  0.08960  0.20060  1.0000
  H   H29       1.0  0.80300  0.41040  0.70060  1.0000
  H   H30       1.0  0.19700  0.58960  0.20060  1.0000
  H   H31       1.0  0.19700  0.41040  0.70060  1.0000
  H   H32       1.0  0.80300  0.58960  0.20060  1.0000
