data_image0
_chemical_formula_structural       Eu4O4C4H8C4N16C12H4C8H8C4H4C4H8C4H4C8H8O4C12H4C8H8C4H4C4H8C4H4C8H8O4C4H8C4N16C12H4C8H8C4H4C4H8C4H4C8H8O4C12H4C8H8C4H4C4H8C4H4C8H8O4H4C4H8C4H12
_chemical_formula_sum              "Eu4 O20 C184 H184 N32"
_cell_length_a       23.4393
_cell_length_b       22.1593
_cell_length_c       9.7424
_cell_angle_alpha    90
_cell_angle_beta     101.163
_cell_angle_gamma    90

_space_group_name_H-M_alt    "P 1"
_space_group_IT_number       1

loop_
  _space_group_symop_operation_xyz
  'x, y, z'

loop_
  _atom_site_type_symbol
  _atom_site_label
  _atom_site_symmetry_multiplicity
  _atom_site_fract_x
  _atom_site_fract_y
  _atom_site_fract_z
  _atom_site_occupancy
  Eu  Eu1       1.0  0.49017  0.37999  0.49816  1.0000
  Eu  Eu2       1.0  0.49017  0.62001  0.99816  1.0000
  Eu  Eu3       1.0  0.99017  0.87999  0.49816  1.0000
  Eu  Eu4       1.0  0.99017  0.12001  0.99816  1.0000
  O   O1        1.0  0.49920  0.31030  0.28880  1.0000
  O   O2        1.0  0.49920  0.68970  0.78880  1.0000
  O   O3        1.0  0.99920  0.81030  0.28880  1.0000
  O   O4        1.0  0.99920  0.18970  0.78880  1.0000
  C   C1        1.0  0.45080  0.29540  0.17700  1.0000
  C   C2        1.0  0.45080  0.70460  0.67700  1.0000
  C   C3        1.0  0.95080  0.79540  0.17700  1.0000
  C   C4        1.0  0.95080  0.20460  0.67700  1.0000
  H   H1        1.0  0.45060  0.25160  0.15630  1.0000
  H   H2        1.0  0.45060  0.74840  0.65630  1.0000
  H   H3        1.0  0.95060  0.75160  0.15630  1.0000
  H   H4        1.0  0.95060  0.24840  0.65630  1.0000
  H   H5        1.0  0.45370  0.31790  0.09090  1.0000
  H   H6        1.0  0.45370  0.68210  0.59090  1.0000
  H   H7        1.0  0.95370  0.81790  0.09090  1.0000
  H   H8        1.0  0.95370  0.18210  0.59090  1.0000
  C   C5        1.0  0.39670  0.31280  0.22740  1.0000
  C   C6        1.0  0.39670  0.68720  0.72740  1.0000
  C   C7        1.0  0.89670  0.81280  0.22740  1.0000
  C   C8        1.0  0.89670  0.18720  0.72740  1.0000
  N   N1        1.0  0.39760  0.34410  0.34080  1.0000
  N   N2        1.0  0.39760  0.65590  0.84080  1.0000
  N   N3        1.0  0.89760  0.84410  0.34080  1.0000
  N   N4        1.0  0.89760  0.15590  0.84080  1.0000
  N   N5        1.0  0.34100  0.35540  0.34630  1.0000
  N   N6        1.0  0.34100  0.64460  0.84630  1.0000
  N   N7        1.0  0.84100  0.85540  0.34630  1.0000
  N   N8        1.0  0.84100  0.14460  0.84630  1.0000
  N   N9        1.0  0.30960  0.32930  0.23820  1.0000
  N   N10       1.0  0.30960  0.67070  0.73820  1.0000
  N   N11       1.0  0.80960  0.82930  0.23820  1.0000
  N   N12       1.0  0.80960  0.17070  0.73820  1.0000
  N   N13       1.0  0.34310  0.30130  0.15790  1.0000
  N   N14       1.0  0.34310  0.69870  0.65790  1.0000
  N   N15       1.0  0.84310  0.80130  0.15790  1.0000
  N   N16       1.0  0.84310  0.19870  0.65790  1.0000
  C   C9        1.0  0.54750  0.27180  0.29340  1.0000
  C   C10       1.0  0.54750  0.72820  0.79340  1.0000
  C   C11       1.0  0.04750  0.77180  0.29340  1.0000
  C   C12       1.0  0.04750  0.22820  0.79340  1.0000
  C   C13       1.0  0.59720  0.29490  0.25500  1.0000
  C   C14       1.0  0.59720  0.70510  0.75500  1.0000
  C   C15       1.0  0.09720  0.79490  0.25500  1.0000
  C   C16       1.0  0.09720  0.20510  0.75500  1.0000
  C   C17       1.0  0.64420  0.25500  0.26220  1.0000
  C   C18       1.0  0.64420  0.74500  0.76220  1.0000
  C   C19       1.0  0.14420  0.75500  0.26220  1.0000
  C   C20       1.0  0.14420  0.24500  0.76220  1.0000
  H   H9        1.0  0.67810  0.26880  0.23210  1.0000
  H   H10       1.0  0.67810  0.73120  0.73210  1.0000
  H   H11       1.0  0.17810  0.76880  0.23210  1.0000
  H   H12       1.0  0.17810  0.23120  0.73210  1.0000
  C   C21       1.0  0.64340  0.19660  0.31070  1.0000
  C   C22       1.0  0.64340  0.80340  0.81070  1.0000
  C   C23       1.0  0.14340  0.69660  0.31070  1.0000
  C   C24       1.0  0.14340  0.30340  0.81070  1.0000
  C   C25       1.0  0.69630  0.15710  0.32100  1.0000
  C   C26       1.0  0.69630  0.84290  0.82100  1.0000
  C   C27       1.0  0.19630  0.65710  0.32100  1.0000
  C   C28       1.0  0.19630  0.34290  0.82100  1.0000
  H   H13       1.0  0.72640  0.18070  0.28570  1.0000
  H   H14       1.0  0.72640  0.81930  0.78570  1.0000
  H   H15       1.0  0.22640  0.68070  0.28570  1.0000
  H   H16       1.0  0.22640  0.31930  0.78570  1.0000
  H   H17       1.0  0.71150  0.14910  0.42130  1.0000
  H   H18       1.0  0.71150  0.85090  0.92130  1.0000
  H   H19       1.0  0.21150  0.64910  0.42130  1.0000
  H   H20       1.0  0.21150  0.35090  0.92130  1.0000
  C   C29       1.0  0.69050  0.10090  0.25000  1.0000
  C   C30       1.0  0.69050  0.89910  0.75000  1.0000
  C   C31       1.0  0.19050  0.60090  0.25000  1.0000
  C   C32       1.0  0.19050  0.39910  0.75000  1.0000
  H   H21       1.0  0.71640  0.06880  0.28280  1.0000
  H   H22       1.0  0.71640  0.93120  0.78280  1.0000
  H   H23       1.0  0.21640  0.56880  0.28280  1.0000
  H   H24       1.0  0.21640  0.43120  0.78280  1.0000
  C   C33       1.0  0.64990  0.09340  0.14200  1.0000
  C   C34       1.0  0.64990  0.90660  0.64200  1.0000
  C   C35       1.0  0.14990  0.59340  0.14200  1.0000
  C   C36       1.0  0.14990  0.40660  0.64200  1.0000
  H   H25       1.0  0.62400  0.12560  0.10940  1.0000
  H   H26       1.0  0.62400  0.87440  0.60940  1.0000
  H   H27       1.0  0.12400  0.62560  0.10940  1.0000
  H   H28       1.0  0.12400  0.37440  0.60940  1.0000
  H   H29       1.0  0.64590  0.05580  0.09440  1.0000
  H   H30       1.0  0.64590  0.94420  0.59440  1.0000
  H   H31       1.0  0.14590  0.55580  0.09440  1.0000
  H   H32       1.0  0.14590  0.44420  0.59440  1.0000
  C   C37       1.0  0.59310  0.17690  0.35460  1.0000
  C   C38       1.0  0.59310  0.82310  0.85460  1.0000
  C   C39       1.0  0.09310  0.67690  0.35460  1.0000
  C   C40       1.0  0.09310  0.32310  0.85460  1.0000
  H   H33       1.0  0.59190  0.13690  0.38870  1.0000
  H   H34       1.0  0.59190  0.86310  0.88870  1.0000
  H   H35       1.0  0.09190  0.63690  0.38870  1.0000
  H   H36       1.0  0.09190  0.36310  0.88870  1.0000
  C   C41       1.0  0.54480  0.21380  0.35010  1.0000
  C   C42       1.0  0.54480  0.78620  0.85010  1.0000
  C   C43       1.0  0.04480  0.71380  0.35010  1.0000
  C   C44       1.0  0.04480  0.28620  0.85010  1.0000
  C   C45       1.0  0.49400  0.19090  0.41120  1.0000
  C   C46       1.0  0.49400  0.80910  0.91120  1.0000
  C   C47       1.0  0.99400  0.69090  0.41120  1.0000
  C   C48       1.0  0.99400  0.30910  0.91120  1.0000
  H   H37       1.0  0.48210  0.15090  0.37020  1.0000
  H   H38       1.0  0.48210  0.84910  0.87020  1.0000
  H   H39       1.0  0.98210  0.65090  0.37020  1.0000
  H   H40       1.0  0.98210  0.34910  0.87020  1.0000
  H   H41       1.0  0.46070  0.21870  0.38400  1.0000
  H   H42       1.0  0.46070  0.78130  0.88400  1.0000
  H   H43       1.0  0.96070  0.71870  0.38400  1.0000
  H   H44       1.0  0.96070  0.28130  0.88400  1.0000
  O   O5        1.0  0.57920  0.39750  0.47120  1.0000
  O   O6        1.0  0.57920  0.60250  0.97120  1.0000
  O   O7        1.0  0.07920  0.89750  0.47120  1.0000
  O   O8        1.0  0.07920  0.10250  0.97120  1.0000
  C   C49       1.0  0.63210  0.41010  0.45180  1.0000
  C   C50       1.0  0.63210  0.58990  0.95180  1.0000
  C   C51       1.0  0.13210  0.91010  0.45180  1.0000
  C   C52       1.0  0.13210  0.08990  0.95180  1.0000
  C   C53       1.0  0.67320  0.44060  0.55530  1.0000
  C   C54       1.0  0.67320  0.55940  0.05530  1.0000
  C   C55       1.0  0.17320  0.94060  0.55530  1.0000
  C   C56       1.0  0.17320  0.05940  0.05530  1.0000
  C   C57       1.0  0.72820  0.45050  0.52990  1.0000
  C   C58       1.0  0.72820  0.54950  0.02990  1.0000
  C   C59       1.0  0.22820  0.95050  0.52990  1.0000
  C   C60       1.0  0.22820  0.04950  0.02990  1.0000
  H   H45       1.0  0.75560  0.47060  0.59960  1.0000
  H   H46       1.0  0.75560  0.52940  0.09960  1.0000
  H   H47       1.0  0.25560  0.97060  0.59960  1.0000
  H   H48       1.0  0.25560  0.02940  0.09960  1.0000
  C   C61       1.0  0.74540  0.43290  0.40870  1.0000
  C   C62       1.0  0.74540  0.56710  0.90870  1.0000
  C   C63       1.0  0.24540  0.93290  0.40870  1.0000
  C   C64       1.0  0.24540  0.06710  0.90870  1.0000
  C   C65       1.0  0.80760  0.44440  0.39100  1.0000
  C   C66       1.0  0.80760  0.55560  0.89100  1.0000
  C   C67       1.0  0.30760  0.94440  0.39100  1.0000
  C   C68       1.0  0.30760  0.05560  0.89100  1.0000
  H   H49       1.0  0.81760  0.48720  0.41230  1.0000
  H   H50       1.0  0.81760  0.51280  0.91230  1.0000
  H   H51       1.0  0.31760  0.98720  0.41230  1.0000
  H   H52       1.0  0.31760  0.01280  0.91230  1.0000
  H   H53       1.0  0.81040  0.43710  0.29180  1.0000
  H   H54       1.0  0.81040  0.56290  0.79180  1.0000
  H   H55       1.0  0.31040  0.93710  0.29180  1.0000
  H   H56       1.0  0.31040  0.06290  0.79180  1.0000
  C   C69       1.0  0.85110  0.40400  0.48500  1.0000
  C   C70       1.0  0.85110  0.59600  0.98500  1.0000
  C   C71       1.0  0.35110  0.90400  0.48500  1.0000
  C   C72       1.0  0.35110  0.09600  0.98500  1.0000
  H   H57       1.0  0.85290  0.40680  0.58330  1.0000
  H   H58       1.0  0.85290  0.59320  0.08330  1.0000
  H   H59       1.0  0.35290  0.90680  0.58330  1.0000
  H   H60       1.0  0.35290  0.09320  0.08330  1.0000
  C   C73       1.0  0.88590  0.36600  0.44100  1.0000
  C   C74       1.0  0.88590  0.63400  0.94100  1.0000
  C   C75       1.0  0.38590  0.86600  0.44100  1.0000
  C   C76       1.0  0.38590  0.13400  0.94100  1.0000
  H   H61       1.0  0.88530  0.36200  0.34390  1.0000
  H   H62       1.0  0.88530  0.63800  0.84390  1.0000
  H   H63       1.0  0.38530  0.86200  0.34390  1.0000
  H   H64       1.0  0.38530  0.13800  0.84390  1.0000
  H   H65       1.0  0.91190  0.34220  0.50660  1.0000
  H   H66       1.0  0.91190  0.65780  0.00660  1.0000
  H   H67       1.0  0.41190  0.84220  0.50660  1.0000
  H   H68       1.0  0.41190  0.15780  0.00660  1.0000
  C   C77       1.0  0.70460  0.40310  0.30930  1.0000
  C   C78       1.0  0.70460  0.59690  0.80930  1.0000
  C   C79       1.0  0.20460  0.90310  0.30930  1.0000
  C   C80       1.0  0.20460  0.09690  0.80930  1.0000
  H   H69       1.0  0.71570  0.39030  0.22520  1.0000
  H   H70       1.0  0.71570  0.60970  0.72520  1.0000
  H   H71       1.0  0.21570  0.89030  0.22520  1.0000
  H   H72       1.0  0.21570  0.10970  0.72520  1.0000
  C   C81       1.0  0.64830  0.39130  0.32740  1.0000
  C   C82       1.0  0.64830  0.60870  0.82740  1.0000
  C   C83       1.0  0.14830  0.89130  0.32740  1.0000
  C   C84       1.0  0.14830  0.10870  0.82740  1.0000
  C   C85       1.0  0.60420  0.35930  0.21560  1.0000
  C   C86       1.0  0.60420  0.64070  0.71560  1.0000
  C   C87       1.0  0.10420  0.85930  0.21560  1.0000
  C   C88       1.0  0.10420  0.14070  0.71560  1.0000
  H   H73       1.0  0.56630  0.38020  0.20420  1.0000
  H   H74       1.0  0.56630  0.61980  0.70420  1.0000
  H   H75       1.0  0.06630  0.88020  0.20420  1.0000
  H   H76       1.0  0.06630  0.11980  0.70420  1.0000
  H   H77       1.0  0.61740  0.36110  0.12510  1.0000
  H   H78       1.0  0.61740  0.63890  0.62510  1.0000
  H   H79       1.0  0.11740  0.86110  0.12510  1.0000
  H   H80       1.0  0.11740  0.13890  0.62510  1.0000
  O   O9        1.0  0.54760  0.40600  0.74790  1.0000
  O   O10       1.0  0.54760  0.59400  0.24790  1.0000
  O   O11       1.0  0.04760  0.90600  0.74790  1.0000
  O   O12       1.0  0.04760  0.09400  0.24790  1.0000
  C   C89       1.0  0.53380  0.45480  0.83270  1.0000
  C   C90       1.0  0.53380  0.54520  0.33270  1.0000
  C   C91       1.0  0.03380  0.95480  0.83270  1.0000
  C   C92       1.0  0.03380  0.04520  0.33270  1.0000
  H   H81       1.0  0.56970  0.47650  0.87610  1.0000
  H   H82       1.0  0.56970  0.52350  0.37610  1.0000
  H   H83       1.0  0.06970  0.97650  0.87610  1.0000
  H   H84       1.0  0.06970  0.02350  0.37610  1.0000
  H   H85       1.0  0.51500  0.43900  0.90820  1.0000
  H   H86       1.0  0.51500  0.56100  0.40820  1.0000
  H   H87       1.0  0.01500  0.93900  0.90820  1.0000
  H   H88       1.0  0.01500  0.06100  0.40820  1.0000
  C   C93       1.0  0.49330  0.49650  0.74050  1.0000
  C   C94       1.0  0.49330  0.50350  0.24050  1.0000
  C   C95       1.0  0.99330  0.99650  0.74050  1.0000
  C   C96       1.0  0.99330  0.00350  0.24050  1.0000
  N   N17       1.0  0.47440  0.48300  0.60610  1.0000
  N   N18       1.0  0.47440  0.51700  0.10610  1.0000
  N   N19       1.0  0.97440  0.98300  0.60610  1.0000
  N   N20       1.0  0.97440  0.01700  0.10610  1.0000
  N   N21       1.0  0.44020  0.52860  0.55460  1.0000
  N   N22       1.0  0.44020  0.47140  0.05460  1.0000
  N   N23       1.0  0.94020  0.02860  0.55460  1.0000
  N   N24       1.0  0.94020  0.97140  0.05460  1.0000
  N   N25       1.0  0.43910  0.56760  0.65200  1.0000
  N   N26       1.0  0.43910  0.43240  0.15200  1.0000
  N   N27       1.0  0.93910  0.06760  0.65200  1.0000
  N   N28       1.0  0.93910  0.93240  0.15200  1.0000
  N   N29       1.0  0.47380  0.54730  0.77450  1.0000
  N   N30       1.0  0.47380  0.45270  0.27450  1.0000
  N   N31       1.0  0.97380  0.04730  0.77450  1.0000
  N   N32       1.0  0.97380  0.95270  0.27450  1.0000
  C   C97       1.0  0.60050  0.37710  0.79990  1.0000
  C   C98       1.0  0.60050  0.62290  0.29990  1.0000
  C   C99       1.0  0.10050  0.87710  0.79990  1.0000
  C   C100      1.0  0.10050  0.12290  0.29990  1.0000
  C   C101      1.0  0.59850  0.32110  0.86640  1.0000
  C   C102      1.0  0.59850  0.67890  0.36640  1.0000
  C   C103      1.0  0.09850  0.82110  0.86640  1.0000
  C   C104      1.0  0.09850  0.17890  0.36640  1.0000
  C   C105      1.0  0.65100  0.29230  0.92080  1.0000
  C   C106      1.0  0.65100  0.70770  0.42080  1.0000
  C   C107      1.0  0.15100  0.79230  0.92080  1.0000
  C   C108      1.0  0.15100  0.20770  0.42080  1.0000
  H   H89       1.0  0.65090  0.25410  0.96520  1.0000
  H   H90       1.0  0.65090  0.74590  0.46520  1.0000
  H   H91       1.0  0.15090  0.75410  0.96520  1.0000
  H   H92       1.0  0.15090  0.24590  0.46520  1.0000
  C   C109      1.0  0.70390  0.31940  0.91010  1.0000
  C   C110      1.0  0.70390  0.68060  0.41010  1.0000
  C   C111      1.0  0.20390  0.81940  0.91010  1.0000
  C   C112      1.0  0.20390  0.18060  0.41010  1.0000
  C   C113      1.0  0.76060  0.28640  0.97000  1.0000
  C   C114      1.0  0.76060  0.71360  0.47000  1.0000
  C   C115      1.0  0.26060  0.78640  0.97000  1.0000
  C   C116      1.0  0.26060  0.21360  0.47000  1.0000
  H   H93       1.0  0.75290  0.25580  0.03810  1.0000
  H   H94       1.0  0.75290  0.74420  0.53810  1.0000
  H   H95       1.0  0.25290  0.75580  0.03810  1.0000
  H   H96       1.0  0.25290  0.24420  0.53810  1.0000
  H   H97       1.0  0.77430  0.26500  0.89320  1.0000
  H   H98       1.0  0.77430  0.73500  0.39320  1.0000
  H   H99       1.0  0.27430  0.76500  0.89320  1.0000
  H   H100      1.0  0.27430  0.23500  0.39320  1.0000
  C   C117      1.0  0.80620  0.32640  0.03900  1.0000
  C   C118      1.0  0.80620  0.67360  0.53900  1.0000
  C   C119      1.0  0.30620  0.82640  0.03900  1.0000
  C   C120      1.0  0.30620  0.17360  0.53900  1.0000
  H   H101      1.0  0.80240  0.34190  0.12730  1.0000
  H   H102      1.0  0.80240  0.65810  0.62730  1.0000
  H   H103      1.0  0.30240  0.84190  0.12730  1.0000
  H   H104      1.0  0.30240  0.15810  0.62730  1.0000
  C   C121      1.0  0.85240  0.34340  0.99000  1.0000
  C   C122      1.0  0.85240  0.65660  0.49000  1.0000
  C   C123      1.0  0.35240  0.84340  0.99000  1.0000
  C   C124      1.0  0.35240  0.15660  0.49000  1.0000
  H   H105      1.0  0.85820  0.32920  0.90200  1.0000
  H   H106      1.0  0.85820  0.67080  0.40200  1.0000
  H   H107      1.0  0.35820  0.82920  0.90200  1.0000
  H   H108      1.0  0.35820  0.17080  0.40200  1.0000
  H   H109      1.0  0.87990  0.37000  0.04360  1.0000
  H   H110      1.0  0.87990  0.63000  0.54360  1.0000
  H   H111      1.0  0.37990  0.87000  0.04360  1.0000
  H   H112      1.0  0.37990  0.13000  0.54360  1.0000
  C   C125      1.0  0.70380  0.37450  0.84040  1.0000
  C   C126      1.0  0.70380  0.62550  0.34040  1.0000
  C   C127      1.0  0.20380  0.87450  0.84040  1.0000
  C   C128      1.0  0.20380  0.12550  0.34040  1.0000
  H   H113      1.0  0.73970  0.39280  0.83340  1.0000
  H   H114      1.0  0.73970  0.60720  0.33340  1.0000
  H   H115      1.0  0.23970  0.89280  0.83340  1.0000
  H   H116      1.0  0.23970  0.10720  0.33340  1.0000
  C   C129      1.0  0.65260  0.40290  0.78160  1.0000
  C   C130      1.0  0.65260  0.59710  0.28160  1.0000
  C   C131      1.0  0.15260  0.90290  0.78160  1.0000
  C   C132      1.0  0.15260  0.09710  0.28160  1.0000
  C   C133      1.0  0.65560  0.45770  0.69020  1.0000
  C   C134      1.0  0.65560  0.54230  0.19020  1.0000
  C   C135      1.0  0.15560  0.95770  0.69020  1.0000
  C   C136      1.0  0.15560  0.04230  0.19020  1.0000
  H   H117      1.0  0.61710  0.47770  0.66970  1.0000
  H   H118      1.0  0.61710  0.52230  0.16970  1.0000
  H   H119      1.0  0.11710  0.97770  0.66970  1.0000
  H   H120      1.0  0.11710  0.02230  0.16970  1.0000
  H   H121      1.0  0.68400  0.48690  0.74120  1.0000
  H   H122      1.0  0.68400  0.51310  0.24120  1.0000
  H   H123      1.0  0.18400  0.98690  0.74120  1.0000
  H   H124      1.0  0.18400  0.01310  0.24120  1.0000
  O   O13       1.0  0.52140  0.29180  0.58630  1.0000
  O   O14       1.0  0.52140  0.70820  0.08630  1.0000
  O   O15       1.0  0.02140  0.79180  0.58630  1.0000
  O   O16       1.0  0.02140  0.20820  0.08630  1.0000
  C   C137      1.0  0.51950  0.23780  0.64630  1.0000
  C   C138      1.0  0.51950  0.76220  0.14630  1.0000
  C   C139      1.0  0.01950  0.73780  0.64630  1.0000
  C   C140      1.0  0.01950  0.26220  0.14630  1.0000
  C   C141      1.0  0.50790  0.18520  0.57110  1.0000
  C   C142      1.0  0.50790  0.81480  0.07110  1.0000
  C   C143      1.0  0.00790  0.68520  0.57110  1.0000
  C   C144      1.0  0.00790  0.31480  0.07110  1.0000
  C   C145      1.0  0.50750  0.12980  0.63610  1.0000
  C   C146      1.0  0.50750  0.87020  0.13610  1.0000
  C   C147      1.0  0.00750  0.62980  0.63610  1.0000
  C   C148      1.0  0.00750  0.37020  0.13610  1.0000
  H   H125      1.0  0.50090  0.09430  0.58060  1.0000
  H   H126      1.0  0.50090  0.90570  0.08060  1.0000
  H   H127      1.0  0.00090  0.59430  0.58060  1.0000
  H   H128      1.0  0.00090  0.40570  0.08060  1.0000
  C   C149      1.0  0.51670  0.12490  0.78180  1.0000
  C   C150      1.0  0.51670  0.87510  0.28180  1.0000
  C   C151      1.0  0.01670  0.62490  0.78180  1.0000
  C   C152      1.0  0.01670  0.37510  0.28180  1.0000
  C   C153      1.0  0.51800  0.06370  0.85200  1.0000
  C   C154      1.0  0.51800  0.93630  0.35200  1.0000
  C   C155      1.0  0.01800  0.56370  0.85200  1.0000
  C   C156      1.0  0.01800  0.43630  0.35200  1.0000
  H   H129      1.0  0.55820  0.04790  0.86510  1.0000
  H   H130      1.0  0.55820  0.95210  0.36510  1.0000
  H   H131      1.0  0.05820  0.54790  0.86510  1.0000
  H   H132      1.0  0.05820  0.45210  0.36510  1.0000
  H   H133      1.0  0.50890  0.06950  0.94610  1.0000
  H   H134      1.0  0.50890  0.93050  0.44610  1.0000
  H   H135      1.0  0.00890  0.56950  0.94610  1.0000
  H   H136      1.0  0.00890  0.43050  0.44610  1.0000
  C   C157      1.0  0.47840  0.01760  0.77800  1.0000
  C   C158      1.0  0.47840  0.98240  0.27800  1.0000
  C   C159      1.0  0.97840  0.51760  0.77800  1.0000
  C   C160      1.0  0.97840  0.48240  0.27800  1.0000
  H   H137      1.0  0.43810  0.02690  0.75990  1.0000
  H   H138      1.0  0.43810  0.97310  0.25990  1.0000
  H   H139      1.0  0.93810  0.52690  0.75990  1.0000
  H   H140      1.0  0.93810  0.47310  0.25990  1.0000
  C   C161      1.0  0.49340  0.96550  0.73700  1.0000
  C   C162      1.0  0.49340  0.03450  0.23700  1.0000
  C   C163      1.0  0.99340  0.46550  0.73700  1.0000
  C   C164      1.0  0.99340  0.53450  0.23700  1.0000
  H   H141      1.0  0.53330  0.95420  0.75270  1.0000
  H   H142      1.0  0.53330  0.04580  0.25270  1.0000
  H   H143      1.0  0.03330  0.45420  0.75270  1.0000
  H   H144      1.0  0.03330  0.54580  0.25270  1.0000
  H   H145      1.0  0.46460  0.93860  0.68960  1.0000
  H   H146      1.0  0.46460  0.06140  0.18960  1.0000
  H   H147      1.0  0.96460  0.43860  0.68960  1.0000
  H   H148      1.0  0.96460  0.56140  0.18960  1.0000
  C   C165      1.0  0.52680  0.17820  0.85780  1.0000
  C   C166      1.0  0.52680  0.82180  0.35780  1.0000
  C   C167      1.0  0.02680  0.67820  0.85780  1.0000
  C   C168      1.0  0.02680  0.32180  0.35780  1.0000
  H   H149      1.0  0.53200  0.17630  0.95690  1.0000
  H   H150      1.0  0.53200  0.82370  0.45690  1.0000
  H   H151      1.0  0.03200  0.67630  0.95690  1.0000
  H   H152      1.0  0.03200  0.32370  0.45690  1.0000
  C   C169      1.0  0.52960  0.23320  0.79570  1.0000
  C   C170      1.0  0.52960  0.76680  0.29570  1.0000
  C   C171      1.0  0.02960  0.73320  0.79570  1.0000
  C   C172      1.0  0.02960  0.26680  0.29570  1.0000
  C   C173      1.0  0.54030  0.29100  0.87980  1.0000
  C   C174      1.0  0.54030  0.70900  0.37980  1.0000
  C   C175      1.0  0.04030  0.79100  0.87980  1.0000
  C   C176      1.0  0.04030  0.20900  0.37980  1.0000
  H   H153      1.0  0.54070  0.28200  0.97950  1.0000
  H   H154      1.0  0.54070  0.71800  0.47950  1.0000
  H   H155      1.0  0.04070  0.78200  0.97950  1.0000
  H   H156      1.0  0.04070  0.21800  0.47950  1.0000
  H   H157      1.0  0.50800  0.31950  0.84690  1.0000
  H   H158      1.0  0.50800  0.68050  0.34690  1.0000
  H   H159      1.0  0.00800  0.81950  0.84690  1.0000
  H   H160      1.0  0.00800  0.18050  0.34690  1.0000
  O   O17       1.0  0.42040  0.36600  0.65390  1.0000
  O   O18       1.0  0.42040  0.63400  0.15390  1.0000
  O   O19       1.0  0.92040  0.86600  0.65390  1.0000
  O   O20       1.0  0.92040  0.13400  0.15390  1.0000
  H   H161      1.0  0.41300  0.40000  0.68200  1.0000
  H   H162      1.0  0.41300  0.60000  0.18200  1.0000
  H   H163      1.0  0.91300  0.90000  0.68200  1.0000
  H   H164      1.0  0.91300  0.10000  0.18200  1.0000
  C   C177      1.0  0.38420  0.31260  0.65620  1.0000
  C   C178      1.0  0.38420  0.68740  0.15620  1.0000
  C   C179      1.0  0.88420  0.81260  0.65620  1.0000
  C   C180      1.0  0.88420  0.18740  0.15620  1.0000
  H   H165      1.0  0.40180  0.27850  0.61380  1.0000
  H   H166      1.0  0.40180  0.72150  0.11380  1.0000
  H   H167      1.0  0.90180  0.77850  0.61380  1.0000
  H   H168      1.0  0.90180  0.22150  0.11380  1.0000
  H   H169      1.0  0.34540  0.32040  0.59800  1.0000
  H   H170      1.0  0.34540  0.67960  0.09800  1.0000
  H   H171      1.0  0.84540  0.82040  0.59800  1.0000
  H   H172      1.0  0.84540  0.17960  0.09800  1.0000
  C   C181      1.0  0.37700  0.29510  0.79900  1.0000
  C   C182      1.0  0.37700  0.70490  0.29900  1.0000
  C   C183      1.0  0.87700  0.79510  0.79900  1.0000
  C   C184      1.0  0.87700  0.20490  0.29900  1.0000
  H   H173      1.0  0.41410  0.28010  0.85190  1.0000
  H   H174      1.0  0.41410  0.71990  0.35190  1.0000
  H   H175      1.0  0.91410  0.78010  0.85190  1.0000
  H   H176      1.0  0.91410  0.21990  0.35190  1.0000
  H   H177      1.0  0.34750  0.26330  0.79210  1.0000
  H   H178      1.0  0.34750  0.73670  0.29210  1.0000
  H   H179      1.0  0.84750  0.76330  0.79210  1.0000
  H   H180      1.0  0.84750  0.23670  0.29210  1.0000
  H   H181      1.0  0.36460  0.33030  0.84640  1.0000
  H   H182      1.0  0.36460  0.66970  0.34640  1.0000
  H   H183      1.0  0.86460  0.83030  0.84640  1.0000
  H   H184      1.0  0.86460  0.16970  0.34640  1.0000
