data_image0
_chemical_formula_structural       In8O48C8H8C24H8C8N8C24N8C8H8C8H8C32H8C8O8C8H8C8H8C8H8C16H8C8H8C16H8C8H8C16H8C16H8C8H8O8C8H8C8H8C24H8C8H8C16H8C8H8C8H8C16H8C8H8C16
_chemical_formula_sum              "In8 O64 C352 H192 N16"
_cell_length_a       29.078
_cell_length_b       22.581
_cell_length_c       30.471
_cell_angle_alpha    90
_cell_angle_beta     90
_cell_angle_gamma    90

_space_group_name_H-M_alt    "P 1"
_space_group_IT_number       1

loop_
  _space_group_symop_operation_xyz
  'x, y, z'

loop_
  _atom_site_type_symbol
  _atom_site_label
  _atom_site_symmetry_multiplicity
  _atom_site_fract_x
  _atom_site_fract_y
  _atom_site_fract_z
  _atom_site_occupancy
  In  In1       1.0  0.61068  0.86994  0.02923  1.0000
  In  In2       1.0  0.88932  0.63006  0.52923  1.0000
  In  In3       1.0  0.11068  0.63006  0.97077  1.0000
  In  In4       1.0  0.38932  0.86994  0.47077  1.0000
  In  In5       1.0  0.38932  0.13006  0.97077  1.0000
  In  In6       1.0  0.11068  0.36994  0.47077  1.0000
  In  In7       1.0  0.88932  0.36994  0.02923  1.0000
  In  In8       1.0  0.61068  0.13006  0.52923  1.0000
  O   O1        1.0  0.61005  0.78032  0.99350  1.0000
  O   O2        1.0  0.88995  0.71968  0.49350  1.0000
  O   O3        1.0  0.11005  0.71968  0.00650  1.0000
  O   O4        1.0  0.38995  0.78032  0.50650  1.0000
  O   O5        1.0  0.38995  0.21968  0.00650  1.0000
  O   O6        1.0  0.11005  0.28032  0.50650  1.0000
  O   O7        1.0  0.88995  0.28032  0.99350  1.0000
  O   O8        1.0  0.61005  0.21968  0.49350  1.0000
  O   O9        1.0  0.54551  0.81988  0.01623  1.0000
  O   O10       1.0  0.95449  0.68012  0.51623  1.0000
  O   O11       1.0  0.04551  0.68012  0.98377  1.0000
  O   O12       1.0  0.45449  0.81988  0.48377  1.0000
  O   O13       1.0  0.45449  0.18012  0.98377  1.0000
  O   O14       1.0  0.04551  0.31988  0.48377  1.0000
  O   O15       1.0  0.95449  0.31988  0.01623  1.0000
  O   O16       1.0  0.54551  0.18012  0.51623  1.0000
  O   O17       1.0  0.18502  0.64130  0.97521  1.0000
  O   O18       1.0  0.31498  0.85870  0.47521  1.0000
  O   O19       1.0  0.68502  0.85870  0.02479  1.0000
  O   O20       1.0  0.81498  0.64130  0.52479  1.0000
  O   O21       1.0  0.81498  0.35870  0.02479  1.0000
  O   O22       1.0  0.68502  0.14130  0.52479  1.0000
  O   O23       1.0  0.31498  0.14130  0.97521  1.0000
  O   O24       1.0  0.18502  0.35870  0.47521  1.0000
  O   O25       1.0  0.61302  0.91153  0.96089  1.0000
  O   O26       1.0  0.88698  0.58847  0.46089  1.0000
  O   O27       1.0  0.11302  0.58847  0.03911  1.0000
  O   O28       1.0  0.38698  0.91153  0.53911  1.0000
  O   O29       1.0  0.38698  0.08847  0.03911  1.0000
  O   O30       1.0  0.11302  0.41153  0.53911  1.0000
  O   O31       1.0  0.88698  0.41153  0.96089  1.0000
  O   O32       1.0  0.61302  0.08847  0.46089  1.0000
  O   O33       1.0  0.61653  0.19380  0.58995  1.0000
  O   O34       1.0  0.88347  0.30620  0.08995  1.0000
  O   O35       1.0  0.11653  0.30620  0.41005  1.0000
  O   O36       1.0  0.38347  0.19380  0.91005  1.0000
  O   O37       1.0  0.38347  0.80620  0.41005  1.0000
  O   O38       1.0  0.11653  0.69380  0.91005  1.0000
  O   O39       1.0  0.88347  0.69380  0.58995  1.0000
  O   O40       1.0  0.61653  0.80620  0.08995  1.0000
  O   O41       1.0  0.58505  0.10773  0.59554  1.0000
  O   O42       1.0  0.91495  0.39227  0.09554  1.0000
  O   O43       1.0  0.08505  0.39227  0.40446  1.0000
  O   O44       1.0  0.41495  0.10773  0.90446  1.0000
  O   O45       1.0  0.41495  0.89227  0.40446  1.0000
  O   O46       1.0  0.08505  0.60773  0.90446  1.0000
  O   O47       1.0  0.91495  0.60773  0.59554  1.0000
  O   O48       1.0  0.58505  0.89227  0.09554  1.0000
  C   C1        1.0  0.32480  0.60220  0.96280  1.0000
  C   C2        1.0  0.17520  0.89780  0.46280  1.0000
  C   C3        1.0  0.82480  0.89780  0.03720  1.0000
  C   C4        1.0  0.67520  0.60220  0.53720  1.0000
  C   C5        1.0  0.67520  0.39780  0.03720  1.0000
  C   C6        1.0  0.82480  0.10220  0.53720  1.0000
  C   C7        1.0  0.17520  0.10220  0.96280  1.0000
  C   C8        1.0  0.32480  0.39780  0.46280  1.0000
  H   H1        1.0  0.34670  0.63110  0.96880  1.0000
  H   H2        1.0  0.15330  0.86890  0.46880  1.0000
  H   H3        1.0  0.84670  0.86890  0.03120  1.0000
  H   H4        1.0  0.65330  0.63110  0.53120  1.0000
  H   H5        1.0  0.65330  0.36890  0.03120  1.0000
  H   H6        1.0  0.84670  0.13110  0.53120  1.0000
  H   H7        1.0  0.15330  0.13110  0.96880  1.0000
  H   H8        1.0  0.34670  0.36890  0.46880  1.0000
  C   C9        1.0  0.47170  0.41590  0.90580  1.0000
  C   C10       1.0  0.02830  0.08410  0.40580  1.0000
  C   C11       1.0  0.97170  0.08410  0.09420  1.0000
  C   C12       1.0  0.52830  0.41590  0.59420  1.0000
  C   C13       1.0  0.52830  0.58410  0.09420  1.0000
  C   C14       1.0  0.97170  0.91590  0.59420  1.0000
  C   C15       1.0  0.02830  0.91590  0.90580  1.0000
  C   C16       1.0  0.47170  0.58410  0.40580  1.0000
  C   C17       1.0  0.49120  0.62460  0.96180  1.0000
  C   C18       1.0  0.00880  0.87540  0.46180  1.0000
  C   C19       1.0  0.99120  0.87540  0.03820  1.0000
  C   C20       1.0  0.50880  0.62460  0.53820  1.0000
  C   C21       1.0  0.50880  0.37540  0.03820  1.0000
  C   C22       1.0  0.99120  0.12460  0.53820  1.0000
  C   C23       1.0  0.00880  0.12460  0.96180  1.0000
  C   C24       1.0  0.49120  0.37540  0.46180  1.0000
  C   C25       1.0  0.54180  0.04300  0.95660  1.0000
  C   C26       1.0  0.95820  0.45700  0.45660  1.0000
  C   C27       1.0  0.04180  0.45700  0.04340  1.0000
  C   C28       1.0  0.45820  0.04300  0.54340  1.0000
  C   C29       1.0  0.45820  0.95700  0.04340  1.0000
  C   C30       1.0  0.04180  0.54300  0.54340  1.0000
  C   C31       1.0  0.95820  0.54300  0.95660  1.0000
  C   C32       1.0  0.54180  0.95700  0.45660  1.0000
  H   H9        1.0  0.52640  0.03840  0.98310  1.0000
  H   H10       1.0  0.97360  0.46160  0.48310  1.0000
  H   H11       1.0  0.02640  0.46160  0.01690  1.0000
  H   H12       1.0  0.47360  0.03840  0.51690  1.0000
  H   H13       1.0  0.47360  0.96160  0.01690  1.0000
  H   H14       1.0  0.02640  0.53840  0.51690  1.0000
  H   H15       1.0  0.97360  0.53840  0.98310  1.0000
  H   H16       1.0  0.52640  0.96160  0.48310  1.0000
  C   C33       1.0  0.38882  0.53310  0.94340  1.0000
  C   C34       1.0  0.11118  0.96690  0.44340  1.0000
  C   C35       1.0  0.88882  0.96690  0.05660  1.0000
  C   C36       1.0  0.61118  0.53310  0.55660  1.0000
  C   C37       1.0  0.61118  0.46690  0.05660  1.0000
  C   C38       1.0  0.88882  0.03310  0.55660  1.0000
  C   C39       1.0  0.11118  0.03310  0.94340  1.0000
  C   C40       1.0  0.38882  0.46690  0.44340  1.0000
  N   N1        1.0  0.55816  0.14612  0.82067  1.0000
  N   N2        1.0  0.94184  0.35388  0.32067  1.0000
  N   N3        1.0  0.05816  0.35388  0.17933  1.0000
  N   N4        1.0  0.44184  0.14612  0.67933  1.0000
  N   N5        1.0  0.44184  0.85388  0.17933  1.0000
  N   N6        1.0  0.05816  0.64612  0.67933  1.0000
  N   N7        1.0  0.94184  0.64612  0.82067  1.0000
  N   N8        1.0  0.55816  0.85388  0.32067  1.0000
  C   C41       1.0  0.57410  0.00070  0.94399  1.0000
  C   C42       1.0  0.92590  0.49930  0.44399  1.0000
  C   C43       1.0  0.07410  0.49930  0.05601  1.0000
  C   C44       1.0  0.42590  0.00070  0.55601  1.0000
  C   C45       1.0  0.42590  0.99930  0.05601  1.0000
  C   C46       1.0  0.07410  0.50070  0.55601  1.0000
  C   C47       1.0  0.92590  0.50070  0.94399  1.0000
  C   C48       1.0  0.57410  0.99930  0.44399  1.0000
  C   C49       1.0  0.55340  0.09830  0.89020  1.0000
  C   C50       1.0  0.94660  0.40170  0.39020  1.0000
  C   C51       1.0  0.05340  0.40170  0.10980  1.0000
  C   C52       1.0  0.44660  0.09830  0.60980  1.0000
  C   C53       1.0  0.44660  0.90170  0.10980  1.0000
  C   C54       1.0  0.05340  0.59830  0.60980  1.0000
  C   C55       1.0  0.94660  0.59830  0.89020  1.0000
  C   C56       1.0  0.55340  0.90170  0.39020  1.0000
  C   C57       1.0  0.45190  0.47190  0.92320  1.0000
  C   C58       1.0  0.04810  0.02810  0.42320  1.0000
  C   C59       1.0  0.95190  0.02810  0.07680  1.0000
  C   C60       1.0  0.54810  0.47190  0.57680  1.0000
  C   C61       1.0  0.54810  0.52810  0.07680  1.0000
  C   C62       1.0  0.95190  0.97190  0.57680  1.0000
  C   C63       1.0  0.04810  0.97190  0.92320  1.0000
  C   C64       1.0  0.45190  0.52810  0.42320  1.0000
  N   N9        1.0  0.41694  0.57930  0.95316  1.0000
  N   N10       1.0  0.08306  0.92070  0.45316  1.0000
  N   N11       1.0  0.91694  0.92070  0.04684  1.0000
  N   N12       1.0  0.58306  0.57930  0.54684  1.0000
  N   N13       1.0  0.58306  0.42070  0.04684  1.0000
  N   N14       1.0  0.91694  0.07930  0.54684  1.0000
  N   N15       1.0  0.08306  0.07930  0.95316  1.0000
  N   N16       1.0  0.41694  0.42070  0.45316  1.0000
  C   C65       1.0  0.40610  0.47960  0.92820  1.0000
  C   C66       1.0  0.09390  0.02040  0.42820  1.0000
  C   C67       1.0  0.90610  0.02040  0.07180  1.0000
  C   C68       1.0  0.59390  0.47960  0.57180  1.0000
  C   C69       1.0  0.59390  0.52040  0.07180  1.0000
  C   C70       1.0  0.90610  0.97960  0.57180  1.0000
  C   C71       1.0  0.09390  0.97960  0.92820  1.0000
  C   C72       1.0  0.40610  0.52040  0.42820  1.0000
  H   H17       1.0  0.38600  0.44880  0.92140  1.0000
  H   H18       1.0  0.11400  0.05120  0.42140  1.0000
  H   H19       1.0  0.88600  0.05120  0.07860  1.0000
  H   H20       1.0  0.61400  0.44880  0.57860  1.0000
  H   H21       1.0  0.61400  0.55120  0.07860  1.0000
  H   H22       1.0  0.88600  0.94880  0.57860  1.0000
  H   H23       1.0  0.11400  0.94880  0.92140  1.0000
  H   H24       1.0  0.38600  0.55120  0.42140  1.0000
  C   C73       1.0  0.48130  0.51900  0.93410  1.0000
  C   C74       1.0  0.01870  0.98100  0.43410  1.0000
  C   C75       1.0  0.98130  0.98100  0.06590  1.0000
  C   C76       1.0  0.51870  0.51900  0.56590  1.0000
  C   C77       1.0  0.51870  0.48100  0.06590  1.0000
  C   C78       1.0  0.98130  0.01900  0.56590  1.0000
  C   C79       1.0  0.01870  0.01900  0.93410  1.0000
  C   C80       1.0  0.48130  0.48100  0.43410  1.0000
  H   H25       1.0  0.51290  0.51500  0.93110  1.0000
  H   H26       1.0  0.98710  0.98500  0.43110  1.0000
  H   H27       1.0  0.01290  0.98500  0.06890  1.0000
  H   H28       1.0  0.48710  0.51500  0.56890  1.0000
  H   H29       1.0  0.48710  0.48500  0.06890  1.0000
  H   H30       1.0  0.01290  0.01500  0.56890  1.0000
  H   H31       1.0  0.98710  0.01500  0.93110  1.0000
  H   H32       1.0  0.51290  0.48500  0.43110  1.0000
  C   C81       1.0  0.55490  0.19370  0.79467  1.0000
  C   C82       1.0  0.94510  0.30630  0.29467  1.0000
  C   C83       1.0  0.05490  0.30630  0.20533  1.0000
  C   C84       1.0  0.44510  0.19370  0.70533  1.0000
  C   C85       1.0  0.44510  0.80630  0.20533  1.0000
  C   C86       1.0  0.05490  0.69370  0.70533  1.0000
  C   C87       1.0  0.94510  0.69370  0.79467  1.0000
  C   C88       1.0  0.55490  0.80630  0.29467  1.0000
  C   C89       1.0  0.54050  0.72460  0.98380  1.0000
  C   C90       1.0  0.95950  0.77540  0.48380  1.0000
  C   C91       1.0  0.04050  0.77540  0.01620  1.0000
  C   C92       1.0  0.45950  0.72460  0.51620  1.0000
  C   C93       1.0  0.45950  0.27540  0.01620  1.0000
  C   C94       1.0  0.04050  0.22460  0.51620  1.0000
  C   C95       1.0  0.95950  0.22460  0.98380  1.0000
  C   C96       1.0  0.54050  0.27540  0.48380  1.0000
  C   C97       1.0  0.56570  0.18560  0.74821  1.0000
  C   C98       1.0  0.93430  0.31440  0.24821  1.0000
  C   C99       1.0  0.06570  0.31440  0.25179  1.0000
  C   C100      1.0  0.43430  0.18560  0.75179  1.0000
  C   C101      1.0  0.43430  0.81440  0.25179  1.0000
  C   C102      1.0  0.06570  0.68560  0.75179  1.0000
  C   C103      1.0  0.93430  0.68560  0.74821  1.0000
  C   C104      1.0  0.56570  0.81440  0.24821  1.0000
  C   C105      1.0  0.30390  0.50800  0.93790  1.0000
  C   C106      1.0  0.19610  0.99200  0.43790  1.0000
  C   C107      1.0  0.80390  0.99200  0.06210  1.0000
  C   C108      1.0  0.69610  0.50800  0.56210  1.0000
  C   C109      1.0  0.69610  0.49200  0.06210  1.0000
  C   C110      1.0  0.80390  0.00800  0.56210  1.0000
  C   C111      1.0  0.19610  0.00800  0.93790  1.0000
  C   C112      1.0  0.30390  0.49200  0.43790  1.0000
  H   H33       1.0  0.31180  0.47080  0.92720  1.0000
  H   H34       1.0  0.18820  0.02920  0.42720  1.0000
  H   H35       1.0  0.81180  0.02920  0.07280  1.0000
  H   H36       1.0  0.68820  0.47080  0.57280  1.0000
  H   H37       1.0  0.68820  0.52920  0.07280  1.0000
  H   H38       1.0  0.81180  0.97080  0.57280  1.0000
  H   H39       1.0  0.18820  0.97080  0.92720  1.0000
  H   H40       1.0  0.31180  0.52920  0.42720  1.0000
  C   C113      1.0  0.56680  0.77770  0.99840  1.0000
  C   C114      1.0  0.93320  0.72230  0.49840  1.0000
  C   C115      1.0  0.06680  0.72230  0.00160  1.0000
  C   C116      1.0  0.43320  0.77770  0.50160  1.0000
  C   C117      1.0  0.43320  0.22230  0.00160  1.0000
  C   C118      1.0  0.06680  0.27770  0.50160  1.0000
  C   C119      1.0  0.93320  0.27770  0.99840  1.0000
  C   C120      1.0  0.56680  0.22230  0.49840  1.0000
  O   O49       1.0  0.56929  0.95064  0.01169  1.0000
  O   O50       1.0  0.93071  0.54936  0.51169  1.0000
  O   O51       1.0  0.06929  0.54936  0.98831  1.0000
  O   O52       1.0  0.43071  0.95064  0.48831  1.0000
  O   O53       1.0  0.43071  0.04936  0.98831  1.0000
  O   O54       1.0  0.06929  0.45064  0.48831  1.0000
  O   O55       1.0  0.93071  0.45064  0.01169  1.0000
  O   O56       1.0  0.56929  0.04936  0.51169  1.0000
  C   C121      1.0  0.46860  0.67450  0.97640  1.0000
  C   C122      1.0  0.03140  0.82550  0.47640  1.0000
  C   C123      1.0  0.96860  0.82550  0.02360  1.0000
  C   C124      1.0  0.53140  0.67450  0.52360  1.0000
  C   C125      1.0  0.53140  0.32550  0.02360  1.0000
  C   C126      1.0  0.96860  0.17450  0.52360  1.0000
  C   C127      1.0  0.03140  0.17450  0.97640  1.0000
  C   C128      1.0  0.46860  0.32550  0.47640  1.0000
  H   H41       1.0  0.43670  0.67510  0.97830  1.0000
  H   H42       1.0  0.06330  0.82490  0.47830  1.0000
  H   H43       1.0  0.93670  0.82490  0.02170  1.0000
  H   H44       1.0  0.56330  0.67510  0.52170  1.0000
  H   H45       1.0  0.56330  0.32490  0.02170  1.0000
  H   H46       1.0  0.93670  0.17510  0.52170  1.0000
  H   H47       1.0  0.06330  0.17510  0.97830  1.0000
  H   H48       1.0  0.43670  0.32490  0.47830  1.0000
  C   C129      1.0  0.50870  0.41510  0.87660  1.0000
  C   C130      1.0  0.99130  0.08490  0.37660  1.0000
  C   C131      1.0  0.00870  0.08490  0.12340  1.0000
  C   C132      1.0  0.49130  0.41510  0.62340  1.0000
  C   C133      1.0  0.49130  0.58490  0.12340  1.0000
  C   C134      1.0  0.00870  0.91510  0.62340  1.0000
  C   C135      1.0  0.99130  0.91510  0.87660  1.0000
  C   C136      1.0  0.50870  0.58490  0.37660  1.0000
  H   H49       1.0  0.52270  0.45050  0.86860  1.0000
  H   H50       1.0  0.97730  0.04950  0.36860  1.0000
  H   H51       1.0  0.02270  0.04950  0.13140  1.0000
  H   H52       1.0  0.47730  0.45050  0.63140  1.0000
  H   H53       1.0  0.47730  0.54950  0.13140  1.0000
  H   H54       1.0  0.02270  0.95050  0.63140  1.0000
  H   H55       1.0  0.97730  0.95050  0.86860  1.0000
  H   H56       1.0  0.52270  0.54950  0.36860  1.0000
  C   C137      1.0  0.49370  0.72320  0.98810  1.0000
  C   C138      1.0  0.00630  0.77680  0.48810  1.0000
  C   C139      1.0  0.99370  0.77680  0.01190  1.0000
  C   C140      1.0  0.50630  0.72320  0.51190  1.0000
  C   C141      1.0  0.50630  0.27680  0.01190  1.0000
  C   C142      1.0  0.99370  0.22320  0.51190  1.0000
  C   C143      1.0  0.00630  0.22320  0.98810  1.0000
  C   C144      1.0  0.49370  0.27680  0.48810  1.0000
  H   H57       1.0  0.47860  0.75620  0.99920  1.0000
  H   H58       1.0  0.02140  0.74380  0.49920  1.0000
  H   H59       1.0  0.97860  0.74380  0.00080  1.0000
  H   H60       1.0  0.52140  0.75620  0.50080  1.0000
  H   H61       1.0  0.52140  0.24380  0.00080  1.0000
  H   H62       1.0  0.97860  0.25620  0.50080  1.0000
  H   H63       1.0  0.02140  0.25620  0.99920  1.0000
  H   H64       1.0  0.47860  0.24380  0.49920  1.0000
  C   C145      1.0  0.52440  0.25290  0.85330  1.0000
  C   C146      1.0  0.97560  0.24710  0.35330  1.0000
  C   C147      1.0  0.02440  0.24710  0.14670  1.0000
  C   C148      1.0  0.47560  0.25290  0.64670  1.0000
  C   C149      1.0  0.47560  0.74710  0.14670  1.0000
  C   C150      1.0  0.02440  0.75290  0.64670  1.0000
  C   C151      1.0  0.97560  0.75290  0.85330  1.0000
  C   C152      1.0  0.52440  0.74710  0.35330  1.0000
  C   C153      1.0  0.27890  0.61510  0.96850  1.0000
  C   C154      1.0  0.22110  0.88490  0.46850  1.0000
  C   C155      1.0  0.77890  0.88490  0.03150  1.0000
  C   C156      1.0  0.72110  0.61510  0.53150  1.0000
  C   C157      1.0  0.72110  0.38490  0.03150  1.0000
  C   C158      1.0  0.77890  0.11510  0.53150  1.0000
  C   C159      1.0  0.22110  0.11510  0.96850  1.0000
  C   C160      1.0  0.27890  0.38490  0.46850  1.0000
  H   H65       1.0  0.27070  0.65190  0.97980  1.0000
  H   H66       1.0  0.22930  0.84810  0.47980  1.0000
  H   H67       1.0  0.77070  0.84810  0.02020  1.0000
  H   H68       1.0  0.72930  0.65190  0.52020  1.0000
  H   H69       1.0  0.72930  0.34810  0.02020  1.0000
  H   H70       1.0  0.77070  0.15190  0.52020  1.0000
  H   H71       1.0  0.22930  0.15190  0.97980  1.0000
  H   H72       1.0  0.27070  0.34810  0.47980  1.0000
  C   C161      1.0  0.56240  0.67510  0.96840  1.0000
  C   C162      1.0  0.93760  0.82490  0.46840  1.0000
  C   C163      1.0  0.06240  0.82490  0.03160  1.0000
  C   C164      1.0  0.43760  0.67510  0.53160  1.0000
  C   C165      1.0  0.43760  0.32490  0.03160  1.0000
  C   C166      1.0  0.06240  0.17510  0.53160  1.0000
  C   C167      1.0  0.93760  0.17510  0.96840  1.0000
  C   C168      1.0  0.56240  0.32490  0.46840  1.0000
  H   H73       1.0  0.59410  0.67510  0.96490  1.0000
  H   H74       1.0  0.90590  0.82490  0.46490  1.0000
  H   H75       1.0  0.09410  0.82490  0.03510  1.0000
  H   H76       1.0  0.40590  0.67510  0.53510  1.0000
  H   H77       1.0  0.40590  0.32490  0.03510  1.0000
  H   H78       1.0  0.09410  0.17510  0.53510  1.0000
  H   H79       1.0  0.90590  0.17510  0.96490  1.0000
  H   H80       1.0  0.59410  0.32490  0.46490  1.0000
  C   C169      1.0  0.59770  0.15590  0.61250  1.0000
  C   C170      1.0  0.90230  0.34410  0.11250  1.0000
  C   C171      1.0  0.09770  0.34410  0.38750  1.0000
  C   C172      1.0  0.40230  0.15590  0.88750  1.0000
  C   C173      1.0  0.40230  0.84410  0.38750  1.0000
  C   C174      1.0  0.09770  0.65590  0.88750  1.0000
  C   C175      1.0  0.90230  0.65590  0.61250  1.0000
  C   C176      1.0  0.59770  0.84410  0.11250  1.0000
  C   C177      1.0  0.55830  0.13070  0.72880  1.0000
  C   C178      1.0  0.94170  0.36930  0.22880  1.0000
  C   C179      1.0  0.05830  0.36930  0.27120  1.0000
  C   C180      1.0  0.44170  0.13070  0.77120  1.0000
  C   C181      1.0  0.44170  0.86930  0.27120  1.0000
  C   C182      1.0  0.05830  0.63070  0.77120  1.0000
  C   C183      1.0  0.94170  0.63070  0.72880  1.0000
  C   C184      1.0  0.55830  0.86930  0.22880  1.0000
  H   H81       1.0  0.54650  0.09990  0.74570  1.0000
  H   H82       1.0  0.95350  0.40010  0.24570  1.0000
  H   H83       1.0  0.04650  0.40010  0.25430  1.0000
  H   H84       1.0  0.45350  0.09990  0.75430  1.0000
  H   H85       1.0  0.45350  0.90010  0.25430  1.0000
  H   H86       1.0  0.04650  0.59990  0.75430  1.0000
  H   H87       1.0  0.95350  0.59990  0.74570  1.0000
  H   H88       1.0  0.54650  0.90010  0.24570  1.0000
  C   C185      1.0  0.59490  0.22160  0.67900  1.0000
  C   C186      1.0  0.90510  0.27840  0.17900  1.0000
  C   C187      1.0  0.09490  0.27840  0.32100  1.0000
  C   C188      1.0  0.40510  0.22160  0.82100  1.0000
  C   C189      1.0  0.40510  0.77840  0.32100  1.0000
  C   C190      1.0  0.09490  0.72160  0.82100  1.0000
  C   C191      1.0  0.90510  0.72160  0.67900  1.0000
  C   C192      1.0  0.59490  0.77840  0.17900  1.0000
  H   H89       1.0  0.60670  0.25250  0.66230  1.0000
  H   H90       1.0  0.89330  0.24750  0.16230  1.0000
  H   H91       1.0  0.10670  0.24750  0.33770  1.0000
  H   H92       1.0  0.39330  0.25250  0.83770  1.0000
  H   H93       1.0  0.39330  0.74750  0.33770  1.0000
  H   H94       1.0  0.10670  0.75250  0.83770  1.0000
  H   H95       1.0  0.89330  0.75250  0.66230  1.0000
  H   H96       1.0  0.60670  0.74750  0.16230  1.0000
  C   C193      1.0  0.54640  0.15050  0.86262  1.0000
  C   C194      1.0  0.95360  0.34950  0.36262  1.0000
  C   C195      1.0  0.04640  0.34950  0.13738  1.0000
  C   C196      1.0  0.45360  0.15050  0.63738  1.0000
  C   C197      1.0  0.45360  0.84950  0.13738  1.0000
  C   C198      1.0  0.04640  0.65050  0.63738  1.0000
  C   C199      1.0  0.95360  0.65050  0.86262  1.0000
  C   C200      1.0  0.54640  0.84950  0.36262  1.0000
  C   C201      1.0  0.52800  0.20380  0.88000  1.0000
  C   C202      1.0  0.97200  0.29620  0.38000  1.0000
  C   C203      1.0  0.02800  0.29620  0.12000  1.0000
  C   C204      1.0  0.47200  0.20380  0.62000  1.0000
  C   C205      1.0  0.47200  0.79620  0.12000  1.0000
  C   C206      1.0  0.02800  0.70380  0.62000  1.0000
  C   C207      1.0  0.97200  0.70380  0.88000  1.0000
  C   C208      1.0  0.52800  0.79620  0.38000  1.0000
  H   H97       1.0  0.51850  0.20570  0.90910  1.0000
  H   H98       1.0  0.98150  0.29430  0.40910  1.0000
  H   H99       1.0  0.01850  0.29430  0.09090  1.0000
  H   H100      1.0  0.48150  0.20570  0.59090  1.0000
  H   H101      1.0  0.48150  0.79430  0.09090  1.0000
  H   H102      1.0  0.01850  0.70570  0.59090  1.0000
  H   H103      1.0  0.98150  0.70570  0.90910  1.0000
  H   H104      1.0  0.51850  0.79430  0.40910  1.0000
  C   C209      1.0  0.50540  0.30900  0.87162  1.0000
  C   C210      1.0  0.99460  0.19100  0.37162  1.0000
  C   C211      1.0  0.00540  0.19100  0.12838  1.0000
  C   C212      1.0  0.49460  0.30900  0.62838  1.0000
  C   C213      1.0  0.49460  0.69100  0.12838  1.0000
  C   C214      1.0  0.00540  0.80900  0.62838  1.0000
  C   C215      1.0  0.99460  0.80900  0.87162  1.0000
  C   C216      1.0  0.50540  0.69100  0.37162  1.0000
  C   C217      1.0  0.56790  0.12090  0.68570  1.0000
  C   C218      1.0  0.93210  0.37910  0.18570  1.0000
  C   C219      1.0  0.06790  0.37910  0.31430  1.0000
  C   C220      1.0  0.43210  0.12090  0.81430  1.0000
  C   C221      1.0  0.43210  0.87910  0.31430  1.0000
  C   C222      1.0  0.06790  0.62090  0.81430  1.0000
  C   C223      1.0  0.93210  0.62090  0.68570  1.0000
  C   C224      1.0  0.56790  0.87910  0.18570  1.0000
  H   H105      1.0  0.56150  0.08420  0.67320  1.0000
  H   H106      1.0  0.93850  0.41580  0.17320  1.0000
  H   H107      1.0  0.06150  0.41580  0.32680  1.0000
  H   H108      1.0  0.43850  0.08420  0.82680  1.0000
  H   H109      1.0  0.43850  0.91580  0.32680  1.0000
  H   H110      1.0  0.06150  0.58420  0.82680  1.0000
  H   H111      1.0  0.93850  0.58420  0.67320  1.0000
  H   H112      1.0  0.56150  0.91580  0.17320  1.0000
  C   C225      1.0  0.46890  0.30890  0.90060  1.0000
  C   C226      1.0  0.03110  0.19110  0.40060  1.0000
  C   C227      1.0  0.96890  0.19110  0.09940  1.0000
  C   C228      1.0  0.53110  0.30890  0.59940  1.0000
  C   C229      1.0  0.53110  0.69110  0.09940  1.0000
  C   C230      1.0  0.96890  0.80890  0.59940  1.0000
  C   C231      1.0  0.03110  0.80890  0.90060  1.0000
  C   C232      1.0  0.46890  0.69110  0.40060  1.0000
  H   H113      1.0  0.45600  0.27300  0.90920  1.0000
  H   H114      1.0  0.04400  0.22700  0.40920  1.0000
  H   H115      1.0  0.95600  0.22700  0.09080  1.0000
  H   H116      1.0  0.54400  0.27300  0.59080  1.0000
  H   H117      1.0  0.54400  0.72700  0.09080  1.0000
  H   H118      1.0  0.95600  0.77300  0.59080  1.0000
  H   H119      1.0  0.04400  0.77300  0.90920  1.0000
  H   H120      1.0  0.45600  0.72700  0.40920  1.0000
  O   O57       1.0  0.16585  0.55500  0.95277  1.0000
  O   O58       1.0  0.33415  0.94500  0.45277  1.0000
  O   O59       1.0  0.66585  0.94500  0.04723  1.0000
  O   O60       1.0  0.83415  0.55500  0.54723  1.0000
  O   O61       1.0  0.83415  0.44500  0.04723  1.0000
  O   O62       1.0  0.66585  0.05500  0.54723  1.0000
  O   O63       1.0  0.33415  0.05500  0.95277  1.0000
  O   O64       1.0  0.16585  0.44500  0.45277  1.0000
  C   C233      1.0  0.53750  0.24800  0.81030  1.0000
  C   C234      1.0  0.96250  0.25200  0.31030  1.0000
  C   C235      1.0  0.03750  0.25200  0.18970  1.0000
  C   C236      1.0  0.46250  0.24800  0.68970  1.0000
  C   C237      1.0  0.46250  0.75200  0.18970  1.0000
  C   C238      1.0  0.03750  0.74800  0.68970  1.0000
  C   C239      1.0  0.96250  0.74800  0.81030  1.0000
  C   C240      1.0  0.53750  0.75200  0.31030  1.0000
  H   H121      1.0  0.53500  0.28020  0.79150  1.0000
  H   H122      1.0  0.96500  0.21980  0.29150  1.0000
  H   H123      1.0  0.03500  0.21980  0.20850  1.0000
  H   H124      1.0  0.46500  0.28020  0.70850  1.0000
  H   H125      1.0  0.46500  0.71980  0.20850  1.0000
  H   H126      1.0  0.03500  0.78020  0.70850  1.0000
  H   H127      1.0  0.96500  0.78020  0.79150  1.0000
  H   H128      1.0  0.53500  0.71980  0.29150  1.0000
  C   C241      1.0  0.52480  0.36260  0.85940  1.0000
  C   C242      1.0  0.97520  0.13740  0.35940  1.0000
  C   C243      1.0  0.02480  0.13740  0.14060  1.0000
  C   C244      1.0  0.47520  0.36260  0.64060  1.0000
  C   C245      1.0  0.47520  0.63740  0.14060  1.0000
  C   C246      1.0  0.02480  0.86260  0.64060  1.0000
  C   C247      1.0  0.97520  0.86260  0.85940  1.0000
  C   C248      1.0  0.52480  0.63740  0.35940  1.0000
  H   H129      1.0  0.54890  0.36320  0.83930  1.0000
  H   H130      1.0  0.95110  0.13680  0.33930  1.0000
  H   H131      1.0  0.04890  0.13680  0.16070  1.0000
  H   H132      1.0  0.45110  0.36320  0.66070  1.0000
  H   H133      1.0  0.45110  0.63680  0.16070  1.0000
  H   H134      1.0  0.04890  0.86320  0.66070  1.0000
  H   H135      1.0  0.95110  0.86320  0.83930  1.0000
  H   H136      1.0  0.54890  0.63680  0.33930  1.0000
  C   C249      1.0  0.46260  0.57140  0.94920  1.0000
  C   C250      1.0  0.03740  0.92860  0.44920  1.0000
  C   C251      1.0  0.96260  0.92860  0.05080  1.0000
  C   C252      1.0  0.53740  0.57140  0.55080  1.0000
  C   C253      1.0  0.53740  0.42860  0.05080  1.0000
  C   C254      1.0  0.96260  0.07140  0.55080  1.0000
  C   C255      1.0  0.03740  0.07140  0.94920  1.0000
  C   C256      1.0  0.46260  0.42860  0.44920  1.0000
  C   C257      1.0  0.24520  0.57600  0.95810  1.0000
  C   C258      1.0  0.25480  0.92400  0.45810  1.0000
  C   C259      1.0  0.74520  0.92400  0.04190  1.0000
  C   C260      1.0  0.75480  0.57600  0.54190  1.0000
  C   C261      1.0  0.75480  0.42400  0.04190  1.0000
  C   C262      1.0  0.74520  0.07600  0.54190  1.0000
  C   C263      1.0  0.25480  0.07600  0.95810  1.0000
  C   C264      1.0  0.24520  0.42400  0.45810  1.0000
  C   C265      1.0  0.53240  0.09100  0.93110  1.0000
  C   C266      1.0  0.96760  0.40900  0.43110  1.0000
  C   C267      1.0  0.03240  0.40900  0.06890  1.0000
  C   C268      1.0  0.46760  0.09100  0.56890  1.0000
  C   C269      1.0  0.46760  0.90900  0.06890  1.0000
  C   C270      1.0  0.03240  0.59100  0.56890  1.0000
  C   C271      1.0  0.96760  0.59100  0.93110  1.0000
  C   C272      1.0  0.53240  0.90900  0.43110  1.0000
  H   H137      1.0  0.51160  0.11930  0.94100  1.0000
  H   H138      1.0  0.98840  0.38070  0.44100  1.0000
  H   H139      1.0  0.01160  0.38070  0.05900  1.0000
  H   H140      1.0  0.48840  0.11930  0.55900  1.0000
  H   H141      1.0  0.48840  0.88070  0.05900  1.0000
  H   H142      1.0  0.01160  0.61930  0.55900  1.0000
  H   H143      1.0  0.98840  0.61930  0.94100  1.0000
  H   H144      1.0  0.51160  0.88070  0.44100  1.0000
  C   C273      1.0  0.53720  0.62530  0.95820  1.0000
  C   C274      1.0  0.96280  0.87470  0.45820  1.0000
  C   C275      1.0  0.03720  0.87470  0.04180  1.0000
  C   C276      1.0  0.46280  0.62530  0.54180  1.0000
  C   C277      1.0  0.46280  0.37470  0.04180  1.0000
  C   C278      1.0  0.03720  0.12530  0.54180  1.0000
  C   C279      1.0  0.96280  0.12530  0.95820  1.0000
  C   C280      1.0  0.53720  0.37470  0.45820  1.0000
  H   H145      1.0  0.55240  0.59140  0.94860  1.0000
  H   H146      1.0  0.94760  0.90860  0.44860  1.0000
  H   H147      1.0  0.05240  0.90860  0.05140  1.0000
  H   H148      1.0  0.44760  0.59140  0.55140  1.0000
  H   H149      1.0  0.44760  0.40860  0.05140  1.0000
  H   H150      1.0  0.05240  0.09140  0.55140  1.0000
  H   H151      1.0  0.94760  0.09140  0.94860  1.0000
  H   H152      1.0  0.55240  0.40860  0.44860  1.0000
  C   C281      1.0  0.58760  0.16610  0.65990  1.0000
  C   C282      1.0  0.91240  0.33390  0.15990  1.0000
  C   C283      1.0  0.08760  0.33390  0.34010  1.0000
  C   C284      1.0  0.41240  0.16610  0.84010  1.0000
  C   C285      1.0  0.41240  0.83390  0.34010  1.0000
  C   C286      1.0  0.08760  0.66610  0.84010  1.0000
  C   C287      1.0  0.91240  0.66610  0.65990  1.0000
  C   C288      1.0  0.58760  0.83390  0.15990  1.0000
  C   C289      1.0  0.45090  0.36180  0.91730  1.0000
  C   C290      1.0  0.04910  0.13820  0.41730  1.0000
  C   C291      1.0  0.95090  0.13820  0.08270  1.0000
  C   C292      1.0  0.54910  0.36180  0.58270  1.0000
  C   C293      1.0  0.54910  0.63820  0.08270  1.0000
  C   C294      1.0  0.95090  0.86180  0.58270  1.0000
  C   C295      1.0  0.04910  0.86180  0.91730  1.0000
  C   C296      1.0  0.45090  0.63820  0.41730  1.0000
  H   H153      1.0  0.42550  0.36120  0.93590  1.0000
  H   H154      1.0  0.07450  0.13880  0.43590  1.0000
  H   H155      1.0  0.92550  0.13880  0.06410  1.0000
  H   H156      1.0  0.57450  0.36120  0.56410  1.0000
  H   H157      1.0  0.57450  0.63880  0.06410  1.0000
  H   H158      1.0  0.92550  0.86120  0.56410  1.0000
  H   H159      1.0  0.07450  0.86120  0.93590  1.0000
  H   H160      1.0  0.42550  0.63880  0.43590  1.0000
  C   C297      1.0  0.58420  0.05460  0.87680  1.0000
  C   C298      1.0  0.91580  0.44540  0.37680  1.0000
  C   C299      1.0  0.08420  0.44540  0.12320  1.0000
  C   C300      1.0  0.41580  0.05460  0.62320  1.0000
  C   C301      1.0  0.41580  0.94540  0.12320  1.0000
  C   C302      1.0  0.08420  0.55460  0.62320  1.0000
  C   C303      1.0  0.91580  0.55460  0.87680  1.0000
  C   C304      1.0  0.58420  0.94540  0.37680  1.0000
  H   H161      1.0  0.59860  0.05790  0.84960  1.0000
  H   H162      1.0  0.90140  0.44210  0.34960  1.0000
  H   H163      1.0  0.09860  0.44210  0.15040  1.0000
  H   H164      1.0  0.40140  0.05790  0.65040  1.0000
  H   H165      1.0  0.40140  0.94210  0.15040  1.0000
  H   H166      1.0  0.09860  0.55790  0.65040  1.0000
  H   H167      1.0  0.90140  0.55790  0.84960  1.0000
  H   H168      1.0  0.59860  0.94210  0.34960  1.0000
  C   C305      1.0  0.58460  0.23050  0.72290  1.0000
  C   C306      1.0  0.91540  0.26950  0.22290  1.0000
  C   C307      1.0  0.08460  0.26950  0.27710  1.0000
  C   C308      1.0  0.41540  0.23050  0.77710  1.0000
  C   C309      1.0  0.41540  0.76950  0.27710  1.0000
  C   C310      1.0  0.08460  0.73050  0.77710  1.0000
  C   C311      1.0  0.91540  0.73050  0.72290  1.0000
  C   C312      1.0  0.58460  0.76950  0.22290  1.0000
  H   H169      1.0  0.59050  0.26710  0.73570  1.0000
  H   H170      1.0  0.90950  0.23290  0.23570  1.0000
  H   H171      1.0  0.09050  0.23290  0.26430  1.0000
  H   H172      1.0  0.40950  0.26710  0.76430  1.0000
  H   H173      1.0  0.40950  0.73290  0.26430  1.0000
  H   H174      1.0  0.09050  0.76710  0.76430  1.0000
  H   H175      1.0  0.90950  0.76710  0.73570  1.0000
  H   H176      1.0  0.59050  0.73290  0.23570  1.0000
  C   C313      1.0  0.33890  0.54670  0.94830  1.0000
  C   C314      1.0  0.16110  0.95330  0.44830  1.0000
  C   C315      1.0  0.83890  0.95330  0.05170  1.0000
  C   C316      1.0  0.66110  0.54670  0.55170  1.0000
  C   C317      1.0  0.66110  0.45330  0.05170  1.0000
  C   C318      1.0  0.83890  0.04670  0.55170  1.0000
  C   C319      1.0  0.16110  0.04670  0.94830  1.0000
  C   C320      1.0  0.33890  0.45330  0.44830  1.0000
  C   C321      1.0  0.25820  0.52090  0.94240  1.0000
  C   C322      1.0  0.24180  0.97910  0.44240  1.0000
  C   C323      1.0  0.75820  0.97910  0.05760  1.0000
  C   C324      1.0  0.74180  0.52090  0.55760  1.0000
  C   C325      1.0  0.74180  0.47910  0.05760  1.0000
  C   C326      1.0  0.75820  0.02090  0.55760  1.0000
  C   C327      1.0  0.24180  0.02090  0.94240  1.0000
  C   C328      1.0  0.25820  0.47910  0.44240  1.0000
  H   H177      1.0  0.23610  0.49300  0.93490  1.0000
  H   H178      1.0  0.26390  0.00700  0.43490  1.0000
  H   H179      1.0  0.73610  0.00700  0.06510  1.0000
  H   H180      1.0  0.76390  0.49300  0.56510  1.0000
  H   H181      1.0  0.76390  0.50700  0.06510  1.0000
  H   H182      1.0  0.73610  0.99300  0.56510  1.0000
  H   H183      1.0  0.26390  0.99300  0.93490  1.0000
  H   H184      1.0  0.23610  0.50700  0.43490  1.0000
  C   C329      1.0  0.59370  0.00710  0.90310  1.0000
  C   C330      1.0  0.90630  0.49290  0.40310  1.0000
  C   C331      1.0  0.09370  0.49290  0.09690  1.0000
  C   C332      1.0  0.40630  0.00710  0.59690  1.0000
  C   C333      1.0  0.40630  0.99290  0.09690  1.0000
  C   C334      1.0  0.09370  0.50710  0.59690  1.0000
  C   C335      1.0  0.90630  0.50710  0.90310  1.0000
  C   C336      1.0  0.59370  0.99290  0.40310  1.0000
  H   H185      1.0  0.61400  0.97830  0.89310  1.0000
  H   H186      1.0  0.88600  0.52170  0.39310  1.0000
  H   H187      1.0  0.11400  0.52170  0.10690  1.0000
  H   H188      1.0  0.38600  0.97830  0.60690  1.0000
  H   H189      1.0  0.38600  0.02170  0.10690  1.0000
  H   H190      1.0  0.11400  0.47830  0.60690  1.0000
  H   H191      1.0  0.88600  0.47830  0.89310  1.0000
  H   H192      1.0  0.61400  0.02170  0.39310  1.0000
  C   C337      1.0  0.19650  0.59010  0.96170  1.0000
  C   C338      1.0  0.30350  0.90990  0.46170  1.0000
  C   C339      1.0  0.69650  0.90990  0.03830  1.0000
  C   C340      1.0  0.80350  0.59010  0.53830  1.0000
  C   C341      1.0  0.80350  0.40990  0.03830  1.0000
  C   C342      1.0  0.69650  0.09010  0.53830  1.0000
  C   C343      1.0  0.30350  0.09010  0.96170  1.0000
  C   C344      1.0  0.19650  0.40990  0.46170  1.0000
  C   C345      1.0  0.58550  0.95250  0.97350  1.0000
  C   C346      1.0  0.91450  0.54750  0.47350  1.0000
  C   C347      1.0  0.08550  0.54750  0.02650  1.0000
  C   C348      1.0  0.41450  0.95250  0.52650  1.0000
  C   C349      1.0  0.41450  0.04750  0.02650  1.0000
  C   C350      1.0  0.08550  0.45250  0.52650  1.0000
  C   C351      1.0  0.91450  0.45250  0.97350  1.0000
  C   C352      1.0  0.58550  0.04750  0.47350  1.0000
