data_image0
_chemical_formula_structural       Sn2O8C2H4C2H4C2H4C2H6C2H4C2H4C2H4C2H6C2H4C2H4C2H4C2H6C4H4C4H4
_chemical_formula_sum              "Sn2 O8 C32 H62"
_cell_length_a       13.068
_cell_length_b       13.715
_cell_length_c       14.312
_cell_angle_alpha    84.48
_cell_angle_beta     65.25
_cell_angle_gamma    86.76

_space_group_name_H-M_alt    "P 1"
_space_group_IT_number       1

loop_
  _space_group_symop_operation_xyz
  'x, y, z'

loop_
  _atom_site_type_symbol
  _atom_site_label
  _atom_site_symmetry_multiplicity
  _atom_site_fract_x
  _atom_site_fract_y
  _atom_site_fract_z
  _atom_site_occupancy
  Sn  Sn1       1.0  0.07168  0.18841  0.17436  1.0000
  Sn  Sn2       1.0  0.92832  0.81159  0.82564  1.0000
  O   O1        1.0  0.08370  0.30310  0.04880  1.0000
  O   O2        1.0  0.91630  0.69690  0.95120  1.0000
  O   O3        1.0  0.98220  0.40630  0.16380  1.0000
  O   O4        1.0  0.01780  0.59370  0.83620  1.0000
  O   O5        1.0  0.06220  0.06040  0.29150  1.0000
  O   O6        1.0  0.93780  0.93960  0.70850  1.0000
  O   O7        1.0  0.06690  0.85220  0.59140  1.0000
  O   O8        1.0  0.93310  0.14780  0.40860  1.0000
  C   C1        1.0  0.13930  0.28020  0.24510  1.0000
  C   C2        1.0  0.86070  0.71980  0.75490  1.0000
  H   H1        1.0  0.17940  0.33410  0.19360  1.0000
  H   H2        1.0  0.82060  0.66590  0.80640  1.0000
  H   H3        1.0  0.07580  0.31000  0.30210  1.0000
  H   H4        1.0  0.92420  0.69000  0.69790  1.0000
  C   C3        1.0  0.21870  0.23190  0.28770  1.0000
  C   C4        1.0  0.78130  0.76810  0.71230  1.0000
  H   H5        1.0  0.17850  0.17780  0.33880  1.0000
  H   H6        1.0  0.82150  0.82220  0.66120  1.0000
  H   H7        1.0  0.28220  0.20220  0.23060  1.0000
  H   H8        1.0  0.71780  0.79780  0.76940  1.0000
  C   C5        1.0  0.26700  0.29590  0.33830  1.0000
  C   C6        1.0  0.73300  0.70410  0.66170  1.0000
  H   H9        1.0  0.30630  0.25350  0.37330  1.0000
  H   H10       1.0  0.69370  0.74650  0.62670  1.0000
  H   H11       1.0  0.20390  0.32960  0.39210  1.0000
  H   H12       1.0  0.79610  0.67040  0.60790  1.0000
  C   C7        1.0  0.34800  0.37230  0.26680  1.0000
  C   C8        1.0  0.65200  0.62770  0.73320  1.0000
  H   H13       1.0  0.37500  0.41000  0.30660  1.0000
  H   H14       1.0  0.62500  0.59000  0.69340  1.0000
  H   H15       1.0  0.30960  0.41640  0.23340  1.0000
  H   H16       1.0  0.69040  0.58360  0.76660  1.0000
  H   H17       1.0  0.41220  0.34000  0.21420  1.0000
  H   H18       1.0  0.58780  0.66000  0.78580  1.0000
  C   C9        1.0  0.20060  0.10640  0.05890  1.0000
  C   C10       1.0  0.79940  0.89360  0.94110  1.0000
  H   H19       1.0  0.20810  0.13520  0.99030  1.0000
  H   H20       1.0  0.79190  0.86480  0.00970  1.0000
  H   H21       1.0  0.27300  0.11600  0.06320  1.0000
  H   H22       1.0  0.72700  0.88400  0.93680  1.0000
  C   C11       1.0  0.18450  0.99840  0.06390  1.0000
  C   C12       1.0  0.81550  0.00160  0.93610  1.0000
  H   H23       1.0  0.11740  0.98800  0.05090  1.0000
  H   H24       1.0  0.88260  0.01200  0.94910  1.0000
  H   H25       1.0  0.16900  0.96980  0.13470  1.0000
  H   H26       1.0  0.83100  0.03020  0.86530  1.0000
  C   C13       1.0  0.28480  0.94360  0.98750  1.0000
  C   C14       1.0  0.71520  0.05640  0.01250  1.0000
  H   H27       1.0  0.29450  0.96680  0.91660  1.0000
  H   H28       1.0  0.70550  0.03320  0.08340  1.0000
  H   H29       1.0  0.35360  0.96060  0.99480  1.0000
  H   H30       1.0  0.64640  0.03940  0.00520  1.0000
  C   C15       1.0  0.27500  0.83420  0.99990  1.0000
  C   C16       1.0  0.72500  0.16580  0.00010  1.0000
  H   H31       1.0  0.34300  0.80500  0.94810  1.0000
  H   H32       1.0  0.65700  0.19500  0.05190  1.0000
  H   H33       1.0  0.20900  0.81610  0.99060  1.0000
  H   H34       1.0  0.79100  0.18390  0.00940  1.0000
  H   H35       1.0  0.26800  0.81000  0.06920  1.0000
  H   H36       1.0  0.73200  0.19000  0.93080  1.0000
  C   C17       1.0  0.90550  0.15560  0.19560  1.0000
  C   C18       1.0  0.09450  0.84440  0.80440  1.0000
  H   H37       1.0  0.90780  0.14890  0.12640  1.0000
  H   H38       1.0  0.09220  0.85110  0.87360  1.0000
  H   H39       1.0  0.88690  0.09050  0.23420  1.0000
  H   H40       1.0  0.11310  0.90950  0.76580  1.0000
  C   C19       1.0  0.80740  0.22510  0.25010  1.0000
  C   C20       1.0  0.19260  0.77490  0.74990  1.0000
  H   H41       1.0  0.81210  0.24360  0.31340  1.0000
  H   H42       1.0  0.18790  0.75640  0.68660  1.0000
  H   H43       1.0  0.81430  0.28560  0.20440  1.0000
  H   H44       1.0  0.18570  0.71440  0.79560  1.0000
  C   C21       1.0  0.69340  0.18090  0.27920  1.0000
  C   C22       1.0  0.30660  0.81910  0.72080  1.0000
  H   H45       1.0  0.69160  0.15630  0.21710  1.0000
  H   H46       1.0  0.30840  0.84370  0.78290  1.0000
  H   H47       1.0  0.68340  0.12430  0.33050  1.0000
  H   H48       1.0  0.31660  0.87570  0.66950  1.0000
  C   C23       1.0  0.59630  0.25260  0.32370  1.0000
  C   C24       1.0  0.40370  0.74740  0.67630  1.0000
  H   H49       1.0  0.52510  0.21990  0.34110  1.0000
  H   H50       1.0  0.47490  0.78010  0.65890  1.0000
  H   H51       1.0  0.60450  0.30810  0.27270  1.0000
  H   H52       1.0  0.39550  0.69190  0.72730  1.0000
  H   H53       1.0  0.59640  0.27630  0.38610  1.0000
  H   H54       1.0  0.40360  0.72370  0.61390  1.0000
  C   C25       1.0  0.02850  0.38300  0.07500  1.0000
  C   C26       1.0  0.97150  0.61700  0.92500  1.0000
  C   C27       1.0  0.01950  0.44940  0.98890  1.0000
  C   C28       1.0  0.98050  0.55060  0.01110  1.0000
  H   H55       1.0  0.09460  0.45170  0.93000  1.0000
  H   H56       1.0  0.90540  0.54830  0.07000  1.0000
  H   H57       1.0  0.96760  0.41930  0.96620  1.0000
  H   H58       1.0  0.03240  0.58070  0.03380  1.0000
  C   C29       1.0  0.00990  0.92750  0.61860  1.0000
  C   C30       1.0  0.99010  0.07250  0.38140  1.0000
  C   C31       1.0  0.02350  0.01370  0.53750  1.0000
  C   C32       1.0  0.97650  0.98630  0.46250  1.0000
  H   H59       1.0  0.89580  0.97020  0.50070  1.0000
  H   H60       1.0  0.10420  0.02980  0.49930  1.0000
  H   H61       1.0  0.01730  0.92780  0.42790  1.0000
  H   H62       1.0  0.98270  0.07220  0.57210  1.0000
