data_image0
_chemical_formula_structural       La4Br4Cl4O24N4C8H4C8H4C8H4C8
_chemical_formula_sum              "La4 Br4 Cl4 O24 N4 C32 H12"
_cell_length_a       24.509
_cell_length_b       9.835
_cell_length_c       7.5626
_cell_angle_alpha    90
_cell_angle_beta     90
_cell_angle_gamma    90

_space_group_name_H-M_alt    "P 1"
_space_group_IT_number       1

loop_
  _space_group_symop_operation_xyz
  'x, y, z'

loop_
  _atom_site_type_symbol
  _atom_site_label
  _atom_site_symmetry_multiplicity
  _atom_site_fract_x
  _atom_site_fract_y
  _atom_site_fract_z
  _atom_site_occupancy
  La  La1       1.0  0.21608  0.71435  0.13688  1.0000
  La  La2       1.0  0.78392  0.28565  0.63688  1.0000
  La  La3       1.0  0.71608  0.28565  0.13688  1.0000
  La  La4       1.0  0.28392  0.71435  0.63688  1.0000
  Br  Br1       1.0  0.09749  0.71477  0.19803  1.0000
  Br  Br2       1.0  0.90251  0.28523  0.69803  1.0000
  Br  Br3       1.0  0.59749  0.28523  0.19803  1.0000
  Br  Br4       1.0  0.40251  0.71477  0.69803  1.0000
  Cl  Cl1       1.0  0.17567  0.70780  0.78390  1.0000
  Cl  Cl2       1.0  0.82433  0.29220  0.28390  1.0000
  Cl  Cl3       1.0  0.67567  0.29220  0.78390  1.0000
  Cl  Cl4       1.0  0.32433  0.70780  0.28390  1.0000
  O   O1        1.0  0.28320  0.85660  0.91550  1.0000
  O   O2        1.0  0.71680  0.14340  0.41550  1.0000
  O   O3        1.0  0.78320  0.14340  0.91550  1.0000
  O   O4        1.0  0.21680  0.85660  0.41550  1.0000
  O   O5        1.0  0.22080  0.96580  0.05950  1.0000
  O   O6        1.0  0.77920  0.03420  0.55950  1.0000
  O   O7        1.0  0.72080  0.03420  0.05950  1.0000
  O   O8        1.0  0.27920  0.96580  0.55950  1.0000
  O   O9        1.0  0.22320  0.46330  0.06540  1.0000
  O   O10       1.0  0.77680  0.53670  0.56540  1.0000
  O   O11       1.0  0.72320  0.53670  0.06540  1.0000
  O   O12       1.0  0.27680  0.46330  0.56540  1.0000
  O   O13       1.0  0.28480  0.57930  0.91630  1.0000
  O   O14       1.0  0.71520  0.42070  0.41630  1.0000
  O   O15       1.0  0.78480  0.42070  0.91630  1.0000
  O   O16       1.0  0.21520  0.57930  0.41630  1.0000
  O   O17       1.0  0.44600  0.31480  0.72590  1.0000
  O   O18       1.0  0.55400  0.68520  0.22590  1.0000
  O   O19       1.0  0.94600  0.68520  0.72590  1.0000
  O   O20       1.0  0.05400  0.31480  0.22590  1.0000
  O   O21       1.0  0.44150  0.10560  0.69280  1.0000
  O   O22       1.0  0.55850  0.89440  0.19280  1.0000
  O   O23       1.0  0.94150  0.89440  0.69280  1.0000
  O   O24       1.0  0.05850  0.10560  0.19280  1.0000
  N   N1        1.0  0.42410  0.21070  0.74620  1.0000
  N   N2        1.0  0.57590  0.78930  0.24620  1.0000
  N   N3        1.0  0.92410  0.78930  0.74620  1.0000
  N   N4        1.0  0.07590  0.21070  0.24620  1.0000
  C   C1        1.0  0.29300  0.08990  0.93350  1.0000
  C   C2        1.0  0.70700  0.91010  0.43350  1.0000
  C   C3        1.0  0.79300  0.91010  0.93350  1.0000
  C   C4        1.0  0.20700  0.08990  0.43350  1.0000
  C   C5        1.0  0.26920  0.21240  0.97570  1.0000
  C   C6        1.0  0.73080  0.78760  0.47570  1.0000
  C   C7        1.0  0.76920  0.78760  0.97570  1.0000
  C   C8        1.0  0.23080  0.21240  0.47570  1.0000
  H   H1        1.0  0.23510  0.21270  0.03580  1.0000
  H   H2        1.0  0.76490  0.78730  0.53580  1.0000
  H   H3        1.0  0.73510  0.78730  0.03580  1.0000
  H   H4        1.0  0.26490  0.21270  0.53580  1.0000
  C   C9        1.0  0.29330  0.33450  0.93330  1.0000
  C   C10       1.0  0.70670  0.66550  0.43330  1.0000
  C   C11       1.0  0.79330  0.66550  0.93330  1.0000
  C   C12       1.0  0.20670  0.33450  0.43330  1.0000
  C   C13       1.0  0.34470  0.33460  0.86000  1.0000
  C   C14       1.0  0.65530  0.66540  0.36000  1.0000
  C   C15       1.0  0.84470  0.66540  0.86000  1.0000
  C   C16       1.0  0.15530  0.33460  0.36000  1.0000
  H   H5        1.0  0.36290  0.41740  0.83360  1.0000
  H   H6        1.0  0.63710  0.58260  0.33360  1.0000
  H   H7        1.0  0.86290  0.58260  0.83360  1.0000
  H   H8        1.0  0.13710  0.41740  0.33360  1.0000
  C   C17       1.0  0.36850  0.21270  0.82660  1.0000
  C   C18       1.0  0.63150  0.78730  0.32660  1.0000
  C   C19       1.0  0.86850  0.78730  0.82660  1.0000
  C   C20       1.0  0.13150  0.21270  0.32660  1.0000
  C   C21       1.0  0.34270  0.08880  0.85560  1.0000
  C   C22       1.0  0.65730  0.91120  0.35560  1.0000
  C   C23       1.0  0.84270  0.91120  0.85560  1.0000
  C   C24       1.0  0.15730  0.08880  0.35560  1.0000
  H   H9        1.0  0.35950  0.00570  0.82170  1.0000
  H   H10       1.0  0.64050  0.99430  0.32170  1.0000
  H   H11       1.0  0.85950  0.99430  0.82170  1.0000
  H   H12       1.0  0.14050  0.00570  0.32170  1.0000
  C   C25       1.0  0.26280  0.96290  0.97160  1.0000
  C   C26       1.0  0.73720  0.03710  0.47160  1.0000
  C   C27       1.0  0.76280  0.03710  0.97160  1.0000
  C   C28       1.0  0.23720  0.96290  0.47160  1.0000
  C   C29       1.0  0.26540  0.46640  0.97180  1.0000
  C   C30       1.0  0.73460  0.53360  0.47180  1.0000
  C   C31       1.0  0.76540  0.53360  0.97180  1.0000
  C   C32       1.0  0.23460  0.46640  0.47180  1.0000
