data_image0
_chemical_formula_structural       La2CoS4O24C4H2C4H2C4H2C6H6C2H6C2H6C4H6
_chemical_formula_sum              "La2 Co1 S4 O24 C26 H30"
_cell_length_a       10.444
_cell_length_b       11.213
_cell_length_c       12.233
_cell_angle_alpha    79.66
_cell_angle_beta     71.61
_cell_angle_gamma    87.54

_space_group_name_H-M_alt    "P 1"
_space_group_IT_number       1

loop_
  _space_group_symop_operation_xyz
  'x, y, z'

loop_
  _atom_site_type_symbol
  _atom_site_label
  _atom_site_symmetry_multiplicity
  _atom_site_fract_x
  _atom_site_fract_y
  _atom_site_fract_z
  _atom_site_occupancy
  La  La1       1.0  0.57604  0.93872  0.64678  1.0000
  La  La2       1.0  0.42396  0.06128  0.35322  1.0000
  Co  Co1       1.0  0.00000  0.00000  0.50000  1.0000
  S   S1        1.0  0.48851  0.26610  0.54446  1.0000
  S   S2        1.0  0.51149  0.73390  0.45554  1.0000
  S   S3        1.0  0.86930  0.74099  0.66938  1.0000
  S   S4        1.0  0.13070  0.25901  0.33062  1.0000
  O   O1        1.0  0.40620  0.77260  0.79940  1.0000
  O   O2        1.0  0.59380  0.22740  0.20060  1.0000
  O   O3        1.0  0.44490  0.93670  0.85920  1.0000
  O   O4        1.0  0.55510  0.06330  0.14080  1.0000
  O   O5        1.0  0.07420  0.88730  0.37840  1.0000
  O   O6        1.0  0.92580  0.11270  0.62160  1.0000
  O   O7        1.0  0.28060  0.95950  0.27600  1.0000
  O   O8        1.0  0.71940  0.04050  0.72400  1.0000
  O   O9        1.0  0.72780  0.77630  0.70340  1.0000
  O   O10       1.0  0.27220  0.22370  0.29660  1.0000
  O   O11       1.0  0.89810  0.65560  0.75910  1.0000
  O   O12       1.0  0.10190  0.34440  0.24090  1.0000
  O   O13       1.0  0.96020  0.84520  0.63090  1.0000
  O   O14       1.0  0.03980  0.15480  0.36910  1.0000
  O   O15       1.0  0.51970  0.16380  0.62430  1.0000
  O   O16       1.0  0.48030  0.83620  0.37570  1.0000
  O   O17       1.0  0.42150  0.22680  0.46840  1.0000
  O   O18       1.0  0.57850  0.77320  0.53160  1.0000
  O   O19       1.0  0.41620  0.35910  0.60510  1.0000
  O   O20       1.0  0.58380  0.64090  0.39490  1.0000
  O   O21       1.0  0.19410  0.01650  0.52220  1.0000
  O   O22       1.0  0.80590  0.98350  0.47780  1.0000
  O   O23       1.0  0.36670  0.96730  0.58340  1.0000
  O   O24       1.0  0.63330  0.03270  0.41660  1.0000
  C   C1        1.0  0.28100  0.79800  0.99570  1.0000
  C   C2        1.0  0.71900  0.20200  0.00430  1.0000
  C   C3        1.0  0.28270  0.85240  0.08800  1.0000
  C   C4        1.0  0.71730  0.14760  0.91200  1.0000
  H   H1        1.0  0.35190  0.90670  0.07830  1.0000
  H   H2        1.0  0.64810  0.09330  0.92170  1.0000
  C   C5        1.0  0.18160  0.82690  0.19560  1.0000
  C   C6        1.0  0.81840  0.17310  0.80440  1.0000
  C   C7        1.0  0.08130  0.74140  0.20900  1.0000
  C   C8        1.0  0.91870  0.25860  0.79100  1.0000
  H   H3        1.0  0.01360  0.72330  0.28060  1.0000
  H   H4        1.0  0.98640  0.27670  0.71940  1.0000
  C   C9        1.0  0.08020  0.68350  0.11880  1.0000
  C   C10       1.0  0.91980  0.31650  0.88120  1.0000
  C   C11       1.0  0.18030  0.71250  0.01130  1.0000
  C   C12       1.0  0.81970  0.28750  0.98870  1.0000
  H   H5        1.0  0.18020  0.67490  0.94950  1.0000
  H   H6        1.0  0.81980  0.32510  0.05050  1.0000
  C   C13       1.0  0.38490  0.83670  0.87680  1.0000
  C   C14       1.0  0.61510  0.16330  0.12320  1.0000
  C   C15       1.0  0.17910  0.89470  0.29060  1.0000
  C   C16       1.0  0.82090  0.10530  0.70940  1.0000
  C   C17       1.0  0.96980  0.59070  0.13780  1.0000
  C   C18       1.0  0.03020  0.40930  0.86220  1.0000
  H   H7        1.0  0.95840  0.58520  0.06400  1.0000
  H   H8        1.0  0.04160  0.41480  0.93600  1.0000
  H   H9        1.0  0.88670  0.61530  0.18910  1.0000
  H   H10       1.0  0.11330  0.38470  0.81090  1.0000
  H   H11       1.0  0.99470  0.51300  0.17220  1.0000
  H   H12       1.0  0.00530  0.48700  0.82780  1.0000
  C   C19       1.0  0.64430  0.32910  0.45050  1.0000
  C   C20       1.0  0.35570  0.67090  0.54950  1.0000
  H   H13       1.0  0.62890  0.39710  0.39640  1.0000
  H   H14       1.0  0.37110  0.60290  0.60360  1.0000
  H   H15       1.0  0.69480  0.26910  0.40810  1.0000
  H   H16       1.0  0.30520  0.73090  0.59190  1.0000
  H   H17       1.0  0.69430  0.35550  0.49580  1.0000
  H   H18       1.0  0.30570  0.64450  0.50420  1.0000
  C   C21       1.0  0.89280  0.67170  0.54480  1.0000
  C   C22       1.0  0.10720  0.32830  0.45520  1.0000
  H   H19       1.0  0.98450  0.64590  0.51780  1.0000
  H   H20       1.0  0.01550  0.35410  0.48220  1.0000
  H   H21       1.0  0.87360  0.72910  0.48380  1.0000
  H   H22       1.0  0.12640  0.27090  0.51620  1.0000
  H   H23       1.0  0.83310  0.60280  0.56550  1.0000
  H   H24       1.0  0.16690  0.39720  0.43450  1.0000
  C   C23       1.0  0.24210  0.98580  0.60610  1.0000
  C   C24       1.0  0.75790  0.01420  0.39390  1.0000
  C   C25       1.0  0.15410  0.97280  0.73030  1.0000
  C   C26       1.0  0.84590  0.02720  0.26970  1.0000
  H   H25       1.0  0.16480  0.89350  0.77140  1.0000
  H   H26       1.0  0.83520  0.10650  0.22860  1.0000
  H   H27       1.0  0.06160  0.98330  0.73270  1.0000
  H   H28       1.0  0.93840  0.01670  0.26730  1.0000
  H   H29       1.0  0.17920  0.03310  0.76670  1.0000
  H   H30       1.0  0.82080  0.96690  0.23330  1.0000
