data_image0
_chemical_formula_structural       Fe2O12Fe2O12C12H12
_chemical_formula_sum              "Fe4 O24 C12 H12"
_cell_length_a       8.2357
_cell_length_b       8.2357
_cell_length_c       13.327
_cell_angle_alpha    90
_cell_angle_beta     90
_cell_angle_gamma    120

_space_group_name_H-M_alt    "P 1"
_space_group_IT_number       1

loop_
  _space_group_symop_operation_xyz
  'x, y, z'

loop_
  _atom_site_type_symbol
  _atom_site_label
  _atom_site_symmetry_multiplicity
  _atom_site_fract_x
  _atom_site_fract_y
  _atom_site_fract_z
  _atom_site_occupancy
  Fe  Fe1       1.0  0.66667  0.33333  0.25000  1.0000
  Fe  Fe2       1.0  0.33333  0.66667  0.75000  1.0000
  O   O1        1.0  0.88000  0.30300  0.17800  1.0000
  O   O2        1.0  0.69700  0.57700  0.17800  1.0000
  O   O3        1.0  0.42300  0.12000  0.17800  1.0000
  O   O4        1.0  0.69700  0.12000  0.32200  1.0000
  O   O5        1.0  0.42300  0.30300  0.32200  1.0000
  O   O6        1.0  0.88000  0.57700  0.32200  1.0000
  O   O7        1.0  0.12000  0.69700  0.82200  1.0000
  O   O8        1.0  0.30300  0.42300  0.82200  1.0000
  O   O9        1.0  0.57700  0.88000  0.82200  1.0000
  O   O10       1.0  0.30300  0.88000  0.67800  1.0000
  O   O11       1.0  0.57700  0.69700  0.67800  1.0000
  O   O12       1.0  0.12000  0.42300  0.67800  1.0000
  Fe  Fe3       1.0  0.00000  0.00000  0.00000  1.0000
  Fe  Fe4       1.0  0.00000  0.00000  0.50000  1.0000
  O   O13       1.0  0.97500  0.14500  0.09050  1.0000
  O   O14       1.0  0.85500  0.83000  0.09050  1.0000
  O   O15       1.0  0.17000  0.02500  0.09050  1.0000
  O   O16       1.0  0.85500  0.02500  0.40950  1.0000
  O   O17       1.0  0.17000  0.14500  0.40950  1.0000
  O   O18       1.0  0.97500  0.83000  0.40950  1.0000
  O   O19       1.0  0.02500  0.85500  0.90950  1.0000
  O   O20       1.0  0.14500  0.17000  0.90950  1.0000
  O   O21       1.0  0.83000  0.97500  0.90950  1.0000
  O   O22       1.0  0.14500  0.97500  0.59050  1.0000
  O   O23       1.0  0.83000  0.85500  0.59050  1.0000
  O   O24       1.0  0.02500  0.17000  0.59050  1.0000
  C   C1        1.0  0.85900  0.17800  0.12400  1.0000
  C   C2        1.0  0.82200  0.68100  0.12400  1.0000
  C   C3        1.0  0.31900  0.14100  0.12400  1.0000
  C   C4        1.0  0.82200  0.14100  0.37600  1.0000
  C   C5        1.0  0.31900  0.17800  0.37600  1.0000
  C   C6        1.0  0.85900  0.68100  0.37600  1.0000
  C   C7        1.0  0.14100  0.82200  0.87600  1.0000
  C   C8        1.0  0.17800  0.31900  0.87600  1.0000
  C   C9        1.0  0.68100  0.85900  0.87600  1.0000
  C   C10       1.0  0.17800  0.85900  0.62400  1.0000
  C   C11       1.0  0.68100  0.82200  0.62400  1.0000
  C   C12       1.0  0.14100  0.31900  0.62400  1.0000
  H   H1        1.0  0.73606  0.09404  0.10533  1.0000
  H   H2        1.0  0.90596  0.64202  0.10533  1.0000
  H   H3        1.0  0.35798  0.26394  0.10533  1.0000
  H   H4        1.0  0.90596  0.26394  0.39467  1.0000
  H   H5        1.0  0.35798  0.09404  0.39467  1.0000
  H   H6        1.0  0.73606  0.64202  0.39467  1.0000
  H   H7        1.0  0.26394  0.90596  0.89467  1.0000
  H   H8        1.0  0.09404  0.35798  0.89467  1.0000
  H   H9        1.0  0.64202  0.73606  0.89467  1.0000
  H   H10       1.0  0.09404  0.73606  0.60533  1.0000
  H   H11       1.0  0.64202  0.90596  0.60533  1.0000
  H   H12       1.0  0.26394  0.35798  0.60533  1.0000
