data_image0
_chemical_formula_structural       Fe4O12C12H12O12
_chemical_formula_sum              "Fe4 O24 C12 H12"
_cell_length_a       8.2675
_cell_length_b       8.2675
_cell_length_c       13.1686
_cell_angle_alpha    90
_cell_angle_beta     90
_cell_angle_gamma    120

_space_group_name_H-M_alt    "P 1"
_space_group_IT_number       1

loop_
  _space_group_symop_operation_xyz
  'x, y, z'

loop_
  _atom_site_type_symbol
  _atom_site_label
  _atom_site_symmetry_multiplicity
  _atom_site_fract_x
  _atom_site_fract_y
  _atom_site_fract_z
  _atom_site_occupancy
  Fe  Fe1       1.0  0.33330  0.66670  0.75000  1.0000
  Fe  Fe2       1.0  0.66670  0.33330  0.25000  1.0000
  Fe  Fe3       1.0  0.00000  0.00000  0.00000  1.0000
  Fe  Fe4       1.0  0.00000  0.00000  0.50000  1.0000
  O   O1        1.0  0.34870  0.88840  0.83620  1.0000
  O   O2        1.0  0.11160  0.46030  0.83620  1.0000
  O   O3        1.0  0.53970  0.65130  0.83620  1.0000
  O   O4        1.0  0.11160  0.65130  0.66380  1.0000
  O   O5        1.0  0.53970  0.88840  0.66380  1.0000
  O   O6        1.0  0.34870  0.46030  0.66380  1.0000
  O   O7        1.0  0.65130  0.11160  0.16380  1.0000
  O   O8        1.0  0.88840  0.53970  0.16380  1.0000
  O   O9        1.0  0.46030  0.34870  0.16380  1.0000
  O   O10       1.0  0.88840  0.34870  0.33620  1.0000
  O   O11       1.0  0.46030  0.11160  0.33620  1.0000
  O   O12       1.0  0.65130  0.53970  0.33620  1.0000
  C   C1        1.0  0.21700  0.88140  0.88140  1.0000
  C   C2        1.0  0.11860  0.33560  0.88140  1.0000
  C   C3        1.0  0.66440  0.78300  0.88140  1.0000
  C   C4        1.0  0.11860  0.78300  0.61860  1.0000
  C   C5        1.0  0.66440  0.88140  0.61860  1.0000
  C   C6        1.0  0.21700  0.33560  0.61860  1.0000
  C   C7        1.0  0.78300  0.11860  0.11860  1.0000
  C   C8        1.0  0.88140  0.66440  0.11860  1.0000
  C   C9        1.0  0.33560  0.21700  0.11860  1.0000
  C   C10       1.0  0.88140  0.21700  0.38140  1.0000
  C   C11       1.0  0.33560  0.11860  0.38140  1.0000
  C   C12       1.0  0.78300  0.66440  0.38140  1.0000
  H   H1        1.0  0.11370  0.76370  0.89200  1.0000
  H   H2        1.0  0.23630  0.35000  0.89200  1.0000
  H   H3        1.0  0.65000  0.88630  0.89200  1.0000
  H   H4        1.0  0.23630  0.88630  0.60800  1.0000
  H   H5        1.0  0.65000  0.76370  0.60800  1.0000
  H   H6        1.0  0.11370  0.35000  0.60800  1.0000
  H   H7        1.0  0.88630  0.23630  0.10800  1.0000
  H   H8        1.0  0.76370  0.65000  0.10800  1.0000
  H   H9        1.0  0.35000  0.11370  0.10800  1.0000
  H   H10       1.0  0.76370  0.11370  0.39200  1.0000
  H   H11       1.0  0.35000  0.23630  0.39200  1.0000
  H   H12       1.0  0.88630  0.65000  0.39200  1.0000
  O   O13       1.0  0.20800  0.01820  0.91482  1.0000
  O   O14       1.0  0.98180  0.18980  0.91482  1.0000
  O   O15       1.0  0.81020  0.79200  0.91482  1.0000
  O   O16       1.0  0.98180  0.79200  0.58518  1.0000
  O   O17       1.0  0.81020  0.01820  0.58518  1.0000
  O   O18       1.0  0.20800  0.18980  0.58518  1.0000
  O   O19       1.0  0.79200  0.98180  0.08518  1.0000
  O   O20       1.0  0.01820  0.81020  0.08518  1.0000
  O   O21       1.0  0.18980  0.20800  0.08518  1.0000
  O   O22       1.0  0.01820  0.20800  0.41482  1.0000
  O   O23       1.0  0.18980  0.98180  0.41482  1.0000
  O   O24       1.0  0.79200  0.81020  0.41482  1.0000
