data_image0
_chemical_formula_structural       Fe4O12C12O12H12
_chemical_formula_sum              "Fe4 O24 C12 H12"
_cell_length_a       8.2238
_cell_length_b       8.2238
_cell_length_c       13.3881
_cell_angle_alpha    90
_cell_angle_beta     90
_cell_angle_gamma    120

_space_group_name_H-M_alt    "P 1"
_space_group_IT_number       1

loop_
  _space_group_symop_operation_xyz
  'x, y, z'

loop_
  _atom_site_type_symbol
  _atom_site_label
  _atom_site_symmetry_multiplicity
  _atom_site_fract_x
  _atom_site_fract_y
  _atom_site_fract_z
  _atom_site_occupancy
  Fe  Fe1       1.0  0.66670  0.33330  0.25000  1.0000
  Fe  Fe2       1.0  0.33330  0.66670  0.75000  1.0000
  Fe  Fe3       1.0  0.00000  0.00000  0.00000  1.0000
  Fe  Fe4       1.0  0.00000  0.00000  0.50000  1.0000
  O   O1        1.0  0.88950  0.34660  0.16500  1.0000
  O   O2        1.0  0.65340  0.54290  0.16500  1.0000
  O   O3        1.0  0.45710  0.11050  0.16500  1.0000
  O   O4        1.0  0.65340  0.11050  0.33500  1.0000
  O   O5        1.0  0.45710  0.34660  0.33500  1.0000
  O   O6        1.0  0.88950  0.54290  0.33500  1.0000
  O   O7        1.0  0.11050  0.65340  0.83500  1.0000
  O   O8        1.0  0.34660  0.45710  0.83500  1.0000
  O   O9        1.0  0.54290  0.88950  0.83500  1.0000
  O   O10       1.0  0.34660  0.88950  0.66500  1.0000
  O   O11       1.0  0.54290  0.65340  0.66500  1.0000
  O   O12       1.0  0.11050  0.45710  0.66500  1.0000
  C   C1        1.0  0.87840  0.21350  0.12000  1.0000
  C   C2        1.0  0.78650  0.66490  0.12000  1.0000
  C   C3        1.0  0.33510  0.12160  0.12000  1.0000
  C   C4        1.0  0.78650  0.12160  0.38000  1.0000
  C   C5        1.0  0.33510  0.21350  0.38000  1.0000
  C   C6        1.0  0.87840  0.66490  0.38000  1.0000
  C   C7        1.0  0.12160  0.78650  0.88000  1.0000
  C   C8        1.0  0.21350  0.33510  0.88000  1.0000
  C   C9        1.0  0.66490  0.87840  0.88000  1.0000
  C   C10       1.0  0.21350  0.87840  0.62000  1.0000
  C   C11       1.0  0.66490  0.78650  0.62000  1.0000
  C   C12       1.0  0.12160  0.33510  0.62000  1.0000
  O   O13       1.0  0.01680  0.20680  0.08360  1.0000
  O   O14       1.0  0.79320  0.81000  0.08360  1.0000
  O   O15       1.0  0.19000  0.98320  0.08360  1.0000
  O   O16       1.0  0.79320  0.98320  0.41640  1.0000
  O   O17       1.0  0.19000  0.20680  0.41640  1.0000
  O   O18       1.0  0.01680  0.81000  0.41640  1.0000
  O   O19       1.0  0.98320  0.79320  0.91640  1.0000
  O   O20       1.0  0.20680  0.19000  0.91640  1.0000
  O   O21       1.0  0.81000  0.01680  0.91640  1.0000
  O   O22       1.0  0.20680  0.01680  0.58360  1.0000
  O   O23       1.0  0.81000  0.79320  0.58360  1.0000
  O   O24       1.0  0.98320  0.19000  0.58360  1.0000
  H   H1        1.0  0.75100  0.10600  0.09600  1.0000
  H   H2        1.0  0.89400  0.64500  0.09600  1.0000
  H   H3        1.0  0.35500  0.24900  0.09600  1.0000
  H   H4        1.0  0.89400  0.24900  0.40400  1.0000
  H   H5        1.0  0.35500  0.10600  0.40400  1.0000
  H   H6        1.0  0.75100  0.64500  0.40400  1.0000
  H   H7        1.0  0.24900  0.89400  0.90400  1.0000
  H   H8        1.0  0.10600  0.35500  0.90400  1.0000
  H   H9        1.0  0.64500  0.75100  0.90400  1.0000
  H   H10       1.0  0.10600  0.75100  0.59600  1.0000
  H   H11       1.0  0.64500  0.89400  0.59600  1.0000
  H   H12       1.0  0.24900  0.35500  0.59600  1.0000
