data_image0
_chemical_formula_structural       Fe36O216C36H36C36H36C36H36
_chemical_formula_sum              "Fe36 O216 C108 H108"
_cell_length_a       14.2909
_cell_length_b       14.2909
_cell_length_c       41.5072
_cell_angle_alpha    90
_cell_angle_beta     90
_cell_angle_gamma    120

_space_group_name_H-M_alt    "P 1"
_space_group_IT_number       1

loop_
  _space_group_symop_operation_xyz
  'x, y, z'

loop_
  _atom_site_type_symbol
  _atom_site_label
  _atom_site_symmetry_multiplicity
  _atom_site_fract_x
  _atom_site_fract_y
  _atom_site_fract_z
  _atom_site_occupancy
  Fe  Fe1       1.0  0.99373  0.33330  0.08330  1.0000
  Fe  Fe2       1.0  0.66670  0.66043  0.08330  1.0000
  Fe  Fe3       1.0  0.33957  0.00627  0.08330  1.0000
  Fe  Fe4       1.0  0.33330  0.99373  0.41670  1.0000
  Fe  Fe5       1.0  0.66043  0.66670  0.41670  1.0000
  Fe  Fe6       1.0  0.00627  0.33957  0.41670  1.0000
  Fe  Fe7       1.0  0.99997  0.32706  0.75003  1.0000
  Fe  Fe8       1.0  0.32710  0.00003  0.75003  1.0000
  Fe  Fe9       1.0  0.67294  0.67290  0.75003  1.0000
  Fe  Fe10      1.0  0.00627  0.66670  0.91670  1.0000
  Fe  Fe11      1.0  0.33330  0.33957  0.91670  1.0000
  Fe  Fe12      1.0  0.66043  0.99373  0.91670  1.0000
  Fe  Fe13      1.0  0.66670  0.00627  0.58330  1.0000
  Fe  Fe14      1.0  0.33957  0.33330  0.58330  1.0000
  Fe  Fe15      1.0  0.99373  0.66043  0.58330  1.0000
  Fe  Fe16      1.0  0.00003  0.67294  0.24997  1.0000
  Fe  Fe17      1.0  0.67290  0.99997  0.24997  1.0000
  Fe  Fe18      1.0  0.32706  0.32710  0.24997  1.0000
  Fe  Fe19      1.0  0.00000  0.00000  0.00000  1.0000
  Fe  Fe20      1.0  0.00000  0.00000  0.50000  1.0000
  Fe  Fe21      1.0  0.66667  0.33333  0.33333  1.0000
  Fe  Fe22      1.0  0.66667  0.33333  0.83333  1.0000
  Fe  Fe23      1.0  0.33333  0.66667  0.66667  1.0000
  Fe  Fe24      1.0  0.33333  0.66667  0.16667  1.0000
  Fe  Fe25      1.0  0.66670  0.33330  0.99778  1.0000
  Fe  Fe26      1.0  0.33330  0.66670  0.50222  1.0000
  Fe  Fe27      1.0  0.33337  0.66663  0.33111  1.0000
  Fe  Fe28      1.0  0.99997  0.00003  0.83555  1.0000
  Fe  Fe29      1.0  0.00003  0.99997  0.66445  1.0000
  Fe  Fe30      1.0  0.66663  0.33337  0.16889  1.0000
  Fe  Fe31      1.0  0.33330  0.66670  0.00222  1.0000
  Fe  Fe32      1.0  0.66670  0.33330  0.49778  1.0000
  Fe  Fe33      1.0  0.66663  0.33337  0.66889  1.0000
  Fe  Fe34      1.0  0.00003  0.99997  0.16445  1.0000
  Fe  Fe35      1.0  0.99997  0.00003  0.33555  1.0000
  Fe  Fe36      1.0  0.33337  0.66663  0.83111  1.0000
  O   O1        1.0  0.06012  0.47742  0.05485  1.0000
  O   O2        1.0  0.52258  0.58270  0.05485  1.0000
  O   O3        1.0  0.41730  0.93988  0.05485  1.0000
  O   O4        1.0  0.47742  0.06012  0.44515  1.0000
  O   O5        1.0  0.58270  0.52258  0.44515  1.0000
  O   O6        1.0  0.93988  0.41730  0.44515  1.0000
  O   O7        1.0  0.72679  0.81075  0.38818  1.0000
  O   O8        1.0  0.18925  0.91603  0.38818  1.0000
  O   O9        1.0  0.08397  0.27321  0.38818  1.0000
  O   O10       1.0  0.14409  0.39345  0.77848  1.0000
  O   O11       1.0  0.24937  0.85591  0.77848  1.0000
  O   O12       1.0  0.60655  0.75063  0.77848  1.0000
  O   O13       1.0  0.39345  0.14409  0.72152  1.0000
  O   O14       1.0  0.85591  0.24937  0.72152  1.0000
  O   O15       1.0  0.75063  0.60655  0.72152  1.0000
  O   O16       1.0  0.81075  0.72679  0.11182  1.0000
  O   O17       1.0  0.91603  0.18925  0.11182  1.0000
  O   O18       1.0  0.27321  0.08397  0.11182  1.0000
  O   O19       1.0  0.93988  0.52258  0.94515  1.0000
  O   O20       1.0  0.47742  0.41730  0.94515  1.0000
  O   O21       1.0  0.58270  0.06012  0.94515  1.0000
  O   O22       1.0  0.52258  0.93988  0.55485  1.0000
  O   O23       1.0  0.41730  0.47742  0.55485  1.0000
  O   O24       1.0  0.06012  0.58270  0.55485  1.0000
  O   O25       1.0  0.27321  0.18925  0.61182  1.0000
  O   O26       1.0  0.81075  0.08397  0.61182  1.0000
  O   O27       1.0  0.91603  0.72679  0.61182  1.0000
  O   O28       1.0  0.85591  0.60655  0.22152  1.0000
  O   O29       1.0  0.75063  0.14409  0.22152  1.0000
  O   O30       1.0  0.39345  0.24937  0.22152  1.0000
  O   O31       1.0  0.60655  0.85591  0.27848  1.0000
  O   O32       1.0  0.14409  0.75063  0.27848  1.0000
  O   O33       1.0  0.24937  0.39345  0.27848  1.0000
  O   O34       1.0  0.18925  0.27321  0.88818  1.0000
  O   O35       1.0  0.08397  0.81075  0.88818  1.0000
  O   O36       1.0  0.72679  0.91603  0.88818  1.0000
  O   O37       1.0  0.84551  0.25352  0.05732  1.0000
  O   O38       1.0  0.74648  0.59199  0.05732  1.0000
  O   O39       1.0  0.40801  0.15449  0.05732  1.0000
  O   O40       1.0  0.25352  0.84551  0.44268  1.0000
  O   O41       1.0  0.59199  0.74648  0.44268  1.0000
  O   O42       1.0  0.15449  0.40801  0.44268  1.0000
  O   O43       1.0  0.51218  0.58685  0.39065  1.0000
  O   O44       1.0  0.41315  0.92532  0.39065  1.0000
  O   O45       1.0  0.07468  0.48782  0.39065  1.0000
  O   O46       1.0  0.92019  0.17884  0.77601  1.0000
  O   O47       1.0  0.25866  0.07981  0.77601  1.0000
  O   O48       1.0  0.82116  0.74134  0.77601  1.0000
  O   O49       1.0  0.17884  0.92019  0.72399  1.0000
  O   O50       1.0  0.07981  0.25866  0.72399  1.0000
  O   O51       1.0  0.74134  0.82116  0.72399  1.0000
  O   O52       1.0  0.58685  0.51218  0.10935  1.0000
  O   O53       1.0  0.92532  0.41315  0.10935  1.0000
  O   O54       1.0  0.48782  0.07468  0.10935  1.0000
  O   O55       1.0  0.15449  0.74648  0.94268  1.0000
  O   O56       1.0  0.25352  0.40801  0.94268  1.0000
  O   O57       1.0  0.59199  0.84551  0.94268  1.0000
  O   O58       1.0  0.74648  0.15449  0.55732  1.0000
  O   O59       1.0  0.40801  0.25352  0.55732  1.0000
  O   O60       1.0  0.84551  0.59199  0.55732  1.0000
  O   O61       1.0  0.48782  0.41315  0.60935  1.0000
  O   O62       1.0  0.58685  0.07468  0.60935  1.0000
  O   O63       1.0  0.92532  0.51218  0.60935  1.0000
  O   O64       1.0  0.07981  0.82116  0.22399  1.0000
  O   O65       1.0  0.74134  0.92019  0.22399  1.0000
  O   O66       1.0  0.17884  0.25866  0.22399  1.0000
  O   O67       1.0  0.82116  0.07981  0.27601  1.0000
  O   O68       1.0  0.92019  0.74134  0.27601  1.0000
  O   O69       1.0  0.25866  0.17884  0.27601  1.0000
  O   O70       1.0  0.41315  0.48782  0.89065  1.0000
  O   O71       1.0  0.07468  0.58685  0.89065  1.0000
  O   O72       1.0  0.51218  0.92532  0.89065  1.0000
  O   O73       1.0  0.19887  0.60841  0.02863  1.0000
  O   O74       1.0  0.39159  0.59046  0.02863  1.0000
  O   O75       1.0  0.40954  0.80113  0.02863  1.0000
  O   O76       1.0  0.60841  0.19887  0.47137  1.0000
  O   O77       1.0  0.59046  0.39159  0.47137  1.0000
  O   O78       1.0  0.80113  0.40954  0.47137  1.0000
  O   O79       1.0  0.86554  0.94174  0.36196  1.0000
  O   O80       1.0  0.05826  0.92379  0.36196  1.0000
  O   O81       1.0  0.07621  0.13446  0.36196  1.0000
  O   O82       1.0  0.27508  0.53220  0.80470  1.0000
  O   O83       1.0  0.25713  0.72492  0.80470  1.0000
  O   O84       1.0  0.46780  0.74287  0.80470  1.0000
  O   O85       1.0  0.53220  0.27508  0.69530  1.0000
  O   O86       1.0  0.72492  0.25713  0.69530  1.0000
  O   O87       1.0  0.74287  0.46780  0.69530  1.0000
  O   O88       1.0  0.94174  0.86554  0.13804  1.0000
  O   O89       1.0  0.92379  0.05826  0.13804  1.0000
  O   O90       1.0  0.13446  0.07621  0.13804  1.0000
  O   O91       1.0  0.80113  0.39159  0.97137  1.0000
  O   O92       1.0  0.60841  0.40954  0.97137  1.0000
  O   O93       1.0  0.59046  0.19887  0.97137  1.0000
  O   O94       1.0  0.39159  0.80113  0.52863  1.0000
  O   O95       1.0  0.40954  0.60841  0.52863  1.0000
  O   O96       1.0  0.19887  0.59046  0.52863  1.0000
  O   O97       1.0  0.13446  0.05826  0.63804  1.0000
  O   O98       1.0  0.94174  0.07621  0.63804  1.0000
  O   O99       1.0  0.92379  0.86554  0.63804  1.0000
  O   O100      1.0  0.72492  0.46780  0.19530  1.0000
  O   O101      1.0  0.74287  0.27508  0.19530  1.0000
  O   O102      1.0  0.53220  0.25713  0.19530  1.0000
  O   O103      1.0  0.46780  0.72492  0.30470  1.0000
  O   O104      1.0  0.27508  0.74287  0.30470  1.0000
  O   O105      1.0  0.25713  0.53220  0.30470  1.0000
  O   O106      1.0  0.05826  0.13446  0.86196  1.0000
  O   O107      1.0  0.07621  0.94174  0.86196  1.0000
  O   O108      1.0  0.86554  0.92379  0.86196  1.0000
  O   O109      1.0  0.06443  0.26534  0.05447  1.0000
  O   O110      1.0  0.73466  0.79909  0.05447  1.0000
  O   O111      1.0  0.20091  0.93557  0.05447  1.0000
  O   O112      1.0  0.26534  0.06443  0.44553  1.0000
  O   O113      1.0  0.79909  0.73466  0.44553  1.0000
  O   O114      1.0  0.93557  0.20091  0.44553  1.0000
  O   O115      1.0  0.73110  0.59867  0.38780  1.0000
  O   O116      1.0  0.40133  0.13242  0.38780  1.0000
  O   O117      1.0  0.86758  0.26890  0.38780  1.0000
  O   O118      1.0  0.93201  0.39776  0.77886  1.0000
  O   O119      1.0  0.46576  0.06799  0.77886  1.0000
  O   O120      1.0  0.60224  0.53424  0.77886  1.0000
  O   O121      1.0  0.39776  0.93201  0.72114  1.0000
  O   O122      1.0  0.06799  0.46576  0.72114  1.0000
  O   O123      1.0  0.53424  0.60224  0.72114  1.0000
  O   O124      1.0  0.59867  0.73110  0.11220  1.0000
  O   O125      1.0  0.13242  0.40133  0.11220  1.0000
  O   O126      1.0  0.26890  0.86758  0.11220  1.0000
  O   O127      1.0  0.93557  0.73466  0.94553  1.0000
  O   O128      1.0  0.26534  0.20091  0.94553  1.0000
  O   O129      1.0  0.79909  0.06443  0.94553  1.0000
  O   O130      1.0  0.73466  0.93557  0.55447  1.0000
  O   O131      1.0  0.20091  0.26534  0.55447  1.0000
  O   O132      1.0  0.06443  0.79909  0.55447  1.0000
  O   O133      1.0  0.26890  0.40133  0.61220  1.0000
  O   O134      1.0  0.59867  0.86758  0.61220  1.0000
  O   O135      1.0  0.13242  0.73110  0.61220  1.0000
  O   O136      1.0  0.06799  0.60224  0.22114  1.0000
  O   O137      1.0  0.53424  0.93201  0.22114  1.0000
  O   O138      1.0  0.39776  0.46576  0.22114  1.0000
  O   O139      1.0  0.60224  0.06799  0.27886  1.0000
  O   O140      1.0  0.93201  0.53424  0.27886  1.0000
  O   O141      1.0  0.46576  0.39776  0.27886  1.0000
  O   O142      1.0  0.40133  0.26890  0.88780  1.0000
  O   O143      1.0  0.86758  0.59867  0.88780  1.0000
  O   O144      1.0  0.73110  0.13242  0.88780  1.0000
  O   O145      1.0  0.72152  0.25655  0.02612  1.0000
  O   O146      1.0  0.74345  0.46497  0.02612  1.0000
  O   O147      1.0  0.53503  0.27848  0.02612  1.0000
  O   O148      1.0  0.25655  0.72152  0.47388  1.0000
  O   O149      1.0  0.46497  0.74345  0.47388  1.0000
  O   O150      1.0  0.27848  0.53503  0.47388  1.0000
  O   O151      1.0  0.38819  0.58988  0.35945  1.0000
  O   O152      1.0  0.41012  0.79830  0.35945  1.0000
  O   O153      1.0  0.20170  0.61181  0.35945  1.0000
  O   O154      1.0  0.92322  0.05485  0.80721  1.0000
  O   O155      1.0  0.13164  0.07678  0.80721  1.0000
  O   O156      1.0  0.94515  0.86836  0.80721  1.0000
  O   O157      1.0  0.05485  0.92322  0.69279  1.0000
  O   O158      1.0  0.07678  0.13164  0.69279  1.0000
  O   O159      1.0  0.86836  0.94515  0.69279  1.0000
  O   O160      1.0  0.58988  0.38819  0.14055  1.0000
  O   O161      1.0  0.79830  0.41012  0.14055  1.0000
  O   O162      1.0  0.61181  0.20170  0.14055  1.0000
  O   O163      1.0  0.27848  0.74345  0.97388  1.0000
  O   O164      1.0  0.25655  0.53503  0.97388  1.0000
  O   O165      1.0  0.46497  0.72152  0.97388  1.0000
  O   O166      1.0  0.74345  0.27848  0.52612  1.0000
  O   O167      1.0  0.53503  0.25655  0.52612  1.0000
  O   O168      1.0  0.72152  0.46497  0.52612  1.0000
  O   O169      1.0  0.61181  0.41012  0.64055  1.0000
  O   O170      1.0  0.58988  0.20170  0.64055  1.0000
  O   O171      1.0  0.79830  0.38819  0.64055  1.0000
  O   O172      1.0  0.07678  0.94515  0.19279  1.0000
  O   O173      1.0  0.86836  0.92322  0.19279  1.0000
  O   O174      1.0  0.05485  0.13164  0.19279  1.0000
  O   O175      1.0  0.94515  0.07678  0.30721  1.0000
  O   O176      1.0  0.92322  0.86836  0.30721  1.0000
  O   O177      1.0  0.13164  0.05485  0.30721  1.0000
  O   O178      1.0  0.41012  0.61181  0.85945  1.0000
  O   O179      1.0  0.20170  0.58988  0.85945  1.0000
  O   O180      1.0  0.38819  0.79830  0.85945  1.0000
  O   O181      1.0  0.06753  0.13406  0.02710  1.0000
  O   O182      1.0  0.86594  0.93347  0.02710  1.0000
  O   O183      1.0  0.06653  0.93247  0.02710  1.0000
  O   O184      1.0  0.13406  0.06753  0.47290  1.0000
  O   O185      1.0  0.93347  0.86594  0.47290  1.0000
  O   O186      1.0  0.93247  0.06653  0.47290  1.0000
  O   O187      1.0  0.73420  0.46739  0.36043  1.0000
  O   O188      1.0  0.53261  0.26680  0.36043  1.0000
  O   O189      1.0  0.73320  0.26580  0.36043  1.0000
  O   O190      1.0  0.80073  0.40086  0.80623  1.0000
  O   O191      1.0  0.60014  0.19927  0.80623  1.0000
  O   O192      1.0  0.59914  0.39986  0.80623  1.0000
  O   O193      1.0  0.40086  0.80073  0.69377  1.0000
  O   O194      1.0  0.19927  0.60014  0.69377  1.0000
  O   O195      1.0  0.39986  0.59914  0.69377  1.0000
  O   O196      1.0  0.46739  0.73420  0.13957  1.0000
  O   O197      1.0  0.26680  0.53261  0.13957  1.0000
  O   O198      1.0  0.26580  0.73320  0.13957  1.0000
  O   O199      1.0  0.93247  0.86594  0.97290  1.0000
  O   O200      1.0  0.13406  0.06653  0.97290  1.0000
  O   O201      1.0  0.93347  0.06753  0.97290  1.0000
  O   O202      1.0  0.86594  0.93247  0.52710  1.0000
  O   O203      1.0  0.06653  0.13406  0.52710  1.0000
  O   O204      1.0  0.06753  0.93347  0.52710  1.0000
  O   O205      1.0  0.26580  0.53261  0.63957  1.0000
  O   O206      1.0  0.46739  0.73320  0.63957  1.0000
  O   O207      1.0  0.26680  0.73420  0.63957  1.0000
  O   O208      1.0  0.19927  0.59914  0.19377  1.0000
  O   O209      1.0  0.39986  0.80073  0.19377  1.0000
  O   O210      1.0  0.40086  0.60014  0.19377  1.0000
  O   O211      1.0  0.59914  0.19927  0.30623  1.0000
  O   O212      1.0  0.80073  0.39986  0.30623  1.0000
  O   O213      1.0  0.60014  0.40086  0.30623  1.0000
  O   O214      1.0  0.53261  0.26580  0.86043  1.0000
  O   O215      1.0  0.73320  0.46739  0.86043  1.0000
  O   O216      1.0  0.73420  0.26680  0.86043  1.0000
  C   C1        1.0  0.01950  0.17871  0.03971  1.0000
  C   C2        1.0  0.82129  0.84079  0.03971  1.0000
  C   C3        1.0  0.15921  0.98050  0.03971  1.0000
  C   C4        1.0  0.17871  0.01950  0.46029  1.0000
  C   C5        1.0  0.84079  0.82129  0.46029  1.0000
  C   C6        1.0  0.98050  0.15921  0.46029  1.0000
  C   C7        1.0  0.68617  0.51204  0.37304  1.0000
  C   C8        1.0  0.48796  0.17412  0.37304  1.0000
  C   C9        1.0  0.82588  0.31383  0.37304  1.0000
  C   C10       1.0  0.84538  0.35283  0.79362  1.0000
  C   C11       1.0  0.50746  0.15462  0.79362  1.0000
  C   C12       1.0  0.64717  0.49254  0.79362  1.0000
  C   C13       1.0  0.35283  0.84538  0.70638  1.0000
  C   C14       1.0  0.15462  0.50746  0.70638  1.0000
  C   C15       1.0  0.49254  0.64717  0.70638  1.0000
  C   C16       1.0  0.51204  0.68617  0.12696  1.0000
  C   C17       1.0  0.17412  0.48796  0.12696  1.0000
  C   C18       1.0  0.31383  0.82588  0.12696  1.0000
  C   C19       1.0  0.98050  0.82129  0.96029  1.0000
  C   C20       1.0  0.17871  0.15921  0.96029  1.0000
  C   C21       1.0  0.84079  0.01950  0.96029  1.0000
  C   C22       1.0  0.82129  0.98050  0.53971  1.0000
  C   C23       1.0  0.15921  0.17871  0.53971  1.0000
  C   C24       1.0  0.01950  0.84079  0.53971  1.0000
  C   C25       1.0  0.31383  0.48796  0.62696  1.0000
  C   C26       1.0  0.51204  0.82588  0.62696  1.0000
  C   C27       1.0  0.17412  0.68617  0.62696  1.0000
  C   C28       1.0  0.15462  0.64717  0.20638  1.0000
  C   C29       1.0  0.49254  0.84538  0.20638  1.0000
  C   C30       1.0  0.35283  0.50746  0.20638  1.0000
  C   C31       1.0  0.64717  0.15462  0.29362  1.0000
  C   C32       1.0  0.84538  0.49254  0.29362  1.0000
  C   C33       1.0  0.50746  0.35283  0.29362  1.0000
  C   C34       1.0  0.48796  0.31383  0.87304  1.0000
  C   C35       1.0  0.82588  0.51204  0.87304  1.0000
  C   C36       1.0  0.68617  0.17412  0.87304  1.0000
  H   H1        1.0  0.94470  0.14380  0.03770  1.0000
  H   H2        1.0  0.85620  0.80090  0.03770  1.0000
  H   H3        1.0  0.19910  0.05530  0.03770  1.0000
  H   H4        1.0  0.14380  0.94470  0.46230  1.0000
  H   H5        1.0  0.80090  0.85620  0.46230  1.0000
  H   H6        1.0  0.05530  0.19910  0.46230  1.0000
  H   H7        1.0  0.61137  0.47713  0.37103  1.0000
  H   H8        1.0  0.52287  0.13423  0.37103  1.0000
  H   H9        1.0  0.86577  0.38863  0.37103  1.0000
  H   H10       1.0  0.81047  0.27803  0.79563  1.0000
  H   H11       1.0  0.46757  0.18953  0.79563  1.0000
  H   H12       1.0  0.72197  0.53243  0.79563  1.0000
  H   H13       1.0  0.27803  0.81047  0.70437  1.0000
  H   H14       1.0  0.18953  0.46757  0.70437  1.0000
  H   H15       1.0  0.53243  0.72197  0.70437  1.0000
  H   H16       1.0  0.47713  0.61137  0.12897  1.0000
  H   H17       1.0  0.13423  0.52287  0.12897  1.0000
  H   H18       1.0  0.38863  0.86577  0.12897  1.0000
  H   H19       1.0  0.05530  0.85620  0.96230  1.0000
  H   H20       1.0  0.14380  0.19910  0.96230  1.0000
  H   H21       1.0  0.80090  0.94470  0.96230  1.0000
  H   H22       1.0  0.85620  0.05530  0.53770  1.0000
  H   H23       1.0  0.19910  0.14380  0.53770  1.0000
  H   H24       1.0  0.94470  0.80090  0.53770  1.0000
  H   H25       1.0  0.38863  0.52287  0.62897  1.0000
  H   H26       1.0  0.47713  0.86577  0.62897  1.0000
  H   H27       1.0  0.13423  0.61137  0.62897  1.0000
  H   H28       1.0  0.18953  0.72197  0.20437  1.0000
  H   H29       1.0  0.53243  0.81047  0.20437  1.0000
  H   H30       1.0  0.27803  0.46757  0.20437  1.0000
  H   H31       1.0  0.72197  0.18953  0.29563  1.0000
  H   H32       1.0  0.81047  0.53243  0.29563  1.0000
  H   H33       1.0  0.46757  0.27803  0.29563  1.0000
  H   H34       1.0  0.52287  0.38863  0.87103  1.0000
  H   H35       1.0  0.86577  0.47713  0.87103  1.0000
  H   H36       1.0  0.61137  0.13423  0.87103  1.0000
  C   C37       1.0  0.81580  0.29889  0.03766  1.0000
  C   C38       1.0  0.70111  0.51691  0.03766  1.0000
  C   C39       1.0  0.48309  0.18420  0.03766  1.0000
  C   C40       1.0  0.29889  0.81580  0.46234  1.0000
  C   C41       1.0  0.51691  0.70111  0.46234  1.0000
  C   C42       1.0  0.18420  0.48309  0.46234  1.0000
  C   C43       1.0  0.48247  0.63222  0.37099  1.0000
  C   C44       1.0  0.36778  0.85024  0.37099  1.0000
  C   C45       1.0  0.14976  0.51753  0.37099  1.0000
  C   C46       1.0  0.96556  0.14913  0.79567  1.0000
  C   C47       1.0  0.18358  0.03444  0.79567  1.0000
  C   C48       1.0  0.85087  0.81642  0.79567  1.0000
  C   C49       1.0  0.14913  0.96556  0.70433  1.0000
  C   C50       1.0  0.03444  0.18358  0.70433  1.0000
  C   C51       1.0  0.81642  0.85087  0.70433  1.0000
  C   C52       1.0  0.63222  0.48247  0.12901  1.0000
  C   C53       1.0  0.85024  0.36778  0.12901  1.0000
  C   C54       1.0  0.51753  0.14976  0.12901  1.0000
  C   C55       1.0  0.18420  0.70111  0.96234  1.0000
  C   C56       1.0  0.29889  0.48309  0.96234  1.0000
  C   C57       1.0  0.51691  0.81580  0.96234  1.0000
  C   C58       1.0  0.70111  0.18420  0.53766  1.0000
  C   C59       1.0  0.48309  0.29889  0.53766  1.0000
  C   C60       1.0  0.81580  0.51691  0.53766  1.0000
  C   C61       1.0  0.51753  0.36778  0.62901  1.0000
  C   C62       1.0  0.63222  0.14976  0.62901  1.0000
  C   C63       1.0  0.85024  0.48247  0.62901  1.0000
  C   C64       1.0  0.03444  0.85087  0.20433  1.0000
  C   C65       1.0  0.81642  0.96556  0.20433  1.0000
  C   C66       1.0  0.14913  0.18358  0.20433  1.0000
  C   C67       1.0  0.85087  0.03444  0.29567  1.0000
  C   C68       1.0  0.96556  0.81642  0.29567  1.0000
  C   C69       1.0  0.18358  0.14913  0.29567  1.0000
  C   C70       1.0  0.36778  0.51753  0.87099  1.0000
  C   C71       1.0  0.14976  0.63222  0.87099  1.0000
  C   C72       1.0  0.48247  0.85024  0.87099  1.0000
  H   H37       1.0  0.86610  0.36840  0.03100  1.0000
  H   H38       1.0  0.63160  0.49770  0.03100  1.0000
  H   H39       1.0  0.50230  0.13390  0.03100  1.0000
  H   H40       1.0  0.36840  0.86610  0.46900  1.0000
  H   H41       1.0  0.49770  0.63160  0.46900  1.0000
  H   H42       1.0  0.13390  0.50230  0.46900  1.0000
  H   H43       1.0  0.53277  0.70173  0.36433  1.0000
  H   H44       1.0  0.29827  0.83103  0.36433  1.0000
  H   H45       1.0  0.16897  0.46723  0.36433  1.0000
  H   H46       1.0  0.03507  0.19943  0.80233  1.0000
  H   H47       1.0  0.16437  0.96493  0.80233  1.0000
  H   H48       1.0  0.80057  0.83563  0.80233  1.0000
  H   H49       1.0  0.19943  0.03507  0.69767  1.0000
  H   H50       1.0  0.96493  0.16437  0.69767  1.0000
  H   H51       1.0  0.83563  0.80057  0.69767  1.0000
  H   H52       1.0  0.70173  0.53277  0.13567  1.0000
  H   H53       1.0  0.83103  0.29827  0.13567  1.0000
  H   H54       1.0  0.46723  0.16897  0.13567  1.0000
  H   H55       1.0  0.13390  0.63160  0.96900  1.0000
  H   H56       1.0  0.36840  0.50230  0.96900  1.0000
  H   H57       1.0  0.49770  0.86610  0.96900  1.0000
  H   H58       1.0  0.63160  0.13390  0.53100  1.0000
  H   H59       1.0  0.50230  0.36840  0.53100  1.0000
  H   H60       1.0  0.86610  0.49770  0.53100  1.0000
  H   H61       1.0  0.46723  0.29827  0.63567  1.0000
  H   H62       1.0  0.70173  0.16897  0.63567  1.0000
  H   H63       1.0  0.83103  0.53277  0.63567  1.0000
  H   H64       1.0  0.96493  0.80057  0.19767  1.0000
  H   H65       1.0  0.83563  0.03507  0.19767  1.0000
  H   H66       1.0  0.19943  0.16437  0.19767  1.0000
  H   H67       1.0  0.80057  0.96493  0.30233  1.0000
  H   H68       1.0  0.03507  0.83563  0.30233  1.0000
  H   H69       1.0  0.16437  0.19943  0.30233  1.0000
  H   H70       1.0  0.29827  0.46723  0.86433  1.0000
  H   H71       1.0  0.16897  0.70173  0.86433  1.0000
  H   H72       1.0  0.53277  0.83103  0.86433  1.0000
  C   C73       1.0  0.14826  0.51493  0.04093  1.0000
  C   C74       1.0  0.48507  0.63333  0.04093  1.0000
  C   C75       1.0  0.36667  0.85174  0.04093  1.0000
  C   C76       1.0  0.51493  0.14826  0.45907  1.0000
  C   C77       1.0  0.63333  0.48507  0.45907  1.0000
  C   C78       1.0  0.85174  0.36667  0.45907  1.0000
  C   C79       1.0  0.81493  0.84826  0.37426  1.0000
  C   C80       1.0  0.15174  0.96666  0.37426  1.0000
  C   C81       1.0  0.03334  0.18507  0.37426  1.0000
  C   C82       1.0  0.18160  0.48159  0.79240  1.0000
  C   C83       1.0  0.30000  0.81840  0.79240  1.0000
  C   C84       1.0  0.51841  0.70000  0.79240  1.0000
  C   C85       1.0  0.48159  0.18160  0.70760  1.0000
  C   C86       1.0  0.81840  0.30000  0.70760  1.0000
  C   C87       1.0  0.70000  0.51841  0.70760  1.0000
  C   C88       1.0  0.84826  0.81493  0.12574  1.0000
  C   C89       1.0  0.96666  0.15174  0.12574  1.0000
  C   C90       1.0  0.18507  0.03334  0.12574  1.0000
  C   C91       1.0  0.85174  0.48507  0.95907  1.0000
  C   C92       1.0  0.51493  0.36667  0.95907  1.0000
  C   C93       1.0  0.63333  0.14826  0.95907  1.0000
  C   C94       1.0  0.48507  0.85174  0.54093  1.0000
  C   C95       1.0  0.36667  0.51493  0.54093  1.0000
  C   C96       1.0  0.14826  0.63333  0.54093  1.0000
  C   C97       1.0  0.18507  0.15174  0.62574  1.0000
  C   C98       1.0  0.84826  0.03334  0.62574  1.0000
  C   C99       1.0  0.96666  0.81493  0.62574  1.0000
  C   C100      1.0  0.81840  0.51841  0.20760  1.0000
  C   C101      1.0  0.70000  0.18160  0.20760  1.0000
  C   C102      1.0  0.48159  0.30000  0.20760  1.0000
  C   C103      1.0  0.51841  0.81840  0.29240  1.0000
  C   C104      1.0  0.18160  0.70000  0.29240  1.0000
  C   C105      1.0  0.30000  0.48159  0.29240  1.0000
  C   C106      1.0  0.15174  0.18507  0.87426  1.0000
  C   C107      1.0  0.03334  0.84826  0.87426  1.0000
  C   C108      1.0  0.81493  0.96666  0.87426  1.0000
  H   H73       1.0  0.17940  0.47150  0.03940  1.0000
  H   H74       1.0  0.52850  0.70790  0.03940  1.0000
  H   H75       1.0  0.29210  0.82060  0.03940  1.0000
  H   H76       1.0  0.47150  0.17940  0.46060  1.0000
  H   H77       1.0  0.70790  0.52850  0.46060  1.0000
  H   H78       1.0  0.82060  0.29210  0.46060  1.0000
  H   H79       1.0  0.84607  0.80483  0.37273  1.0000
  H   H80       1.0  0.19517  0.04123  0.37273  1.0000
  H   H81       1.0  0.95877  0.15393  0.37273  1.0000
  H   H82       1.0  0.13817  0.51273  0.79393  1.0000
  H   H83       1.0  0.37457  0.86183  0.79393  1.0000
  H   H84       1.0  0.48727  0.62543  0.79393  1.0000
  H   H85       1.0  0.51273  0.13817  0.70607  1.0000
  H   H86       1.0  0.86183  0.37457  0.70607  1.0000
  H   H87       1.0  0.62543  0.48727  0.70607  1.0000
  H   H88       1.0  0.80483  0.84607  0.12727  1.0000
  H   H89       1.0  0.04123  0.19517  0.12727  1.0000
  H   H90       1.0  0.15393  0.95877  0.12727  1.0000
  H   H91       1.0  0.82060  0.52850  0.96060  1.0000
  H   H92       1.0  0.47150  0.29210  0.96060  1.0000
  H   H93       1.0  0.70790  0.17940  0.96060  1.0000
  H   H94       1.0  0.52850  0.82060  0.53940  1.0000
  H   H95       1.0  0.29210  0.47150  0.53940  1.0000
  H   H96       1.0  0.17940  0.70790  0.53940  1.0000
  H   H97       1.0  0.15393  0.19517  0.62727  1.0000
  H   H98       1.0  0.80483  0.95877  0.62727  1.0000
  H   H99       1.0  0.04123  0.84607  0.62727  1.0000
  H   H100      1.0  0.86183  0.48727  0.20607  1.0000
  H   H101      1.0  0.62543  0.13817  0.20607  1.0000
  H   H102      1.0  0.51273  0.37457  0.20607  1.0000
  H   H103      1.0  0.48727  0.86183  0.29393  1.0000
  H   H104      1.0  0.13817  0.62543  0.29393  1.0000
  H   H105      1.0  0.37457  0.51273  0.29393  1.0000
  H   H106      1.0  0.19517  0.15393  0.87273  1.0000
  H   H107      1.0  0.95877  0.80483  0.87273  1.0000
  H   H108      1.0  0.84607  0.04123  0.87273  1.0000
