data_image0
_chemical_formula_structural       Fe24O68C4H4O8C4H4O12C4H4O4C4H4O24C4H4C4H4C4H4O8C4H4O8C4H4C4H4O4C4H4O4C4H4C4H4C4H4C4H4C4H4O4C4H4C4H4
_chemical_formula_sum              "Fe24 O144 C72 H72"
_cell_length_a       8.353
_cell_length_b       14.119
_cell_length_c       36.091
_cell_angle_alpha    90
_cell_angle_beta     90.681
_cell_angle_gamma    90

_space_group_name_H-M_alt    "P 1"
_space_group_IT_number       1

loop_
  _space_group_symop_operation_xyz
  'x, y, z'

loop_
  _atom_site_type_symbol
  _atom_site_label
  _atom_site_symmetry_multiplicity
  _atom_site_fract_x
  _atom_site_fract_y
  _atom_site_fract_z
  _atom_site_occupancy
  Fe  Fe1       1.0  0.18410  0.26350  0.33265  1.0000
  Fe  Fe2       1.0  0.81590  0.76350  0.16735  1.0000
  Fe  Fe3       1.0  0.81590  0.73650  0.66735  1.0000
  Fe  Fe4       1.0  0.18410  0.23650  0.83265  1.0000
  Fe  Fe5       1.0  0.23170  0.24738  0.49687  1.0000
  Fe  Fe6       1.0  0.76830  0.74738  0.00313  1.0000
  Fe  Fe7       1.0  0.76830  0.75262  0.50313  1.0000
  Fe  Fe8       1.0  0.23170  0.25262  0.99687  1.0000
  Fe  Fe9       1.0  0.73760  0.43320  0.25568  1.0000
  Fe  Fe10      1.0  0.26240  0.93320  0.24432  1.0000
  Fe  Fe11      1.0  0.26240  0.56680  0.74432  1.0000
  Fe  Fe12      1.0  0.73760  0.06680  0.75568  1.0000
  Fe  Fe13      1.0  0.71730  0.09430  0.40606  1.0000
  Fe  Fe14      1.0  0.28270  0.59430  0.09394  1.0000
  Fe  Fe15      1.0  0.28270  0.90570  0.59394  1.0000
  Fe  Fe16      1.0  0.71730  0.40570  0.90606  1.0000
  Fe  Fe17      1.0  0.26530  0.59260  0.41047  1.0000
  Fe  Fe18      1.0  0.73470  0.09260  0.08953  1.0000
  Fe  Fe19      1.0  0.73470  0.40740  0.58953  1.0000
  Fe  Fe20      1.0  0.26530  0.90740  0.91047  1.0000
  Fe  Fe21      1.0  0.74180  0.78510  0.32542  1.0000
  Fe  Fe22      1.0  0.25820  0.28510  0.17458  1.0000
  Fe  Fe23      1.0  0.25820  0.21490  0.67458  1.0000
  Fe  Fe24      1.0  0.74180  0.71490  0.82542  1.0000
  O   O1        1.0  0.31600  0.34980  0.52980  1.0000
  O   O2        1.0  0.68400  0.84980  0.97020  1.0000
  O   O3        1.0  0.68400  0.65020  0.47020  1.0000
  O   O4        1.0  0.31600  0.15020  0.02980  1.0000
  O   O5        1.0  0.13400  0.35050  0.46660  1.0000
  O   O6        1.0  0.86600  0.85050  0.03340  1.0000
  O   O7        1.0  0.86600  0.64950  0.53340  1.0000
  O   O8        1.0  0.13400  0.14950  0.96660  1.0000
  O   O9        1.0  0.09400  0.36810  0.30500  1.0000
  O   O10       1.0  0.90600  0.86810  0.19500  1.0000
  O   O11       1.0  0.90600  0.63190  0.69500  1.0000
  O   O12       1.0  0.09400  0.13190  0.80500  1.0000
  O   O13       1.0  0.37300  0.94690  0.29730  1.0000
  O   O14       1.0  0.62700  0.44690  0.20270  1.0000
  O   O15       1.0  0.62700  0.05310  0.70270  1.0000
  O   O16       1.0  0.37300  0.55310  0.79730  1.0000
  O   O17       1.0  0.38000  0.26380  0.30390  1.0000
  O   O18       1.0  0.62000  0.76380  0.19610  1.0000
  O   O19       1.0  0.62000  0.73620  0.69610  1.0000
  O   O20       1.0  0.38000  0.23620  0.80390  1.0000
  O   O21       1.0  0.27200  0.36180  0.36850  1.0000
  O   O22       1.0  0.72800  0.86180  0.13150  1.0000
  O   O23       1.0  0.72800  0.63820  0.63150  1.0000
  O   O24       1.0  0.27200  0.13820  0.86850  1.0000
  O   O25       1.0  0.13300  0.49250  0.43880  1.0000
  O   O26       1.0  0.86700  0.99250  0.06120  1.0000
  O   O27       1.0  0.86700  0.50750  0.56120  1.0000
  O   O28       1.0  0.13300  0.00750  0.93880  1.0000
  O   O29       1.0  0.60200  0.68370  0.30000  1.0000
  O   O30       1.0  0.39800  0.18370  0.20000  1.0000
  O   O31       1.0  0.39800  0.31630  0.70000  1.0000
  O   O32       1.0  0.60200  0.81630  0.80000  1.0000
  O   O33       1.0  0.89000  0.77000  0.28470  1.0000
  O   O34       1.0  0.11000  0.27000  0.21530  1.0000
  O   O35       1.0  0.11000  0.23000  0.71530  1.0000
  O   O36       1.0  0.89000  0.73000  0.78470  1.0000
  O   O37       1.0  0.26500  0.15680  0.36530  1.0000
  O   O38       1.0  0.73500  0.65680  0.13470  1.0000
  O   O39       1.0  0.73500  0.84320  0.63470  1.0000
  O   O40       1.0  0.26500  0.34320  0.86530  1.0000
  O   O41       1.0  0.04400  0.23930  0.52680  1.0000
  O   O42       1.0  0.95600  0.73930  0.97320  1.0000
  O   O43       1.0  0.95600  0.76070  0.47320  1.0000
  O   O44       1.0  0.04400  0.26070  0.02680  1.0000
  O   O45       1.0  0.42700  0.25890  0.46790  1.0000
  O   O46       1.0  0.57300  0.75890  0.03210  1.0000
  O   O47       1.0  0.57300  0.74110  0.53210  1.0000
  O   O48       1.0  0.42700  0.24110  0.96790  1.0000
  O   O49       1.0  0.86000  0.44470  0.30760  1.0000
  O   O50       1.0  0.14000  0.94470  0.19240  1.0000
  O   O51       1.0  0.14000  0.55530  0.69240  1.0000
  O   O52       1.0  0.86000  0.05530  0.80760  1.0000
  O   O53       1.0  0.39900  0.50010  0.37720  1.0000
  O   O54       1.0  0.60100  0.00010  0.12280  1.0000
  O   O55       1.0  0.60100  0.49990  0.62280  1.0000
  O   O56       1.0  0.39900  0.99990  0.87720  1.0000
  O   O57       1.0  0.59100  0.78880  0.36770  1.0000
  O   O58       1.0  0.40900  0.28880  0.13230  1.0000
  O   O59       1.0  0.40900  0.21120  0.63230  1.0000
  O   O60       1.0  0.59100  0.71120  0.86770  1.0000
  O   O61       1.0  0.36000  0.01340  0.55800  1.0000
  O   O62       1.0  0.64000  0.51340  0.94200  1.0000
  O   O63       1.0  0.64000  0.98660  0.44200  1.0000
  O   O64       1.0  0.36000  0.48660  0.05800  1.0000
  O   O65       1.0  0.58400  0.54070  0.27630  1.0000
  O   O66       1.0  0.41600  0.04070  0.22370  1.0000
  O   O67       1.0  0.41600  0.45930  0.72370  1.0000
  O   O68       1.0  0.58400  0.95930  0.77630  1.0000
  C   C1        1.0  0.98100  0.82910  0.27070  1.0000
  C   C2        1.0  0.01900  0.32910  0.22930  1.0000
  C   C3        1.0  0.01900  0.17090  0.72930  1.0000
  C   C4        1.0  0.98100  0.67090  0.77070  1.0000
  H   H1        1.0  0.93528  0.88837  0.26653  1.0000
  H   H2        1.0  0.06472  0.38837  0.23347  1.0000
  H   H3        1.0  0.06472  0.11163  0.73347  1.0000
  H   H4        1.0  0.93528  0.61163  0.76653  1.0000
  O   O69       1.0  0.14800  0.14760  0.46310  1.0000
  O   O70       1.0  0.85200  0.64760  0.03690  1.0000
  O   O71       1.0  0.85200  0.85240  0.53690  1.0000
  O   O72       1.0  0.14800  0.35240  0.96310  1.0000
  O   O73       1.0  0.34000  0.14890  0.52740  1.0000
  O   O74       1.0  0.66000  0.64890  0.97260  1.0000
  O   O75       1.0  0.66000  0.85110  0.47260  1.0000
  O   O76       1.0  0.34000  0.35110  0.02740  1.0000
  C   C5        1.0  0.00800  0.42860  0.32020  1.0000
  C   C6        1.0  0.99200  0.92860  0.17980  1.0000
  C   C7        1.0  0.99200  0.57140  0.67980  1.0000
  C   C8        1.0  0.00800  0.07140  0.82020  1.0000
  H   H5        1.0  0.04708  0.46266  0.34037  1.0000
  H   H6        1.0  0.95292  0.96266  0.15963  1.0000
  H   H7        1.0  0.95292  0.53734  0.65963  1.0000
  H   H8        1.0  0.04708  0.03734  0.84037  1.0000
  O   O77       1.0  0.99100  0.25710  0.36440  1.0000
  O   O78       1.0  0.00900  0.75710  0.13560  1.0000
  O   O79       1.0  0.00900  0.74290  0.63560  1.0000
  O   O80       1.0  0.99100  0.24290  0.86440  1.0000
  O   O81       1.0  0.38100  0.71460  0.39010  1.0000
  O   O82       1.0  0.61900  0.21460  0.10990  1.0000
  O   O83       1.0  0.61900  0.28540  0.60990  1.0000
  O   O84       1.0  0.38100  0.78540  0.89010  1.0000
  O   O85       1.0  0.52500  0.42850  0.55350  1.0000
  O   O86       1.0  0.47500  0.92850  0.94650  1.0000
  O   O87       1.0  0.47500  0.57150  0.44650  1.0000
  O   O88       1.0  0.52500  0.07150  0.05350  1.0000
  C   C9        1.0  0.96100  0.30590  0.54040  1.0000
  C   C10       1.0  0.03900  0.80590  0.95960  1.0000
  C   C11       1.0  0.03900  0.69410  0.45960  1.0000
  C   C12       1.0  0.96100  0.19410  0.04040  1.0000
  H   H9        1.0  0.00834  0.36556  0.54095  1.0000
  H   H10       1.0  0.99166  0.86556  0.95905  1.0000
  H   H11       1.0  0.99166  0.63444  0.45905  1.0000
  H   H12       1.0  0.00834  0.13444  0.04095  1.0000
  O   O89       1.0  0.06500  0.60700  0.37750  1.0000
  O   O90       1.0  0.93500  0.10700  0.12250  1.0000
  O   O91       1.0  0.93500  0.39300  0.62250  1.0000
  O   O92       1.0  0.06500  0.89300  0.87750  1.0000
  C   C13       1.0  0.85600  0.24000  0.35110  1.0000
  C   C14       1.0  0.14400  0.74000  0.14890  1.0000
  C   C15       1.0  0.14400  0.76000  0.64890  1.0000
  C   C16       1.0  0.85600  0.26000  0.85110  1.0000
  H   H13       1.0  0.83781  0.25264  0.32606  1.0000
  H   H14       1.0  0.16219  0.75264  0.17394  1.0000
  H   H15       1.0  0.16219  0.74736  0.67394  1.0000
  H   H16       1.0  0.83781  0.24736  0.82606  1.0000
  O   O93       1.0  0.82300  0.29990  0.55320  1.0000
  O   O94       1.0  0.17700  0.79990  0.94680  1.0000
  O   O95       1.0  0.17700  0.70010  0.44680  1.0000
  O   O96       1.0  0.82300  0.20010  0.05320  1.0000
  O   O97       1.0  0.58900  0.32120  0.27500  1.0000
  O   O98       1.0  0.41100  0.82120  0.22500  1.0000
  O   O99       1.0  0.41100  0.67880  0.72500  1.0000
  O   O100      1.0  0.58900  0.17880  0.77500  1.0000
  O   O101      1.0  0.60800  0.87840  0.29960  1.0000
  O   O102      1.0  0.39200  0.37840  0.20040  1.0000
  O   O103      1.0  0.39200  0.12160  0.70040  1.0000
  O   O104      1.0  0.60800  0.62160  0.79960  1.0000
  O   O105      1.0  0.94600  0.08530  0.42930  1.0000
  O   O106      1.0  0.05400  0.58530  0.07070  1.0000
  O   O107      1.0  0.05400  0.91470  0.57070  1.0000
  O   O108      1.0  0.94600  0.41470  0.92930  1.0000
  O   O109      1.0  0.65300  0.20260  0.44370  1.0000
  O   O110      1.0  0.34700  0.70260  0.05630  1.0000
  O   O111      1.0  0.34700  0.79740  0.55630  1.0000
  O   O112      1.0  0.65300  0.29740  0.94370  1.0000
  O   O113      1.0  0.10600  0.04050  0.26440  1.0000
  O   O114      1.0  0.89400  0.54050  0.23560  1.0000
  O   O115      1.0  0.89400  0.95950  0.73560  1.0000
  O   O116      1.0  0.10600  0.45950  0.76440  1.0000
  C   C17       1.0  0.51600  0.19500  0.45880  1.0000
  C   C18       1.0  0.48400  0.69500  0.04120  1.0000
  C   C19       1.0  0.48400  0.80500  0.54120  1.0000
  C   C20       1.0  0.51600  0.30500  0.95880  1.0000
  H   H17       1.0  0.48026  0.13330  0.46322  1.0000
  H   H18       1.0  0.51974  0.63330  0.03678  1.0000
  H   H19       1.0  0.51974  0.86670  0.53678  1.0000
  H   H20       1.0  0.48026  0.36670  0.96322  1.0000
  C   C21       1.0  0.37900  0.42000  0.36250  1.0000
  C   C22       1.0  0.62100  0.92000  0.13750  1.0000
  C   C23       1.0  0.62100  0.58000  0.63750  1.0000
  C   C24       1.0  0.37900  0.08000  0.86250  1.0000
  H   H21       1.0  0.45378  0.40317  0.34487  1.0000
  H   H22       1.0  0.54622  0.90317  0.15513  1.0000
  H   H23       1.0  0.54622  0.59683  0.65513  1.0000
  H   H24       1.0  0.45378  0.09683  0.84487  1.0000
  C   C25       1.0  0.89000  0.96700  0.35230  1.0000
  C   C26       1.0  0.11000  0.46700  0.14770  1.0000
  C   C27       1.0  0.11000  0.03300  0.64770  1.0000
  C   C28       1.0  0.89000  0.53300  0.85230  1.0000
  H   H25       1.0  0.97330  0.00982  0.34890  1.0000
  H   H26       1.0  0.02670  0.50982  0.15110  1.0000
  H   H27       1.0  0.02670  0.99018  0.65110  1.0000
  H   H28       1.0  0.97330  0.49018  0.84890  1.0000
  O   O117      1.0  0.89900  0.88410  0.34300  1.0000
  O   O118      1.0  0.10100  0.38410  0.15700  1.0000
  O   O119      1.0  0.10100  0.11590  0.65700  1.0000
  O   O120      1.0  0.89900  0.61590  0.84300  1.0000
  O   O121      1.0  0.07900  0.16650  0.29990  1.0000
  O   O122      1.0  0.92100  0.66650  0.20010  1.0000
  O   O123      1.0  0.92100  0.83350  0.70010  1.0000
  O   O124      1.0  0.07900  0.33350  0.79990  1.0000
  C   C29       1.0  0.51000  0.71570  0.37590  1.0000
  C   C30       1.0  0.49000  0.21570  0.12410  1.0000
  C   C31       1.0  0.49000  0.28430  0.62410  1.0000
  C   C32       1.0  0.51000  0.78430  0.87590  1.0000
  H   H29       1.0  0.55520  0.65736  0.37034  1.0000
  H   H30       1.0  0.44480  0.15736  0.12966  1.0000
  H   H31       1.0  0.44480  0.34264  0.62966  1.0000
  H   H32       1.0  0.55520  0.84264  0.87034  1.0000
  O   O125      1.0  0.75700  0.99210  0.36700  1.0000
  O   O126      1.0  0.24300  0.49210  0.13300  1.0000
  O   O127      1.0  0.24300  0.00790  0.63300  1.0000
  O   O128      1.0  0.75700  0.50790  0.86700  1.0000
  O   O129      1.0  0.11900  0.82210  0.26150  1.0000
  O   O130      1.0  0.88100  0.32210  0.23850  1.0000
  O   O131      1.0  0.88100  0.17790  0.73850  1.0000
  O   O132      1.0  0.11900  0.67790  0.76150  1.0000
  C   C33       1.0  0.15700  0.10880  0.28220  1.0000
  C   C34       1.0  0.84300  0.60880  0.21780  1.0000
  C   C35       1.0  0.84300  0.89120  0.71780  1.0000
  C   C36       1.0  0.15700  0.39120  0.78220  1.0000
  H   H33       1.0  0.26686  0.11761  0.28224  1.0000
  H   H34       1.0  0.73314  0.61761  0.21776  1.0000
  H   H35       1.0  0.73314  0.88239  0.71776  1.0000
  H   H36       1.0  0.26686  0.38239  0.78224  1.0000
  C   C37       1.0  0.44200  0.32070  0.28310  1.0000
  C   C38       1.0  0.55800  0.82070  0.21690  1.0000
  C   C39       1.0  0.55800  0.67930  0.71690  1.0000
  C   C40       1.0  0.44200  0.17930  0.78310  1.0000
  H   H37       1.0  0.37692  0.36694  0.27245  1.0000
  H   H38       1.0  0.62308  0.86694  0.22755  1.0000
  H   H39       1.0  0.62308  0.63306  0.72755  1.0000
  H   H40       1.0  0.37692  0.13306  0.77245  1.0000
  O   O133      1.0  0.47200  0.08090  0.38900  1.0000
  O   O134      1.0  0.52800  0.58090  0.11100  1.0000
  O   O135      1.0  0.52800  0.91910  0.61100  1.0000
  O   O136      1.0  0.47200  0.41910  0.88900  1.0000
  C   C41       1.0  0.50200  0.92700  0.31370  1.0000
  C   C42       1.0  0.49800  0.42700  0.18630  1.0000
  C   C43       1.0  0.49800  0.07300  0.68630  1.0000
  C   C44       1.0  0.50200  0.57300  0.81370  1.0000
  H   H41       1.0  0.51929  0.94984  0.33761  1.0000
  H   H42       1.0  0.48071  0.44984  0.16239  1.0000
  H   H43       1.0  0.48071  0.05016  0.66239  1.0000
  H   H44       1.0  0.51929  0.55016  0.83761  1.0000
  O   O137      1.0  0.74600  0.20730  0.36870  1.0000
  O   O138      1.0  0.25400  0.70730  0.13130  1.0000
  O   O139      1.0  0.25400  0.79270  0.63130  1.0000
  O   O140      1.0  0.74600  0.29270  0.86870  1.0000
  C   C45       1.0  0.65100  0.60300  0.29580  1.0000
  C   C46       1.0  0.34900  0.10300  0.20420  1.0000
  C   C47       1.0  0.34900  0.39700  0.70420  1.0000
  C   C48       1.0  0.65100  0.89700  0.79580  1.0000
  H   H45       1.0  0.74545  0.58637  0.30804  1.0000
  H   H46       1.0  0.25455  0.08637  0.19196  1.0000
  H   H47       1.0  0.25455  0.41363  0.69196  1.0000
  H   H48       1.0  0.74545  0.91363  0.80804  1.0000
  C   C49       1.0  0.27700  0.08240  0.54460  1.0000
  C   C50       1.0  0.72300  0.58240  0.95540  1.0000
  C   C51       1.0  0.72300  0.91760  0.45540  1.0000
  C   C52       1.0  0.27700  0.41760  0.04460  1.0000
  H   H49       1.0  0.16700  0.08249  0.54797  1.0000
  H   H50       1.0  0.83300  0.58249  0.95203  1.0000
  H   H51       1.0  0.83300  0.91751  0.45203  1.0000
  H   H52       1.0  0.16700  0.41751  0.04797  1.0000
  C   C53       1.0  0.20300  0.41650  0.45210  1.0000
  C   C54       1.0  0.79700  0.91650  0.04790  1.0000
  C   C55       1.0  0.79700  0.58350  0.54790  1.0000
  C   C56       1.0  0.20300  0.08350  0.95210  1.0000
  H   H53       1.0  0.31400  0.41271  0.45027  1.0000
  H   H54       1.0  0.68600  0.91271  0.04973  1.0000
  H   H55       1.0  0.68600  0.58729  0.54973  1.0000
  H   H56       1.0  0.31400  0.08729  0.95027  1.0000
  C   C57       1.0  0.40300  0.14800  0.37030  1.0000
  C   C58       1.0  0.59700  0.64800  0.12970  1.0000
  C   C59       1.0  0.59700  0.85200  0.62970  1.0000
  C   C60       1.0  0.40300  0.35200  0.87030  1.0000
  H   H57       1.0  0.46895  0.19334  0.35990  1.0000
  H   H58       1.0  0.53105  0.69334  0.14010  1.0000
  H   H59       1.0  0.53105  0.80666  0.64010  1.0000
  H   H60       1.0  0.46895  0.30666  0.85990  1.0000
  C   C61       1.0  0.99200  0.67710  0.36450  1.0000
  C   C62       1.0  0.00800  0.17710  0.13550  1.0000
  C   C63       1.0  0.00800  0.32290  0.63550  1.0000
  C   C64       1.0  0.99200  0.82290  0.86450  1.0000
  H   H61       1.0  0.05404  0.73119  0.36219  1.0000
  H   H62       1.0  0.94596  0.23119  0.13781  1.0000
  H   H63       1.0  0.94596  0.26881  0.63781  1.0000
  H   H64       1.0  0.05404  0.76881  0.86219  1.0000
  O   O141      1.0  0.86100  0.68680  0.35480  1.0000
  O   O142      1.0  0.13900  0.18680  0.14520  1.0000
  O   O143      1.0  0.13900  0.31320  0.64520  1.0000
  O   O144      1.0  0.86100  0.81320  0.85480  1.0000
  C   C65       1.0  0.46800  0.35670  0.53940  1.0000
  C   C66       1.0  0.53200  0.85670  0.96060  1.0000
  C   C67       1.0  0.53200  0.64330  0.46060  1.0000
  C   C68       1.0  0.46800  0.14330  0.03940  1.0000
  H   H65       1.0  0.53533  0.30525  0.53524  1.0000
  H   H66       1.0  0.46467  0.80525  0.96476  1.0000
  H   H67       1.0  0.46467  0.69475  0.46476  1.0000
  H   H68       1.0  0.53533  0.19475  0.03524  1.0000
  C   C69       1.0  0.01800  0.15310  0.44350  1.0000
  C   C70       1.0  0.98200  0.65310  0.05650  1.0000
  C   C71       1.0  0.98200  0.84690  0.55650  1.0000
  C   C72       1.0  0.01800  0.34690  0.94350  1.0000
  H   H69       1.0  0.97491  0.21313  0.43966  1.0000
  H   H70       1.0  0.02509  0.71313  0.06034  1.0000
  H   H71       1.0  0.02509  0.78687  0.56034  1.0000
  H   H72       1.0  0.97491  0.28687  0.93966  1.0000
