data_image0
_chemical_formula_structural       Fe18O108C108O36H36O36H36O36H36Fe18
_chemical_formula_sum              "Fe36 O216 C108 H108"
_cell_length_a       14.2991
_cell_length_b       14.2991
_cell_length_c       41.5361
_cell_angle_alpha    90
_cell_angle_beta     90
_cell_angle_gamma    120

_space_group_name_H-M_alt    "P 1"
_space_group_IT_number       1

loop_
  _space_group_symop_operation_xyz
  'x, y, z'

loop_
  _atom_site_type_symbol
  _atom_site_label
  _atom_site_symmetry_multiplicity
  _atom_site_fract_x
  _atom_site_fract_y
  _atom_site_fract_z
  _atom_site_occupancy
  Fe  Fe1       1.0  0.99450  0.33330  0.08330  1.0000
  Fe  Fe2       1.0  0.66670  0.66120  0.08330  1.0000
  Fe  Fe3       1.0  0.33880  0.00550  0.08330  1.0000
  Fe  Fe4       1.0  0.33330  0.99450  0.41670  1.0000
  Fe  Fe5       1.0  0.66120  0.66670  0.41670  1.0000
  Fe  Fe6       1.0  0.00550  0.33880  0.41670  1.0000
  Fe  Fe7       1.0  0.99997  0.32783  0.75003  1.0000
  Fe  Fe8       1.0  0.32787  0.00003  0.75003  1.0000
  Fe  Fe9       1.0  0.67217  0.67213  0.75003  1.0000
  Fe  Fe10      1.0  0.00550  0.66670  0.91670  1.0000
  Fe  Fe11      1.0  0.33330  0.33880  0.91670  1.0000
  Fe  Fe12      1.0  0.66120  0.99450  0.91670  1.0000
  Fe  Fe13      1.0  0.66670  0.00550  0.58330  1.0000
  Fe  Fe14      1.0  0.33880  0.33330  0.58330  1.0000
  Fe  Fe15      1.0  0.99450  0.66120  0.58330  1.0000
  Fe  Fe16      1.0  0.00003  0.67217  0.24997  1.0000
  Fe  Fe17      1.0  0.67213  0.99997  0.24997  1.0000
  Fe  Fe18      1.0  0.32783  0.32787  0.24997  1.0000
  O   O1        1.0  0.06098  0.47715  0.05487  1.0000
  O   O2        1.0  0.52285  0.58383  0.05487  1.0000
  O   O3        1.0  0.41617  0.93902  0.05487  1.0000
  O   O4        1.0  0.47715  0.06098  0.44513  1.0000
  O   O5        1.0  0.58383  0.52285  0.44513  1.0000
  O   O6        1.0  0.93902  0.41617  0.44513  1.0000
  O   O7        1.0  0.72765  0.81048  0.38820  1.0000
  O   O8        1.0  0.18952  0.91716  0.38820  1.0000
  O   O9        1.0  0.08284  0.27235  0.38820  1.0000
  O   O10       1.0  0.14382  0.39431  0.77846  1.0000
  O   O11       1.0  0.25050  0.85618  0.77846  1.0000
  O   O12       1.0  0.60569  0.74950  0.77846  1.0000
  O   O13       1.0  0.39431  0.14382  0.72154  1.0000
  O   O14       1.0  0.85618  0.25050  0.72154  1.0000
  O   O15       1.0  0.74950  0.60569  0.72154  1.0000
  O   O16       1.0  0.81048  0.72765  0.11180  1.0000
  O   O17       1.0  0.91716  0.18952  0.11180  1.0000
  O   O18       1.0  0.27235  0.08284  0.11180  1.0000
  O   O19       1.0  0.93902  0.52285  0.94513  1.0000
  O   O20       1.0  0.47715  0.41617  0.94513  1.0000
  O   O21       1.0  0.58383  0.06098  0.94513  1.0000
  O   O22       1.0  0.52285  0.93902  0.55487  1.0000
  O   O23       1.0  0.41617  0.47715  0.55487  1.0000
  O   O24       1.0  0.06098  0.58383  0.55487  1.0000
  O   O25       1.0  0.27235  0.18952  0.61180  1.0000
  O   O26       1.0  0.81048  0.08284  0.61180  1.0000
  O   O27       1.0  0.91716  0.72765  0.61180  1.0000
  O   O28       1.0  0.85618  0.60569  0.22154  1.0000
  O   O29       1.0  0.74950  0.14382  0.22154  1.0000
  O   O30       1.0  0.39431  0.25050  0.22154  1.0000
  O   O31       1.0  0.60569  0.85618  0.27846  1.0000
  O   O32       1.0  0.14382  0.74950  0.27846  1.0000
  O   O33       1.0  0.25050  0.39431  0.27846  1.0000
  O   O34       1.0  0.18952  0.27235  0.88820  1.0000
  O   O35       1.0  0.08284  0.81048  0.88820  1.0000
  O   O36       1.0  0.72765  0.91716  0.88820  1.0000
  O   O37       1.0  0.84665  0.25390  0.05717  1.0000
  O   O38       1.0  0.74610  0.59275  0.05717  1.0000
  O   O39       1.0  0.40725  0.15335  0.05717  1.0000
  O   O40       1.0  0.25390  0.84665  0.44283  1.0000
  O   O41       1.0  0.59275  0.74610  0.44283  1.0000
  O   O42       1.0  0.15335  0.40725  0.44283  1.0000
  O   O43       1.0  0.51332  0.58723  0.39050  1.0000
  O   O44       1.0  0.41277  0.92608  0.39050  1.0000
  O   O45       1.0  0.07392  0.48668  0.39050  1.0000
  O   O46       1.0  0.92057  0.17998  0.77616  1.0000
  O   O47       1.0  0.25942  0.07943  0.77616  1.0000
  O   O48       1.0  0.82002  0.74058  0.77616  1.0000
  O   O49       1.0  0.17998  0.92057  0.72384  1.0000
  O   O50       1.0  0.07943  0.25942  0.72384  1.0000
  O   O51       1.0  0.74058  0.82002  0.72384  1.0000
  O   O52       1.0  0.58723  0.51332  0.10950  1.0000
  O   O53       1.0  0.92608  0.41277  0.10950  1.0000
  O   O54       1.0  0.48668  0.07392  0.10950  1.0000
  O   O55       1.0  0.15335  0.74610  0.94283  1.0000
  O   O56       1.0  0.25390  0.40725  0.94283  1.0000
  O   O57       1.0  0.59275  0.84665  0.94283  1.0000
  O   O58       1.0  0.74610  0.15335  0.55717  1.0000
  O   O59       1.0  0.40725  0.25390  0.55717  1.0000
  O   O60       1.0  0.84665  0.59275  0.55717  1.0000
  O   O61       1.0  0.48668  0.41277  0.60950  1.0000
  O   O62       1.0  0.58723  0.07392  0.60950  1.0000
  O   O63       1.0  0.92608  0.51332  0.60950  1.0000
  O   O64       1.0  0.07943  0.82002  0.22384  1.0000
  O   O65       1.0  0.74058  0.92057  0.22384  1.0000
  O   O66       1.0  0.17998  0.25942  0.22384  1.0000
  O   O67       1.0  0.82002  0.07943  0.27616  1.0000
  O   O68       1.0  0.92057  0.74058  0.27616  1.0000
  O   O69       1.0  0.25942  0.17998  0.27616  1.0000
  O   O70       1.0  0.41277  0.48668  0.89050  1.0000
  O   O71       1.0  0.07392  0.58723  0.89050  1.0000
  O   O72       1.0  0.51332  0.92608  0.89050  1.0000
  O   O73       1.0  0.13358  0.40137  0.11207  1.0000
  O   O74       1.0  0.59863  0.73221  0.11207  1.0000
  O   O75       1.0  0.26779  0.86642  0.11207  1.0000
  O   O76       1.0  0.40137  0.13358  0.38793  1.0000
  O   O77       1.0  0.73221  0.59863  0.38793  1.0000
  O   O78       1.0  0.86642  0.26779  0.38793  1.0000
  O   O79       1.0  0.80025  0.73470  0.44540  1.0000
  O   O80       1.0  0.26530  0.06554  0.44540  1.0000
  O   O81       1.0  0.93446  0.19975  0.44540  1.0000
  O   O82       1.0  0.06804  0.46691  0.72126  1.0000
  O   O83       1.0  0.39888  0.93196  0.72126  1.0000
  O   O84       1.0  0.53309  0.60112  0.72126  1.0000
  O   O85       1.0  0.46691  0.06804  0.77874  1.0000
  O   O86       1.0  0.93196  0.39888  0.77874  1.0000
  O   O87       1.0  0.60112  0.53309  0.77874  1.0000
  O   O88       1.0  0.73470  0.80025  0.05460  1.0000
  O   O89       1.0  0.06554  0.26530  0.05460  1.0000
  O   O90       1.0  0.19975  0.93446  0.05460  1.0000
  O   O91       1.0  0.86642  0.59863  0.88793  1.0000
  O   O92       1.0  0.40137  0.26779  0.88793  1.0000
  O   O93       1.0  0.73221  0.13358  0.88793  1.0000
  O   O94       1.0  0.59863  0.86642  0.61207  1.0000
  O   O95       1.0  0.26779  0.40137  0.61207  1.0000
  O   O96       1.0  0.13358  0.73221  0.61207  1.0000
  O   O97       1.0  0.19975  0.26530  0.55460  1.0000
  O   O98       1.0  0.73470  0.93446  0.55460  1.0000
  O   O99       1.0  0.06554  0.80025  0.55460  1.0000
  O   O100      1.0  0.93196  0.53309  0.27874  1.0000
  O   O101      1.0  0.60112  0.06804  0.27874  1.0000
  O   O102      1.0  0.46691  0.39888  0.27874  1.0000
  O   O103      1.0  0.53309  0.93196  0.22126  1.0000
  O   O104      1.0  0.06804  0.60112  0.22126  1.0000
  O   O105      1.0  0.39888  0.46691  0.22126  1.0000
  O   O106      1.0  0.26530  0.19975  0.94540  1.0000
  O   O107      1.0  0.93446  0.73470  0.94540  1.0000
  O   O108      1.0  0.80025  0.06554  0.94540  1.0000
  C   C1        1.0  0.14856  0.51478  0.04077  1.0000
  C   C2        1.0  0.48522  0.63378  0.04077  1.0000
  C   C3        1.0  0.36622  0.85144  0.04077  1.0000
  C   C4        1.0  0.51478  0.14856  0.45923  1.0000
  C   C5        1.0  0.63378  0.48522  0.45923  1.0000
  C   C6        1.0  0.85144  0.36622  0.45923  1.0000
  C   C7        1.0  0.81523  0.84811  0.37410  1.0000
  C   C8        1.0  0.15189  0.96711  0.37410  1.0000
  C   C9        1.0  0.03289  0.18477  0.37410  1.0000
  C   C10       1.0  0.18145  0.48189  0.79256  1.0000
  C   C11       1.0  0.30045  0.81855  0.79256  1.0000
  C   C12       1.0  0.51811  0.69955  0.79256  1.0000
  C   C13       1.0  0.48189  0.18145  0.70744  1.0000
  C   C14       1.0  0.81855  0.30045  0.70744  1.0000
  C   C15       1.0  0.69955  0.51811  0.70744  1.0000
  C   C16       1.0  0.84811  0.81523  0.12590  1.0000
  C   C17       1.0  0.96711  0.15189  0.12590  1.0000
  C   C18       1.0  0.18477  0.03289  0.12590  1.0000
  C   C19       1.0  0.85144  0.48522  0.95923  1.0000
  C   C20       1.0  0.51478  0.36622  0.95923  1.0000
  C   C21       1.0  0.63378  0.14856  0.95923  1.0000
  C   C22       1.0  0.48522  0.85144  0.54077  1.0000
  C   C23       1.0  0.36622  0.51478  0.54077  1.0000
  C   C24       1.0  0.14856  0.63378  0.54077  1.0000
  C   C25       1.0  0.18477  0.15189  0.62590  1.0000
  C   C26       1.0  0.84811  0.03289  0.62590  1.0000
  C   C27       1.0  0.96711  0.81523  0.62590  1.0000
  C   C28       1.0  0.81855  0.51811  0.20744  1.0000
  C   C29       1.0  0.69955  0.18145  0.20744  1.0000
  C   C30       1.0  0.48189  0.30045  0.20744  1.0000
  C   C31       1.0  0.51811  0.81855  0.29256  1.0000
  C   C32       1.0  0.18145  0.69955  0.29256  1.0000
  C   C33       1.0  0.30045  0.48189  0.29256  1.0000
  C   C34       1.0  0.15189  0.18477  0.87410  1.0000
  C   C35       1.0  0.03289  0.84811  0.87410  1.0000
  C   C36       1.0  0.81523  0.96711  0.87410  1.0000
  C   C37       1.0  0.81620  0.29946  0.03792  1.0000
  C   C38       1.0  0.70054  0.51674  0.03792  1.0000
  C   C39       1.0  0.48326  0.18380  0.03792  1.0000
  C   C40       1.0  0.29946  0.81620  0.46208  1.0000
  C   C41       1.0  0.51674  0.70054  0.46208  1.0000
  C   C42       1.0  0.18380  0.48326  0.46208  1.0000
  C   C43       1.0  0.48287  0.63279  0.37125  1.0000
  C   C44       1.0  0.36721  0.85007  0.37125  1.0000
  C   C45       1.0  0.14993  0.51713  0.37125  1.0000
  C   C46       1.0  0.96613  0.14953  0.79541  1.0000
  C   C47       1.0  0.18341  0.03387  0.79541  1.0000
  C   C48       1.0  0.85047  0.81659  0.79541  1.0000
  C   C49       1.0  0.14953  0.96613  0.70459  1.0000
  C   C50       1.0  0.03387  0.18341  0.70459  1.0000
  C   C51       1.0  0.81659  0.85047  0.70459  1.0000
  C   C52       1.0  0.63279  0.48287  0.12875  1.0000
  C   C53       1.0  0.85007  0.36721  0.12875  1.0000
  C   C54       1.0  0.51713  0.14993  0.12875  1.0000
  C   C55       1.0  0.18380  0.70054  0.96208  1.0000
  C   C56       1.0  0.29946  0.48326  0.96208  1.0000
  C   C57       1.0  0.51674  0.81620  0.96208  1.0000
  C   C58       1.0  0.70054  0.18380  0.53792  1.0000
  C   C59       1.0  0.48326  0.29946  0.53792  1.0000
  C   C60       1.0  0.81620  0.51674  0.53792  1.0000
  C   C61       1.0  0.51713  0.36721  0.62875  1.0000
  C   C62       1.0  0.63279  0.14993  0.62875  1.0000
  C   C63       1.0  0.85007  0.48287  0.62875  1.0000
  C   C64       1.0  0.03387  0.85047  0.20459  1.0000
  C   C65       1.0  0.81659  0.96613  0.20459  1.0000
  C   C66       1.0  0.14953  0.18341  0.20459  1.0000
  C   C67       1.0  0.85047  0.03387  0.29541  1.0000
  C   C68       1.0  0.96613  0.81659  0.29541  1.0000
  C   C69       1.0  0.18341  0.14953  0.29541  1.0000
  C   C70       1.0  0.36721  0.51713  0.87125  1.0000
  C   C71       1.0  0.14993  0.63279  0.87125  1.0000
  C   C72       1.0  0.48287  0.85007  0.87125  1.0000
  C   C73       1.0  0.17467  0.48730  0.12696  1.0000
  C   C74       1.0  0.51270  0.68737  0.12696  1.0000
  C   C75       1.0  0.31263  0.82533  0.12696  1.0000
  C   C76       1.0  0.48730  0.17467  0.37304  1.0000
  C   C77       1.0  0.68737  0.51270  0.37304  1.0000
  C   C78       1.0  0.82533  0.31263  0.37304  1.0000
  C   C79       1.0  0.84134  0.82063  0.46029  1.0000
  C   C80       1.0  0.17937  0.02070  0.46029  1.0000
  C   C81       1.0  0.97930  0.15866  0.46029  1.0000
  C   C82       1.0  0.15397  0.50800  0.70637  1.0000
  C   C83       1.0  0.35404  0.84603  0.70637  1.0000
  C   C84       1.0  0.49200  0.64596  0.70637  1.0000
  C   C85       1.0  0.50800  0.15397  0.79363  1.0000
  C   C86       1.0  0.84603  0.35404  0.79363  1.0000
  C   C87       1.0  0.64596  0.49200  0.79363  1.0000
  C   C88       1.0  0.82063  0.84134  0.03971  1.0000
  C   C89       1.0  0.02070  0.17937  0.03971  1.0000
  C   C90       1.0  0.15866  0.97930  0.03971  1.0000
  C   C91       1.0  0.82533  0.51270  0.87304  1.0000
  C   C92       1.0  0.48730  0.31263  0.87304  1.0000
  C   C93       1.0  0.68737  0.17467  0.87304  1.0000
  C   C94       1.0  0.51270  0.82533  0.62696  1.0000
  C   C95       1.0  0.31263  0.48730  0.62696  1.0000
  C   C96       1.0  0.17467  0.68737  0.62696  1.0000
  C   C97       1.0  0.15866  0.17937  0.53971  1.0000
  C   C98       1.0  0.82063  0.97930  0.53971  1.0000
  C   C99       1.0  0.02070  0.84134  0.53971  1.0000
  C   C100      1.0  0.84603  0.49200  0.29363  1.0000
  C   C101      1.0  0.64596  0.15397  0.29363  1.0000
  C   C102      1.0  0.50800  0.35404  0.29363  1.0000
  C   C103      1.0  0.49200  0.84603  0.20637  1.0000
  C   C104      1.0  0.15397  0.64596  0.20637  1.0000
  C   C105      1.0  0.35404  0.50800  0.20637  1.0000
  C   C106      1.0  0.17937  0.15866  0.96029  1.0000
  C   C107      1.0  0.97930  0.82063  0.96029  1.0000
  C   C108      1.0  0.84134  0.02070  0.96029  1.0000
  O   O109      1.0  0.19897  0.60792  0.02847  1.0000
  O   O110      1.0  0.39208  0.59105  0.02847  1.0000
  O   O111      1.0  0.40895  0.80103  0.02847  1.0000
  O   O112      1.0  0.60792  0.19897  0.47153  1.0000
  O   O113      1.0  0.59105  0.39208  0.47153  1.0000
  O   O114      1.0  0.80103  0.40895  0.47153  1.0000
  O   O115      1.0  0.86564  0.94125  0.36180  1.0000
  O   O116      1.0  0.05875  0.92438  0.36180  1.0000
  O   O117      1.0  0.07562  0.13436  0.36180  1.0000
  O   O118      1.0  0.27459  0.53230  0.80486  1.0000
  O   O119      1.0  0.25772  0.72541  0.80486  1.0000
  O   O120      1.0  0.46770  0.74228  0.80486  1.0000
  O   O121      1.0  0.53230  0.27459  0.69514  1.0000
  O   O122      1.0  0.72541  0.25772  0.69514  1.0000
  O   O123      1.0  0.74228  0.46770  0.69514  1.0000
  O   O124      1.0  0.94125  0.86564  0.13820  1.0000
  O   O125      1.0  0.92438  0.05875  0.13820  1.0000
  O   O126      1.0  0.13436  0.07562  0.13820  1.0000
  O   O127      1.0  0.80103  0.39208  0.97153  1.0000
  O   O128      1.0  0.60792  0.40895  0.97153  1.0000
  O   O129      1.0  0.59105  0.19897  0.97153  1.0000
  O   O130      1.0  0.39208  0.80103  0.52847  1.0000
  O   O131      1.0  0.40895  0.60792  0.52847  1.0000
  O   O132      1.0  0.19897  0.59105  0.52847  1.0000
  O   O133      1.0  0.13436  0.05875  0.63820  1.0000
  O   O134      1.0  0.94125  0.07562  0.63820  1.0000
  O   O135      1.0  0.92438  0.86564  0.63820  1.0000
  O   O136      1.0  0.72541  0.46770  0.19514  1.0000
  O   O137      1.0  0.74228  0.27459  0.19514  1.0000
  O   O138      1.0  0.53230  0.25772  0.19514  1.0000
  O   O139      1.0  0.46770  0.72541  0.30486  1.0000
  O   O140      1.0  0.27459  0.74228  0.30486  1.0000
  O   O141      1.0  0.25772  0.53230  0.30486  1.0000
  O   O142      1.0  0.05875  0.13436  0.86180  1.0000
  O   O143      1.0  0.07562  0.94125  0.86180  1.0000
  O   O144      1.0  0.86564  0.92438  0.86180  1.0000
  H   H1        1.0  0.17960  0.47130  0.03910  1.0000
  H   H2        1.0  0.52870  0.70830  0.03910  1.0000
  H   H3        1.0  0.29170  0.82040  0.03910  1.0000
  H   H4        1.0  0.47130  0.17960  0.46090  1.0000
  H   H5        1.0  0.70830  0.52870  0.46090  1.0000
  H   H6        1.0  0.82040  0.29170  0.46090  1.0000
  H   H7        1.0  0.84627  0.80463  0.37243  1.0000
  H   H8        1.0  0.19537  0.04163  0.37243  1.0000
  H   H9        1.0  0.95837  0.15373  0.37243  1.0000
  H   H10       1.0  0.13797  0.51293  0.79423  1.0000
  H   H11       1.0  0.37497  0.86203  0.79423  1.0000
  H   H12       1.0  0.48707  0.62503  0.79423  1.0000
  H   H13       1.0  0.51293  0.13797  0.70577  1.0000
  H   H14       1.0  0.86203  0.37497  0.70577  1.0000
  H   H15       1.0  0.62503  0.48707  0.70577  1.0000
  H   H16       1.0  0.80463  0.84627  0.12757  1.0000
  H   H17       1.0  0.04163  0.19537  0.12757  1.0000
  H   H18       1.0  0.15373  0.95837  0.12757  1.0000
  H   H19       1.0  0.82040  0.52870  0.96090  1.0000
  H   H20       1.0  0.47130  0.29170  0.96090  1.0000
  H   H21       1.0  0.70830  0.17960  0.96090  1.0000
  H   H22       1.0  0.52870  0.82040  0.53910  1.0000
  H   H23       1.0  0.29170  0.47130  0.53910  1.0000
  H   H24       1.0  0.17960  0.70830  0.53910  1.0000
  H   H25       1.0  0.15373  0.19537  0.62757  1.0000
  H   H26       1.0  0.80463  0.95837  0.62757  1.0000
  H   H27       1.0  0.04163  0.84627  0.62757  1.0000
  H   H28       1.0  0.86203  0.48707  0.20577  1.0000
  H   H29       1.0  0.62503  0.13797  0.20577  1.0000
  H   H30       1.0  0.51293  0.37497  0.20577  1.0000
  H   H31       1.0  0.48707  0.86203  0.29423  1.0000
  H   H32       1.0  0.13797  0.62503  0.29423  1.0000
  H   H33       1.0  0.37497  0.51293  0.29423  1.0000
  H   H34       1.0  0.19537  0.15373  0.87243  1.0000
  H   H35       1.0  0.95837  0.80463  0.87243  1.0000
  H   H36       1.0  0.84627  0.04163  0.87243  1.0000
  O   O145      1.0  0.72222  0.25694  0.02628  1.0000
  O   O146      1.0  0.74306  0.46528  0.02628  1.0000
  O   O147      1.0  0.53472  0.27778  0.02628  1.0000
  O   O148      1.0  0.25694  0.72222  0.47372  1.0000
  O   O149      1.0  0.46528  0.74306  0.47372  1.0000
  O   O150      1.0  0.27778  0.53472  0.47372  1.0000
  O   O151      1.0  0.38889  0.59027  0.35961  1.0000
  O   O152      1.0  0.40973  0.79861  0.35961  1.0000
  O   O153      1.0  0.20139  0.61111  0.35961  1.0000
  O   O154      1.0  0.92361  0.05555  0.80705  1.0000
  O   O155      1.0  0.13195  0.07639  0.80705  1.0000
  O   O156      1.0  0.94445  0.86805  0.80705  1.0000
  O   O157      1.0  0.05555  0.92361  0.69295  1.0000
  O   O158      1.0  0.07639  0.13195  0.69295  1.0000
  O   O159      1.0  0.86805  0.94445  0.69295  1.0000
  O   O160      1.0  0.59027  0.38889  0.14039  1.0000
  O   O161      1.0  0.79861  0.40973  0.14039  1.0000
  O   O162      1.0  0.61111  0.20139  0.14039  1.0000
  O   O163      1.0  0.27778  0.74306  0.97372  1.0000
  O   O164      1.0  0.25694  0.53472  0.97372  1.0000
  O   O165      1.0  0.46528  0.72222  0.97372  1.0000
  O   O166      1.0  0.74306  0.27778  0.52628  1.0000
  O   O167      1.0  0.53472  0.25694  0.52628  1.0000
  O   O168      1.0  0.72222  0.46528  0.52628  1.0000
  O   O169      1.0  0.61111  0.40973  0.64039  1.0000
  O   O170      1.0  0.59027  0.20139  0.64039  1.0000
  O   O171      1.0  0.79861  0.38889  0.64039  1.0000
  O   O172      1.0  0.07639  0.94445  0.19295  1.0000
  O   O173      1.0  0.86805  0.92361  0.19295  1.0000
  O   O174      1.0  0.05555  0.13195  0.19295  1.0000
  O   O175      1.0  0.94445  0.07639  0.30705  1.0000
  O   O176      1.0  0.92361  0.86805  0.30705  1.0000
  O   O177      1.0  0.13195  0.05555  0.30705  1.0000
  O   O178      1.0  0.40973  0.61111  0.85961  1.0000
  O   O179      1.0  0.20139  0.59027  0.85961  1.0000
  O   O180      1.0  0.38889  0.79861  0.85961  1.0000
  H   H37       1.0  0.86590  0.36960  0.03170  1.0000
  H   H38       1.0  0.63040  0.49630  0.03170  1.0000
  H   H39       1.0  0.50370  0.13410  0.03170  1.0000
  H   H40       1.0  0.36960  0.86590  0.46830  1.0000
  H   H41       1.0  0.49630  0.63040  0.46830  1.0000
  H   H42       1.0  0.13410  0.50370  0.46830  1.0000
  H   H43       1.0  0.53257  0.70293  0.36503  1.0000
  H   H44       1.0  0.29707  0.82963  0.36503  1.0000
  H   H45       1.0  0.17037  0.46743  0.36503  1.0000
  H   H46       1.0  0.03627  0.19923  0.80163  1.0000
  H   H47       1.0  0.16297  0.96373  0.80163  1.0000
  H   H48       1.0  0.80077  0.83703  0.80163  1.0000
  H   H49       1.0  0.19923  0.03627  0.69837  1.0000
  H   H50       1.0  0.96373  0.16297  0.69837  1.0000
  H   H51       1.0  0.83703  0.80077  0.69837  1.0000
  H   H52       1.0  0.70293  0.53257  0.13497  1.0000
  H   H53       1.0  0.82963  0.29707  0.13497  1.0000
  H   H54       1.0  0.46743  0.17037  0.13497  1.0000
  H   H55       1.0  0.13410  0.63040  0.96830  1.0000
  H   H56       1.0  0.36960  0.50370  0.96830  1.0000
  H   H57       1.0  0.49630  0.86590  0.96830  1.0000
  H   H58       1.0  0.63040  0.13410  0.53170  1.0000
  H   H59       1.0  0.50370  0.36960  0.53170  1.0000
  H   H60       1.0  0.86590  0.49630  0.53170  1.0000
  H   H61       1.0  0.46743  0.29707  0.63497  1.0000
  H   H62       1.0  0.70293  0.17037  0.63497  1.0000
  H   H63       1.0  0.82963  0.53257  0.63497  1.0000
  H   H64       1.0  0.96373  0.80077  0.19837  1.0000
  H   H65       1.0  0.83703  0.03627  0.19837  1.0000
  H   H66       1.0  0.19923  0.16297  0.19837  1.0000
  H   H67       1.0  0.80077  0.96373  0.30163  1.0000
  H   H68       1.0  0.03627  0.83703  0.30163  1.0000
  H   H69       1.0  0.16297  0.19923  0.30163  1.0000
  H   H70       1.0  0.29707  0.46743  0.86503  1.0000
  H   H71       1.0  0.17037  0.70293  0.86503  1.0000
  H   H72       1.0  0.53257  0.82963  0.86503  1.0000
  O   O181      1.0  0.26721  0.53252  0.13956  1.0000
  O   O182      1.0  0.46748  0.73469  0.13956  1.0000
  O   O183      1.0  0.26531  0.73279  0.13956  1.0000
  O   O184      1.0  0.53252  0.26721  0.36044  1.0000
  O   O185      1.0  0.73469  0.46748  0.36044  1.0000
  O   O186      1.0  0.73279  0.26531  0.36044  1.0000
  O   O187      1.0  0.93388  0.86585  0.47289  1.0000
  O   O188      1.0  0.13415  0.06802  0.47289  1.0000
  O   O189      1.0  0.93198  0.06612  0.47289  1.0000
  O   O190      1.0  0.19919  0.60054  0.69377  1.0000
  O   O191      1.0  0.40136  0.80081  0.69377  1.0000
  O   O192      1.0  0.39946  0.59864  0.69377  1.0000
  O   O193      1.0  0.60054  0.19919  0.80623  1.0000
  O   O194      1.0  0.80081  0.40136  0.80623  1.0000
  O   O195      1.0  0.59864  0.39946  0.80623  1.0000
  O   O196      1.0  0.86585  0.93388  0.02711  1.0000
  O   O197      1.0  0.06802  0.13415  0.02711  1.0000
  O   O198      1.0  0.06612  0.93198  0.02711  1.0000
  O   O199      1.0  0.73279  0.46748  0.86044  1.0000
  O   O200      1.0  0.53252  0.26531  0.86044  1.0000
  O   O201      1.0  0.73469  0.26721  0.86044  1.0000
  O   O202      1.0  0.46748  0.73279  0.63956  1.0000
  O   O203      1.0  0.26531  0.53252  0.63956  1.0000
  O   O204      1.0  0.26721  0.73469  0.63956  1.0000
  O   O205      1.0  0.06612  0.13415  0.52711  1.0000
  O   O206      1.0  0.86585  0.93198  0.52711  1.0000
  O   O207      1.0  0.06802  0.93388  0.52711  1.0000
  O   O208      1.0  0.80081  0.39946  0.30623  1.0000
  O   O209      1.0  0.59864  0.19919  0.30623  1.0000
  O   O210      1.0  0.60054  0.40136  0.30623  1.0000
  O   O211      1.0  0.39946  0.80081  0.19377  1.0000
  O   O212      1.0  0.19919  0.59864  0.19377  1.0000
  O   O213      1.0  0.40136  0.60054  0.19377  1.0000
  O   O214      1.0  0.13415  0.06612  0.97289  1.0000
  O   O215      1.0  0.93198  0.86585  0.97289  1.0000
  O   O216      1.0  0.93388  0.06802  0.97289  1.0000
  H   H73       1.0  0.13420  0.52160  0.12910  1.0000
  H   H74       1.0  0.47840  0.61260  0.12910  1.0000
  H   H75       1.0  0.38740  0.86580  0.12910  1.0000
  H   H76       1.0  0.52160  0.13420  0.37090  1.0000
  H   H77       1.0  0.61260  0.47840  0.37090  1.0000
  H   H78       1.0  0.86580  0.38740  0.37090  1.0000
  H   H79       1.0  0.80087  0.85493  0.46243  1.0000
  H   H80       1.0  0.14507  0.94593  0.46243  1.0000
  H   H81       1.0  0.05407  0.19913  0.46243  1.0000
  H   H82       1.0  0.18827  0.46753  0.70423  1.0000
  H   H83       1.0  0.27927  0.81173  0.70423  1.0000
  H   H84       1.0  0.53247  0.72073  0.70423  1.0000
  H   H85       1.0  0.46753  0.18827  0.79577  1.0000
  H   H86       1.0  0.81173  0.27927  0.79577  1.0000
  H   H87       1.0  0.72073  0.53247  0.79577  1.0000
  H   H88       1.0  0.85493  0.80087  0.03757  1.0000
  H   H89       1.0  0.94593  0.14507  0.03757  1.0000
  H   H90       1.0  0.19913  0.05407  0.03757  1.0000
  H   H91       1.0  0.86580  0.47840  0.87090  1.0000
  H   H92       1.0  0.52160  0.38740  0.87090  1.0000
  H   H93       1.0  0.61260  0.13420  0.87090  1.0000
  H   H94       1.0  0.47840  0.86580  0.62910  1.0000
  H   H95       1.0  0.38740  0.52160  0.62910  1.0000
  H   H96       1.0  0.13420  0.61260  0.62910  1.0000
  H   H97       1.0  0.19913  0.14507  0.53757  1.0000
  H   H98       1.0  0.85493  0.05407  0.53757  1.0000
  H   H99       1.0  0.94593  0.80087  0.53757  1.0000
  H   H100      1.0  0.81173  0.53247  0.29577  1.0000
  H   H101      1.0  0.72073  0.18827  0.29577  1.0000
  H   H102      1.0  0.46753  0.27927  0.29577  1.0000
  H   H103      1.0  0.53247  0.81173  0.20423  1.0000
  H   H104      1.0  0.18827  0.72073  0.20423  1.0000
  H   H105      1.0  0.27927  0.46753  0.20423  1.0000
  H   H106      1.0  0.14507  0.19913  0.96243  1.0000
  H   H107      1.0  0.05407  0.85493  0.96243  1.0000
  H   H108      1.0  0.80087  0.94593  0.96243  1.0000
  Fe  Fe19      1.0  0.33330  0.66670  0.00193  1.0000
  Fe  Fe20      1.0  0.66670  0.33330  0.49807  1.0000
  Fe  Fe21      1.0  0.99997  0.00003  0.33526  1.0000
  Fe  Fe22      1.0  0.33337  0.66663  0.83140  1.0000
  Fe  Fe23      1.0  0.66663  0.33337  0.66860  1.0000
  Fe  Fe24      1.0  0.00003  0.99997  0.16474  1.0000
  Fe  Fe25      1.0  0.66670  0.33330  0.99807  1.0000
  Fe  Fe26      1.0  0.33330  0.66670  0.50193  1.0000
  Fe  Fe27      1.0  0.00003  0.99997  0.66474  1.0000
  Fe  Fe28      1.0  0.66663  0.33337  0.16860  1.0000
  Fe  Fe29      1.0  0.33337  0.66663  0.33140  1.0000
  Fe  Fe30      1.0  0.99997  0.00003  0.83526  1.0000
  Fe  Fe31      1.0  0.33330  0.66670  0.16670  1.0000
  Fe  Fe32      1.0  0.66670  0.33330  0.33330  1.0000
  Fe  Fe33      1.0  0.99997  0.00003  0.50003  1.0000
  Fe  Fe34      1.0  0.33337  0.66663  0.66663  1.0000
  Fe  Fe35      1.0  0.66663  0.33337  0.83337  1.0000
  Fe  Fe36      1.0  0.00003  0.99997  0.99997  1.0000
