data_image0
_chemical_formula_structural       Fe4O24CHCHCHCHCHCHCHCHCHCHCHCH
_chemical_formula_sum              "Fe4 O24 C12 H12"
_cell_length_a       10.763
_cell_length_b       8.256
_cell_length_c       7.985
_cell_angle_alpha    90.26
_cell_angle_beta     91.72
_cell_angle_gamma    99.47

_space_group_name_H-M_alt    "P 1"
_space_group_IT_number       1

loop_
  _space_group_symop_operation_xyz
  'x, y, z'

loop_
  _atom_site_type_symbol
  _atom_site_label
  _atom_site_symmetry_multiplicity
  _atom_site_fract_x
  _atom_site_fract_y
  _atom_site_fract_z
  _atom_site_occupancy
  Fe  Fe1       1.0  0.03280  0.53830  0.47130  1.0000
  Fe  Fe2       1.0  0.48850  0.00150  0.04880  1.0000
  Fe  Fe3       1.0  0.50520  0.49930  0.54560  1.0000
  Fe  Fe4       1.0  0.01360  0.04000  0.97540  1.0000
  O   O1        1.0  0.32600  0.36000  0.64700  1.0000
  O   O2        1.0  0.59700  0.10800  0.26100  1.0000
  O   O3        1.0  0.12800  0.73300  0.32400  1.0000
  O   O4        1.0  0.00700  0.84700  0.78700  1.0000
  O   O5        1.0  0.40000  0.81600  0.18200  1.0000
  O   O6        1.0  0.42600  0.62600  0.37200  1.0000
  O   O7        1.0  0.50000  0.32500  0.36600  1.0000
  O   O8        1.0  0.64500  0.86800  0.04200  1.0000
  O   O9        1.0  0.49900  0.65600  0.74200  1.0000
  O   O10       1.0  0.94400  0.41200  0.26700  1.0000
  O   O11       1.0  0.17400  0.18300  0.91200  1.0000
  O   O12       1.0  0.17500  0.43200  0.45700  1.0000
  O   O13       1.0  0.60000  0.35600  0.70700  1.0000
  O   O14       1.0  0.41500  0.87500  0.83000  1.0000
  O   O15       1.0  0.11600  0.67800  0.67900  1.0000
  O   O16       1.0  0.84600  0.89300  0.03600  1.0000
  O   O17       1.0  0.89000  0.65600  0.48800  1.0000
  O   O18       1.0  0.03000  0.23800  0.16100  1.0000
  O   O19       1.0  0.11700  0.91200  0.13700  1.0000
  O   O20       1.0  0.58900  0.22800  0.92500  1.0000
  O   O21       1.0  0.91800  0.15300  0.79700  1.0000
  O   O22       1.0  0.94400  0.34700  0.58900  1.0000
  O   O23       1.0  0.31300  0.10900  0.05100  1.0000
  O   O24       1.0  0.67900  0.62200  0.50100  1.0000
  C   C1        1.0  0.23700  0.39800  0.57700  1.0000
  H   H1        1.0  0.18452  0.40885  0.66519  1.0000
  C   C2        1.0  0.75200  0.96600  0.02900  1.0000
  H   H2        1.0  0.75847  0.07891  0.01551  1.0000
  C   C3        1.0  0.11600  0.80400  0.77500  1.0000
  H   H3        1.0  0.18805  0.85778  0.83120  1.0000
  C   C4        1.0  0.44300  0.74300  0.31000  1.0000
  H   H4        1.0  0.50873  0.81312  0.36522  1.0000
  C   C5        1.0  0.56600  0.22500  0.35200  1.0000
  H   H5        1.0  0.61796  0.23337  0.44708  1.0000
  C   C6        1.0  0.43400  0.75800  0.75200  1.0000
  H   H6        1.0  0.37366  0.73862  0.66580  1.0000
  C   C7        1.0  0.27300  0.12400  0.89800  1.0000
  H   H7        1.0  0.30975  0.09610  0.80030  1.0000
  C   C8        1.0  0.56900  0.22700  0.77700  1.0000
  H   H8        1.0  0.53128  0.13257  0.71948  1.0000
  C   C9        1.0  0.92300  0.29500  0.17800  1.0000
  H   H9        1.0  0.84530  0.25071  0.12844  1.0000
  C   C10       1.0  0.05600  0.77200  0.23000  1.0000
  H   H10       1.0  0.97242  0.72152  0.21532  1.0000
  C   C11       1.0  0.97000  0.28500  0.73000  1.0000
  H   H11       1.0  0.03624  0.34561  0.79170  1.0000
  C   C12       1.0  0.77900  0.57800  0.48800  1.0000
  H   H12       1.0  0.77413  0.46508  0.47653  1.0000
