data_image0
_chemical_formula_structural       C18H18O36Fe6
_chemical_formula_sum              "C18 H18 O36 Fe6"
_cell_length_a       8.241
_cell_length_b       8.241
_cell_length_c       22.545
_cell_angle_alpha    90
_cell_angle_beta     90
_cell_angle_gamma    120

_space_group_name_H-M_alt    "P 1"
_space_group_IT_number       1

loop_
  _space_group_symop_operation_xyz
  'x, y, z'

loop_
  _atom_site_type_symbol
  _atom_site_label
  _atom_site_symmetry_multiplicity
  _atom_site_fract_x
  _atom_site_fract_y
  _atom_site_fract_z
  _atom_site_occupancy
  C   C1        1.0  0.12170  0.78840  0.08330  1.0000
  C   C2        1.0  0.78837  0.12173  0.41663  1.0000
  C   C3        1.0  0.45503  0.45507  0.74997  1.0000
  C   C4        1.0  0.87830  0.66670  0.41670  1.0000
  C   C5        1.0  0.54497  0.00003  0.75003  1.0000
  C   C6        1.0  0.21163  0.33337  0.08337  1.0000
  C   C7        1.0  0.33330  0.21160  0.41670  1.0000
  C   C8        1.0  0.99997  0.54493  0.75003  1.0000
  C   C9        1.0  0.66663  0.87827  0.08337  1.0000
  C   C10       1.0  0.87830  0.21160  0.91670  1.0000
  C   C11       1.0  0.21163  0.87827  0.58337  1.0000
  C   C12       1.0  0.54497  0.54493  0.25003  1.0000
  C   C13       1.0  0.12170  0.33330  0.58330  1.0000
  C   C14       1.0  0.45503  0.99997  0.24997  1.0000
  C   C15       1.0  0.78837  0.66663  0.91663  1.0000
  C   C16       1.0  0.66670  0.78840  0.58330  1.0000
  C   C17       1.0  0.00003  0.45507  0.24997  1.0000
  C   C18       1.0  0.33337  0.12173  0.91663  1.0000
  H   H1        1.0  0.23100  0.89800  0.08330  1.0000
  H   H2        1.0  0.89767  0.23133  0.41663  1.0000
  H   H3        1.0  0.56433  0.56467  0.74997  1.0000
  H   H4        1.0  0.76900  0.66700  0.41670  1.0000
  H   H5        1.0  0.43567  0.00033  0.75003  1.0000
  H   H6        1.0  0.10233  0.33367  0.08337  1.0000
  H   H7        1.0  0.33300  0.10200  0.41670  1.0000
  H   H8        1.0  0.99967  0.43533  0.75003  1.0000
  H   H9        1.0  0.66633  0.76867  0.08337  1.0000
  H   H10       1.0  0.76900  0.10200  0.91670  1.0000
  H   H11       1.0  0.10233  0.76867  0.58337  1.0000
  H   H12       1.0  0.43567  0.43533  0.25003  1.0000
  H   H13       1.0  0.23100  0.33300  0.58330  1.0000
  H   H14       1.0  0.56433  0.99967  0.24997  1.0000
  H   H15       1.0  0.89767  0.66633  0.91663  1.0000
  H   H16       1.0  0.66700  0.89800  0.58330  1.0000
  H   H17       1.0  0.00033  0.56467  0.24997  1.0000
  H   H18       1.0  0.33367  0.23133  0.91663  1.0000
  O   O1        1.0  0.99160  0.78300  0.05430  1.0000
  O   O2        1.0  0.65827  0.11633  0.38763  1.0000
  O   O3        1.0  0.32493  0.44967  0.72097  1.0000
  O   O4        1.0  0.00840  0.79140  0.44570  1.0000
  O   O5        1.0  0.67507  0.12473  0.77903  1.0000
  O   O6        1.0  0.34173  0.45807  0.11237  1.0000
  O   O7        1.0  0.78300  0.99160  0.44570  1.0000
  O   O8        1.0  0.44967  0.32493  0.77903  1.0000
  O   O9        1.0  0.11633  0.65827  0.11237  1.0000
  O   O10       1.0  0.21700  0.20860  0.05430  1.0000
  O   O11       1.0  0.88367  0.54193  0.38763  1.0000
  O   O12       1.0  0.55033  0.87527  0.72097  1.0000
  O   O13       1.0  0.20860  0.21700  0.44570  1.0000
  O   O14       1.0  0.87527  0.55033  0.77903  1.0000
  O   O15       1.0  0.54193  0.88367  0.11237  1.0000
  O   O16       1.0  0.79140  0.00840  0.05430  1.0000
  O   O17       1.0  0.45807  0.34173  0.38763  1.0000
  O   O18       1.0  0.12473  0.67507  0.72097  1.0000
  O   O19       1.0  0.00840  0.21700  0.94570  1.0000
  O   O20       1.0  0.34173  0.88367  0.61237  1.0000
  O   O21       1.0  0.67507  0.55033  0.27903  1.0000
  O   O22       1.0  0.99160  0.20860  0.55430  1.0000
  O   O23       1.0  0.32493  0.87527  0.22097  1.0000
  O   O24       1.0  0.65827  0.54193  0.88763  1.0000
  O   O25       1.0  0.21700  0.00840  0.55430  1.0000
  O   O26       1.0  0.55033  0.67507  0.22097  1.0000
  O   O27       1.0  0.88367  0.34173  0.88763  1.0000
  O   O28       1.0  0.78300  0.79140  0.94570  1.0000
  O   O29       1.0  0.11633  0.45807  0.61237  1.0000
  O   O30       1.0  0.44967  0.12473  0.27903  1.0000
  O   O31       1.0  0.79140  0.78300  0.55430  1.0000
  O   O32       1.0  0.12473  0.44967  0.22097  1.0000
  O   O33       1.0  0.45807  0.11633  0.88763  1.0000
  O   O34       1.0  0.20860  0.99160  0.94570  1.0000
  O   O35       1.0  0.54193  0.65827  0.61237  1.0000
  O   O36       1.0  0.87527  0.32493  0.27903  1.0000
  Fe  Fe1       1.0  0.00000  0.00000  0.00000  1.0000
  Fe  Fe2       1.0  0.66667  0.33333  0.33333  1.0000
  Fe  Fe3       1.0  0.33333  0.66667  0.66667  1.0000
  Fe  Fe4       1.0  0.00000  0.00000  0.50000  1.0000
  Fe  Fe5       1.0  0.66667  0.33333  0.83333  1.0000
  Fe  Fe6       1.0  0.33333  0.66667  0.16667  1.0000
