data_image0
_chemical_formula_structural       In8O64C24H8C16H8C8H8C16H8C16H8C8H8C32H8C8H8C16H8C16H8C8H8C16H8C8
_chemical_formula_sum              "In8 O64 C192 H96"
_cell_length_a       31.745
_cell_length_b       31.745
_cell_length_c       8.2835
_cell_angle_alpha    90
_cell_angle_beta     90
_cell_angle_gamma    90

_space_group_name_H-M_alt    "P 1"
_space_group_IT_number       1

loop_
  _space_group_symop_operation_xyz
  'x, y, z'

loop_
  _atom_site_type_symbol
  _atom_site_label
  _atom_site_symmetry_multiplicity
  _atom_site_fract_x
  _atom_site_fract_y
  _atom_site_fract_z
  _atom_site_occupancy
  In  In1       1.0  0.53458  0.69304  0.09690  1.0000
  In  In2       1.0  0.96542  0.80696  0.09690  1.0000
  In  In3       1.0  0.80696  0.53458  0.09690  1.0000
  In  In4       1.0  0.69304  0.96542  0.09690  1.0000
  In  In5       1.0  0.46542  0.30696  0.90310  1.0000
  In  In6       1.0  0.03458  0.19304  0.90310  1.0000
  In  In7       1.0  0.19304  0.46542  0.90310  1.0000
  In  In8       1.0  0.30696  0.03458  0.90310  1.0000
  O   O1        1.0  0.58790  0.64720  0.07190  1.0000
  O   O2        1.0  0.91210  0.85280  0.07190  1.0000
  O   O3        1.0  0.85280  0.58790  0.07190  1.0000
  O   O4        1.0  0.64720  0.91210  0.07190  1.0000
  O   O5        1.0  0.41210  0.35280  0.92810  1.0000
  O   O6        1.0  0.08790  0.14720  0.92810  1.0000
  O   O7        1.0  0.14720  0.41210  0.92810  1.0000
  O   O8        1.0  0.35280  0.08790  0.92810  1.0000
  O   O9        1.0  0.57050  0.68500  0.86350  1.0000
  O   O10       1.0  0.92950  0.81500  0.86350  1.0000
  O   O11       1.0  0.81500  0.57050  0.86350  1.0000
  O   O12       1.0  0.68500  0.92950  0.86350  1.0000
  O   O13       1.0  0.42950  0.31500  0.13650  1.0000
  O   O14       1.0  0.07050  0.18500  0.13650  1.0000
  O   O15       1.0  0.18500  0.42950  0.13650  1.0000
  O   O16       1.0  0.31500  0.07050  0.13650  1.0000
  O   O17       1.0  0.79740  0.55950  0.36760  1.0000
  O   O18       1.0  0.70260  0.94050  0.36760  1.0000
  O   O19       1.0  0.94050  0.79740  0.36760  1.0000
  O   O20       1.0  0.55950  0.70260  0.36760  1.0000
  O   O21       1.0  0.20260  0.44050  0.63240  1.0000
  O   O22       1.0  0.29740  0.05950  0.63240  1.0000
  O   O23       1.0  0.05950  0.20260  0.63240  1.0000
  O   O24       1.0  0.44050  0.29740  0.63240  1.0000
  O   O25       1.0  0.76090  0.58270  0.16320  1.0000
  O   O26       1.0  0.73910  0.91730  0.16320  1.0000
  O   O27       1.0  0.91730  0.76090  0.16320  1.0000
  O   O28       1.0  0.58270  0.73910  0.16320  1.0000
  O   O29       1.0  0.23910  0.41730  0.83680  1.0000
  O   O30       1.0  0.26090  0.08270  0.83680  1.0000
  O   O31       1.0  0.08270  0.23910  0.83680  1.0000
  O   O32       1.0  0.41730  0.26090  0.83680  1.0000
  O   O33       1.0  0.50970  0.75030  0.95600  1.0000
  O   O34       1.0  0.99030  0.74970  0.95600  1.0000
  O   O35       1.0  0.74970  0.50970  0.95600  1.0000
  O   O36       1.0  0.75030  0.99030  0.95600  1.0000
  O   O37       1.0  0.49030  0.24970  0.04400  1.0000
  O   O38       1.0  0.00970  0.25030  0.04400  1.0000
  O   O39       1.0  0.25030  0.49030  0.04400  1.0000
  O   O40       1.0  0.24970  0.00970  0.04400  1.0000
  O   O41       1.0  0.48470  0.73580  0.19350  1.0000
  O   O42       1.0  0.01530  0.76420  0.19350  1.0000
  O   O43       1.0  0.76420  0.48470  0.19350  1.0000
  O   O44       1.0  0.73580  0.01530  0.19350  1.0000
  O   O45       1.0  0.51530  0.26420  0.80650  1.0000
  O   O46       1.0  0.98470  0.23580  0.80650  1.0000
  O   O47       1.0  0.23580  0.51530  0.80650  1.0000
  O   O48       1.0  0.26420  0.98470  0.80650  1.0000
  O   O49       1.0  0.35900  0.99550  0.79800  1.0000
  O   O50       1.0  0.14100  0.50450  0.79800  1.0000
  O   O51       1.0  0.50450  0.35900  0.79800  1.0000
  O   O52       1.0  0.99550  0.14100  0.79800  1.0000
  O   O53       1.0  0.64100  0.00450  0.20200  1.0000
  O   O54       1.0  0.85900  0.49550  0.20200  1.0000
  O   O55       1.0  0.49550  0.64100  0.20200  1.0000
  O   O56       1.0  0.00450  0.85900  0.20200  1.0000
  O   O57       1.0  0.34080  0.98330  0.04690  1.0000
  O   O58       1.0  0.15920  0.51670  0.04690  1.0000
  O   O59       1.0  0.51670  0.34080  0.04690  1.0000
  O   O60       1.0  0.98330  0.15920  0.04690  1.0000
  O   O61       1.0  0.65920  0.01670  0.95310  1.0000
  O   O62       1.0  0.84080  0.48330  0.95310  1.0000
  O   O63       1.0  0.48330  0.65920  0.95310  1.0000
  O   O64       1.0  0.01670  0.84080  0.95310  1.0000
  C   C1        1.0  0.59490  0.65910  0.93100  1.0000
  C   C2        1.0  0.90510  0.84090  0.93100  1.0000
  C   C3        1.0  0.84090  0.59490  0.93100  1.0000
  C   C4        1.0  0.65910  0.90510  0.93100  1.0000
  C   C5        1.0  0.40510  0.34090  0.06900  1.0000
  C   C6        1.0  0.09490  0.15910  0.06900  1.0000
  C   C7        1.0  0.15910  0.40510  0.06900  1.0000
  C   C8        1.0  0.34090  0.09490  0.06900  1.0000
  C   C9        1.0  0.63270  0.64420  0.84360  1.0000
  C   C10       1.0  0.86730  0.85580  0.84360  1.0000
  C   C11       1.0  0.85580  0.63270  0.84360  1.0000
  C   C12       1.0  0.64420  0.86730  0.84360  1.0000
  C   C13       1.0  0.36730  0.35580  0.15640  1.0000
  C   C14       1.0  0.13270  0.14420  0.15640  1.0000
  C   C15       1.0  0.14420  0.36730  0.15640  1.0000
  C   C16       1.0  0.35580  0.13270  0.15640  1.0000
  C   C17       1.0  0.63900  0.65630  0.69000  1.0000
  C   C18       1.0  0.86100  0.84370  0.69000  1.0000
  C   C19       1.0  0.84370  0.63900  0.69000  1.0000
  C   C20       1.0  0.65630  0.86100  0.69000  1.0000
  C   C21       1.0  0.36100  0.34370  0.31000  1.0000
  C   C22       1.0  0.13900  0.15630  0.31000  1.0000
  C   C23       1.0  0.15630  0.36100  0.31000  1.0000
  C   C24       1.0  0.34370  0.13900  0.31000  1.0000
  H   H1        1.0  0.62030  0.67530  0.64350  1.0000
  H   H2        1.0  0.87970  0.82470  0.64350  1.0000
  H   H3        1.0  0.82470  0.62030  0.64350  1.0000
  H   H4        1.0  0.67530  0.87970  0.64350  1.0000
  H   H5        1.0  0.37970  0.32470  0.35650  1.0000
  H   H6        1.0  0.12030  0.17530  0.35650  1.0000
  H   H7        1.0  0.17530  0.37970  0.35650  1.0000
  H   H8        1.0  0.32470  0.12030  0.35650  1.0000
  C   C25       1.0  0.67310  0.64110  0.59670  1.0000
  C   C26       1.0  0.82690  0.85890  0.59670  1.0000
  C   C27       1.0  0.85890  0.67310  0.59670  1.0000
  C   C28       1.0  0.64110  0.82690  0.59670  1.0000
  C   C29       1.0  0.32690  0.35890  0.40330  1.0000
  C   C30       1.0  0.17310  0.14110  0.40330  1.0000
  C   C31       1.0  0.14110  0.32690  0.40330  1.0000
  C   C32       1.0  0.35890  0.17310  0.40330  1.0000
  C   C33       1.0  0.67960  0.65190  0.43370  1.0000
  C   C34       1.0  0.82040  0.84810  0.43370  1.0000
  C   C35       1.0  0.84810  0.67960  0.43370  1.0000
  C   C36       1.0  0.65190  0.82040  0.43370  1.0000
  C   C37       1.0  0.32040  0.34810  0.56630  1.0000
  C   C38       1.0  0.17960  0.15190  0.56630  1.0000
  C   C39       1.0  0.15190  0.32040  0.56630  1.0000
  C   C40       1.0  0.34810  0.17960  0.56630  1.0000
  H   H9        1.0  0.66180  0.67160  0.38630  1.0000
  H   H10       1.0  0.83820  0.82840  0.38630  1.0000
  H   H11       1.0  0.82840  0.66180  0.38630  1.0000
  H   H12       1.0  0.67160  0.83820  0.38630  1.0000
  H   H13       1.0  0.33820  0.32840  0.61370  1.0000
  H   H14       1.0  0.16180  0.17160  0.61370  1.0000
  H   H15       1.0  0.17160  0.33820  0.61370  1.0000
  H   H16       1.0  0.32840  0.16180  0.61370  1.0000
  C   C41       1.0  0.71030  0.63490  0.34410  1.0000
  C   C42       1.0  0.78970  0.86510  0.34410  1.0000
  C   C43       1.0  0.86510  0.71030  0.34410  1.0000
  C   C44       1.0  0.63490  0.78970  0.34410  1.0000
  C   C45       1.0  0.28970  0.36510  0.65590  1.0000
  C   C46       1.0  0.21030  0.13490  0.65590  1.0000
  C   C47       1.0  0.13490  0.28970  0.65590  1.0000
  C   C48       1.0  0.36510  0.21030  0.65590  1.0000
  H   H17       1.0  0.71380  0.64250  0.23640  1.0000
  H   H18       1.0  0.78620  0.85750  0.23640  1.0000
  H   H19       1.0  0.85750  0.71380  0.23640  1.0000
  H   H20       1.0  0.64250  0.78620  0.23640  1.0000
  H   H21       1.0  0.28620  0.35750  0.76360  1.0000
  H   H22       1.0  0.21380  0.14250  0.76360  1.0000
  H   H23       1.0  0.14250  0.28620  0.76360  1.0000
  H   H24       1.0  0.35750  0.21380  0.76360  1.0000
  C   C49       1.0  0.73780  0.60480  0.41910  1.0000
  C   C50       1.0  0.76220  0.89520  0.41910  1.0000
  C   C51       1.0  0.89520  0.73780  0.41910  1.0000
  C   C52       1.0  0.60480  0.76220  0.41910  1.0000
  C   C53       1.0  0.26220  0.39520  0.58090  1.0000
  C   C54       1.0  0.23780  0.10480  0.58090  1.0000
  C   C55       1.0  0.10480  0.26220  0.58090  1.0000
  C   C56       1.0  0.39520  0.23780  0.58090  1.0000
  C   C57       1.0  0.73460  0.59490  0.57740  1.0000
  C   C58       1.0  0.76540  0.90510  0.57740  1.0000
  C   C59       1.0  0.90510  0.73460  0.57740  1.0000
  C   C60       1.0  0.59490  0.76540  0.57740  1.0000
  C   C61       1.0  0.26540  0.40510  0.42260  1.0000
  C   C62       1.0  0.23460  0.09490  0.42260  1.0000
  C   C63       1.0  0.09490  0.26540  0.42260  1.0000
  C   C64       1.0  0.40510  0.23460  0.42260  1.0000
  H   H25       1.0  0.75400  0.57660  0.62400  1.0000
  H   H26       1.0  0.74600  0.92340  0.62400  1.0000
  H   H27       1.0  0.92340  0.75400  0.62400  1.0000
  H   H28       1.0  0.57660  0.74600  0.62400  1.0000
  H   H29       1.0  0.24600  0.42340  0.37600  1.0000
  H   H30       1.0  0.25400  0.07660  0.37600  1.0000
  H   H31       1.0  0.07660  0.24600  0.37600  1.0000
  H   H32       1.0  0.42340  0.25400  0.37600  1.0000
  C   C65       1.0  0.70140  0.61260  0.67400  1.0000
  C   C66       1.0  0.79860  0.88740  0.67400  1.0000
  C   C67       1.0  0.88740  0.70140  0.67400  1.0000
  C   C68       1.0  0.61260  0.79860  0.67400  1.0000
  C   C69       1.0  0.29860  0.38740  0.32600  1.0000
  C   C70       1.0  0.20140  0.11260  0.32600  1.0000
  C   C71       1.0  0.11260  0.29860  0.32600  1.0000
  C   C72       1.0  0.38740  0.20140  0.32600  1.0000
  C   C73       1.0  0.69510  0.60170  0.83310  1.0000
  C   C74       1.0  0.80490  0.89830  0.83310  1.0000
  C   C75       1.0  0.89830  0.69510  0.83310  1.0000
  C   C76       1.0  0.60170  0.80490  0.83310  1.0000
  C   C77       1.0  0.30490  0.39830  0.16690  1.0000
  C   C78       1.0  0.19510  0.10170  0.16690  1.0000
  C   C79       1.0  0.10170  0.30490  0.16690  1.0000
  C   C80       1.0  0.39830  0.19510  0.16690  1.0000
  H   H33       1.0  0.71420  0.58380  0.88350  1.0000
  H   H34       1.0  0.78580  0.91620  0.88350  1.0000
  H   H35       1.0  0.91620  0.71420  0.88350  1.0000
  H   H36       1.0  0.58380  0.78580  0.88350  1.0000
  H   H37       1.0  0.28580  0.41620  0.11650  1.0000
  H   H38       1.0  0.21420  0.08380  0.11650  1.0000
  H   H39       1.0  0.08380  0.28580  0.11650  1.0000
  H   H40       1.0  0.41620  0.21420  0.11650  1.0000
  C   C81       1.0  0.66150  0.61650  0.91840  1.0000
  C   C82       1.0  0.83850  0.88350  0.91840  1.0000
  C   C83       1.0  0.88350  0.66150  0.91840  1.0000
  C   C84       1.0  0.61650  0.83850  0.91840  1.0000
  C   C85       1.0  0.33850  0.38350  0.08160  1.0000
  C   C86       1.0  0.16150  0.11650  0.08160  1.0000
  C   C87       1.0  0.11650  0.33850  0.08160  1.0000
  C   C88       1.0  0.38350  0.16150  0.08160  1.0000
  H   H41       1.0  0.65760  0.60840  0.02530  1.0000
  H   H42       1.0  0.84240  0.89160  0.02530  1.0000
  H   H43       1.0  0.89160  0.65760  0.02530  1.0000
  H   H44       1.0  0.60840  0.84240  0.02530  1.0000
  H   H45       1.0  0.34240  0.39160  0.97470  1.0000
  H   H46       1.0  0.15760  0.10840  0.97470  1.0000
  H   H47       1.0  0.10840  0.34240  0.97470  1.0000
  H   H48       1.0  0.39160  0.15760  0.97470  1.0000
  C   C89       1.0  0.76760  0.58190  0.31240  1.0000
  C   C90       1.0  0.73240  0.91810  0.31240  1.0000
  C   C91       1.0  0.91810  0.76760  0.31240  1.0000
  C   C92       1.0  0.58190  0.73240  0.31240  1.0000
  C   C93       1.0  0.23240  0.41810  0.68760  1.0000
  C   C94       1.0  0.26760  0.08190  0.68760  1.0000
  C   C95       1.0  0.08190  0.23240  0.68760  1.0000
  C   C96       1.0  0.41810  0.26760  0.68760  1.0000
  C   C97       1.0  0.48590  0.75880  0.07100  1.0000
  C   C98       1.0  0.01410  0.74120  0.07100  1.0000
  C   C99       1.0  0.74120  0.48590  0.07100  1.0000
  C   C100      1.0  0.75880  0.01410  0.07100  1.0000
  C   C101      1.0  0.51410  0.24120  0.92900  1.0000
  C   C102      1.0  0.98590  0.25880  0.92900  1.0000
  C   C103      1.0  0.25880  0.51410  0.92900  1.0000
  C   C104      1.0  0.24120  0.98590  0.92900  1.0000
  C   C105      1.0  0.45980  0.79780  0.06410  1.0000
  C   C106      1.0  0.04020  0.70220  0.06410  1.0000
  C   C107      1.0  0.70220  0.45980  0.06410  1.0000
  C   C108      1.0  0.79780  0.04020  0.06410  1.0000
  C   C109      1.0  0.54020  0.20220  0.93590  1.0000
  C   C110      1.0  0.95980  0.29780  0.93590  1.0000
  C   C111      1.0  0.29780  0.54020  0.93590  1.0000
  C   C112      1.0  0.20220  0.95980  0.93590  1.0000
  C   C113      1.0  0.43090  0.80740  0.19220  1.0000
  C   C114      1.0  0.06910  0.69260  0.19220  1.0000
  C   C115      1.0  0.69260  0.43090  0.19220  1.0000
  C   C116      1.0  0.80740  0.06910  0.19220  1.0000
  C   C117      1.0  0.56910  0.19260  0.80780  1.0000
  C   C118      1.0  0.93090  0.30740  0.80780  1.0000
  C   C119      1.0  0.30740  0.56910  0.80780  1.0000
  C   C120      1.0  0.19260  0.93090  0.80780  1.0000
  H   H49       1.0  0.42790  0.78880  0.27820  1.0000
  H   H50       1.0  0.07210  0.71120  0.27820  1.0000
  H   H51       1.0  0.71120  0.42790  0.27820  1.0000
  H   H52       1.0  0.78880  0.07210  0.27820  1.0000
  H   H53       1.0  0.57210  0.21120  0.72180  1.0000
  H   H54       1.0  0.92790  0.28880  0.72180  1.0000
  H   H55       1.0  0.28880  0.57210  0.72180  1.0000
  H   H56       1.0  0.21120  0.92790  0.72180  1.0000
  C   C121      1.0  0.40820  0.84290  0.18840  1.0000
  C   C122      1.0  0.09180  0.65710  0.18840  1.0000
  C   C123      1.0  0.65710  0.40820  0.18840  1.0000
  C   C124      1.0  0.84290  0.09180  0.18840  1.0000
  C   C125      1.0  0.59180  0.15710  0.81160  1.0000
  C   C126      1.0  0.90820  0.34290  0.81160  1.0000
  C   C127      1.0  0.34290  0.59180  0.81160  1.0000
  C   C128      1.0  0.15710  0.90820  0.81160  1.0000
  H   H57       1.0  0.39000  0.84870  0.27340  1.0000
  H   H58       1.0  0.11000  0.65130  0.27340  1.0000
  H   H59       1.0  0.65130  0.39000  0.27340  1.0000
  H   H60       1.0  0.84870  0.11000  0.27340  1.0000
  H   H61       1.0  0.61000  0.15130  0.72660  1.0000
  H   H62       1.0  0.89000  0.34870  0.72660  1.0000
  H   H63       1.0  0.34870  0.61000  0.72660  1.0000
  H   H64       1.0  0.15130  0.89000  0.72660  1.0000
  C   C129      1.0  0.41110  0.87130  0.06100  1.0000
  C   C130      1.0  0.08890  0.62870  0.06100  1.0000
  C   C131      1.0  0.62870  0.41110  0.06100  1.0000
  C   C132      1.0  0.87130  0.08890  0.06100  1.0000
  C   C133      1.0  0.58890  0.12870  0.93900  1.0000
  C   C134      1.0  0.91110  0.37130  0.93900  1.0000
  C   C135      1.0  0.37130  0.58890  0.93900  1.0000
  C   C136      1.0  0.12870  0.91110  0.93900  1.0000
  C   C137      1.0  0.38720  0.90950  0.05510  1.0000
  C   C138      1.0  0.11280  0.59050  0.05510  1.0000
  C   C139      1.0  0.59050  0.38720  0.05510  1.0000
  C   C140      1.0  0.90950  0.11280  0.05510  1.0000
  C   C141      1.0  0.61280  0.09050  0.94490  1.0000
  C   C142      1.0  0.88720  0.40950  0.94490  1.0000
  C   C143      1.0  0.40950  0.61280  0.94490  1.0000
  C   C144      1.0  0.09050  0.88720  0.94490  1.0000
  H   H65       1.0  0.36910  0.91610  0.13970  1.0000
  H   H66       1.0  0.13090  0.58390  0.13970  1.0000
  H   H67       1.0  0.58390  0.36910  0.13970  1.0000
  H   H68       1.0  0.91610  0.13090  0.13970  1.0000
  H   H69       1.0  0.63090  0.08390  0.86030  1.0000
  H   H70       1.0  0.86910  0.41610  0.86030  1.0000
  H   H71       1.0  0.41610  0.63090  0.86030  1.0000
  H   H72       1.0  0.08390  0.86910  0.86030  1.0000
  C   C145      1.0  0.39060  0.93590  0.92990  1.0000
  C   C146      1.0  0.10940  0.56410  0.92990  1.0000
  C   C147      1.0  0.56410  0.39060  0.92990  1.0000
  C   C148      1.0  0.93590  0.10940  0.92990  1.0000
  C   C149      1.0  0.60940  0.06410  0.07010  1.0000
  C   C150      1.0  0.89060  0.43590  0.07010  1.0000
  C   C151      1.0  0.43590  0.60940  0.07010  1.0000
  C   C152      1.0  0.06410  0.89060  0.07010  1.0000
  C   C153      1.0  0.41820  0.92760  0.79940  1.0000
  C   C154      1.0  0.08180  0.57240  0.79940  1.0000
  C   C155      1.0  0.57240  0.41820  0.79940  1.0000
  C   C156      1.0  0.92760  0.08180  0.79940  1.0000
  C   C157      1.0  0.58180  0.07240  0.20060  1.0000
  C   C158      1.0  0.91820  0.42760  0.20060  1.0000
  C   C159      1.0  0.42760  0.58180  0.20060  1.0000
  C   C160      1.0  0.07240  0.91820  0.20060  1.0000
  H   H73       1.0  0.41960  0.94580  0.71160  1.0000
  H   H74       1.0  0.08040  0.55420  0.71160  1.0000
  H   H75       1.0  0.55420  0.41960  0.71160  1.0000
  H   H76       1.0  0.94580  0.08040  0.71160  1.0000
  H   H77       1.0  0.58040  0.05420  0.28840  1.0000
  H   H78       1.0  0.91960  0.44580  0.28840  1.0000
  H   H79       1.0  0.44580  0.58040  0.28840  1.0000
  H   H80       1.0  0.05420  0.91960  0.28840  1.0000
  C   C161      1.0  0.44260  0.89280  0.80490  1.0000
  C   C162      1.0  0.05740  0.60720  0.80490  1.0000
  C   C163      1.0  0.60720  0.44260  0.80490  1.0000
  C   C164      1.0  0.89280  0.05740  0.80490  1.0000
  C   C165      1.0  0.55740  0.10720  0.19510  1.0000
  C   C166      1.0  0.94260  0.39280  0.19510  1.0000
  C   C167      1.0  0.39280  0.55740  0.19510  1.0000
  C   C168      1.0  0.10720  0.94260  0.19510  1.0000
  H   H81       1.0  0.46170  0.88780  0.72200  1.0000
  H   H82       1.0  0.03830  0.61220  0.72200  1.0000
  H   H83       1.0  0.61220  0.46170  0.72200  1.0000
  H   H84       1.0  0.88780  0.03830  0.72200  1.0000
  H   H85       1.0  0.53830  0.11220  0.27800  1.0000
  H   H86       1.0  0.96170  0.38780  0.27800  1.0000
  H   H87       1.0  0.38780  0.53830  0.27800  1.0000
  H   H88       1.0  0.11220  0.96170  0.27800  1.0000
  C   C169      1.0  0.43960  0.86370  0.93490  1.0000
  C   C170      1.0  0.06040  0.63630  0.93490  1.0000
  C   C171      1.0  0.63630  0.43960  0.93490  1.0000
  C   C172      1.0  0.86370  0.06040  0.93490  1.0000
  C   C173      1.0  0.56040  0.13630  0.06510  1.0000
  C   C174      1.0  0.93960  0.36370  0.06510  1.0000
  C   C175      1.0  0.36370  0.56040  0.06510  1.0000
  C   C176      1.0  0.13630  0.93960  0.06510  1.0000
  C   C177      1.0  0.46300  0.82610  0.94270  1.0000
  C   C178      1.0  0.03700  0.67390  0.94270  1.0000
  C   C179      1.0  0.67390  0.46300  0.94270  1.0000
  C   C180      1.0  0.82610  0.03700  0.94270  1.0000
  C   C181      1.0  0.53700  0.17390  0.05730  1.0000
  C   C182      1.0  0.96300  0.32610  0.05730  1.0000
  C   C183      1.0  0.32610  0.53700  0.05730  1.0000
  C   C184      1.0  0.17390  0.96300  0.05730  1.0000
  H   H89       1.0  0.48190  0.82040  0.85950  1.0000
  H   H90       1.0  0.01810  0.67960  0.85950  1.0000
  H   H91       1.0  0.67960  0.48190  0.85950  1.0000
  H   H92       1.0  0.82040  0.01810  0.85950  1.0000
  H   H93       1.0  0.51810  0.17960  0.14050  1.0000
  H   H94       1.0  0.98190  0.32040  0.14050  1.0000
  H   H95       1.0  0.32040  0.51810  0.14050  1.0000
  H   H96       1.0  0.17960  0.98190  0.14050  1.0000
  C   C185      1.0  0.36190  0.97390  0.92380  1.0000
  C   C186      1.0  0.13810  0.52610  0.92380  1.0000
  C   C187      1.0  0.52610  0.36190  0.92380  1.0000
  C   C188      1.0  0.97390  0.13810  0.92380  1.0000
  C   C189      1.0  0.63810  0.02610  0.07620  1.0000
  C   C190      1.0  0.86190  0.47390  0.07620  1.0000
  C   C191      1.0  0.47390  0.63810  0.07620  1.0000
  C   C192      1.0  0.02610  0.86190  0.07620  1.0000
