data_image0
_chemical_formula_structural       Mn4O28C12H4C8H4C8H4C8H8
_chemical_formula_sum              "Mn4 O28 C36 H20"
_cell_length_a       6.491
_cell_length_b       9.599
_cell_length_c       19.397
_cell_angle_alpha    90
_cell_angle_beta     96.001
_cell_angle_gamma    90

_space_group_name_H-M_alt    "P 1"
_space_group_IT_number       1

loop_
  _space_group_symop_operation_xyz
  'x, y, z'

loop_
  _atom_site_type_symbol
  _atom_site_label
  _atom_site_symmetry_multiplicity
  _atom_site_fract_x
  _atom_site_fract_y
  _atom_site_fract_z
  _atom_site_occupancy
  Mn  Mn1       1.0  0.07126  0.06591  0.09756  1.0000
  Mn  Mn2       1.0  0.92874  0.56591  0.40245  1.0000
  Mn  Mn3       1.0  0.92874  0.93409  0.90244  1.0000
  Mn  Mn4       1.0  0.07126  0.43409  0.59756  1.0000
  O   O1        1.0  0.92060  0.89119  0.05147  1.0000
  O   O2        1.0  0.07940  0.39119  0.44853  1.0000
  O   O3        1.0  0.07940  0.10881  0.94853  1.0000
  O   O4        1.0  0.92060  0.60881  0.55147  1.0000
  O   O5        1.0  0.83829  0.75756  0.96010  1.0000
  O   O6        1.0  0.16171  0.25756  0.53990  1.0000
  O   O7        1.0  0.16171  0.24244  0.03990  1.0000
  O   O8        1.0  0.83829  0.74244  0.46010  1.0000
  O   O9        1.0  0.91320  0.47042  0.30052  1.0000
  O   O10       1.0  0.08680  0.97042  0.19948  1.0000
  O   O11       1.0  0.08680  0.52958  0.69948  1.0000
  O   O12       1.0  0.91320  0.02958  0.80052  1.0000
  O   O13       1.0  0.38530  0.97735  0.08591  1.0000
  O   O14       1.0  0.61470  0.47735  0.41409  1.0000
  O   O15       1.0  0.61470  0.02265  0.91409  1.0000
  O   O16       1.0  0.38530  0.52265  0.58591  1.0000
  O   O17       1.0  0.75454  0.16242  0.09362  1.0000
  O   O18       1.0  0.24546  0.66242  0.40638  1.0000
  O   O19       1.0  0.24546  0.83758  0.90638  1.0000
  O   O20       1.0  0.75454  0.33758  0.59362  1.0000
  O   O21       1.0  0.83183  0.69206  0.29182  1.0000
  O   O22       1.0  0.16817  0.19206  0.20818  1.0000
  O   O23       1.0  0.16817  0.30794  0.70818  1.0000
  O   O24       1.0  0.83183  0.80794  0.79182  1.0000
  O   O25       1.0  0.65409  0.26137  0.99170  1.0000
  O   O26       1.0  0.34591  0.76137  0.50830  1.0000
  O   O27       1.0  0.34591  0.73863  0.00830  1.0000
  O   O28       1.0  0.65409  0.23863  0.49170  1.0000
  C   C1        1.0  0.85940  0.57638  0.26438  1.0000
  C   C2        1.0  0.14060  0.07638  0.23562  1.0000
  C   C3        1.0  0.14060  0.42362  0.73562  1.0000
  C   C4        1.0  0.85940  0.92362  0.76438  1.0000
  C   C5        1.0  0.83120  0.55984  0.18673  1.0000
  C   C6        1.0  0.16880  0.05984  0.31327  1.0000
  C   C7        1.0  0.16880  0.44016  0.81327  1.0000
  C   C8        1.0  0.83120  0.94016  0.68673  1.0000
  C   C9        1.0  0.79620  0.42761  0.15825  1.0000
  C   C10       1.0  0.20380  0.92761  0.34175  1.0000
  C   C11       1.0  0.20380  0.57239  0.84175  1.0000
  C   C12       1.0  0.79620  0.07239  0.65825  1.0000
  H   H1        1.0  0.79400  0.35050  0.18720  1.0000
  H   H2        1.0  0.20600  0.85050  0.31280  1.0000
  H   H3        1.0  0.20600  0.64950  0.81280  1.0000
  H   H4        1.0  0.79400  0.14950  0.68720  1.0000
  C   C13       1.0  0.76440  0.41027  0.08635  1.0000
  C   C14       1.0  0.23560  0.91027  0.41365  1.0000
  C   C15       1.0  0.23560  0.58973  0.91365  1.0000
  C   C16       1.0  0.76440  0.08973  0.58635  1.0000
  C   C17       1.0  0.77930  0.52590  0.04396  1.0000
  C   C18       1.0  0.22070  0.02590  0.45604  1.0000
  C   C19       1.0  0.22070  0.47410  0.95604  1.0000
  C   C20       1.0  0.77930  0.97410  0.54396  1.0000
  H   H5        1.0  0.75830  0.51520  0.99610  1.0000
  H   H6        1.0  0.24170  0.01520  0.50390  1.0000
  H   H7        1.0  0.24170  0.48480  0.00390  1.0000
  H   H8        1.0  0.75830  0.98480  0.49610  1.0000
  C   C21       1.0  0.82510  0.65751  0.07190  1.0000
  C   C22       1.0  0.17490  0.15751  0.42810  1.0000
  C   C23       1.0  0.17490  0.34249  0.92810  1.0000
  C   C24       1.0  0.82510  0.84249  0.57190  1.0000
  C   C25       1.0  0.84650  0.67469  0.14358  1.0000
  C   C26       1.0  0.15350  0.17469  0.35642  1.0000
  C   C27       1.0  0.15350  0.32531  0.85642  1.0000
  C   C28       1.0  0.84650  0.82531  0.64358  1.0000
  H   H9        1.0  0.87110  0.76280  0.16270  1.0000
  H   H10       1.0  0.12890  0.26280  0.33730  1.0000
  H   H11       1.0  0.12890  0.23720  0.83730  1.0000
  H   H12       1.0  0.87110  0.73720  0.66270  1.0000
  C   C29       1.0  0.72080  0.26826  0.05474  1.0000
  C   C30       1.0  0.27920  0.76826  0.44526  1.0000
  C   C31       1.0  0.27920  0.73174  0.94526  1.0000
  C   C32       1.0  0.72080  0.23174  0.55474  1.0000
  C   C33       1.0  0.86250  0.77749  0.02495  1.0000
  C   C34       1.0  0.13750  0.27749  0.47505  1.0000
  C   C35       1.0  0.13750  0.22251  0.97505  1.0000
  C   C36       1.0  0.86250  0.72251  0.52495  1.0000
  H   H13       1.0  0.38400  0.91700  0.05960  1.0000
  H   H14       1.0  0.61600  0.41700  0.44040  1.0000
  H   H15       1.0  0.61600  0.08300  0.94040  1.0000
  H   H16       1.0  0.38400  0.58300  0.55960  1.0000
  H   H17       1.0  0.48100  0.02800  0.07990  1.0000
  H   H18       1.0  0.51900  0.52800  0.42010  1.0000
  H   H19       1.0  0.51900  0.97200  0.92010  1.0000
  H   H20       1.0  0.48100  0.47200  0.57990  1.0000
