data_image0
_chemical_formula_structural       Cd2S8C4H2C2H2C4H2C2H2C6H2C2H2C4H2C2H2C10H2C2H2C4H2C2H2C10H2C2H2C6H2C2H2
_chemical_formula_sum              "Cd2 S8 C64 H32"
_cell_length_a       9.8509
_cell_length_b       9.8882
_cell_length_c       20.8551
_cell_angle_alpha    87.846
_cell_angle_beta     81.167
_cell_angle_gamma    79.911

_space_group_name_H-M_alt    "P 1"
_space_group_IT_number       1

loop_
  _space_group_symop_operation_xyz
  'x, y, z'

loop_
  _atom_site_type_symbol
  _atom_site_label
  _atom_site_symmetry_multiplicity
  _atom_site_fract_x
  _atom_site_fract_y
  _atom_site_fract_z
  _atom_site_occupancy
  Cd  Cd1       1.0  0.22780  0.36204  0.74259  1.0000
  Cd  Cd2       1.0  0.77220  0.63796  0.25741  1.0000
  S   S1        1.0  0.35700  0.29110  0.63250  1.0000
  S   S2        1.0  0.64300  0.70890  0.36750  1.0000
  S   S3        1.0  0.93630  0.41330  0.25937  1.0000
  S   S4        1.0  0.06370  0.58670  0.74063  1.0000
  S   S5        1.0  0.08650  0.18010  0.79166  1.0000
  S   S6        1.0  0.91350  0.81990  0.20834  1.0000
  S   S7        1.0  0.44539  0.37906  0.79278  1.0000
  S   S8        1.0  0.55461  0.62094  0.20722  1.0000
  C   C1        1.0  0.22890  0.28420  0.58270  1.0000
  C   C2        1.0  0.77110  0.71580  0.41730  1.0000
  C   C3        1.0  0.12880  0.19990  0.60010  1.0000
  C   C4        1.0  0.87120  0.80010  0.39990  1.0000
  H   H1        1.0  0.12740  0.15110  0.64020  1.0000
  H   H2        1.0  0.87260  0.84890  0.35980  1.0000
  C   C5        1.0  0.03350  0.18570  0.56110  1.0000
  C   C6        1.0  0.96650  0.81430  0.43890  1.0000
  H   H3        1.0  0.96550  0.12960  0.57560  1.0000
  H   H4        1.0  0.03450  0.87040  0.42440  1.0000
  C   C7        1.0  0.03200  0.25020  0.50100  1.0000
  C   C8        1.0  0.96800  0.74980  0.49900  1.0000
  C   C9        1.0  0.93510  0.23520  0.45840  1.0000
  C   C10       1.0  0.06490  0.76480  0.54160  1.0000
  H   H5        1.0  0.86810  0.17720  0.47130  1.0000
  H   H6        1.0  0.13190  0.82280  0.52870  1.0000
  C   C11       1.0  0.93570  0.30010  0.40100  1.0000
  C   C12       1.0  0.06430  0.69990  0.59900  1.0000
  H   H7        1.0  0.86810  0.28840  0.37470  1.0000
  H   H8        1.0  0.13190  0.71160  0.62530  1.0000
  C   C13       1.0  0.03500  0.38640  0.37840  1.0000
  C   C14       1.0  0.96500  0.61360  0.62160  1.0000
  C   C15       1.0  0.04320  0.44970  0.31660  1.0000
  C   C16       1.0  0.95680  0.55030  0.68340  1.0000
  C   C17       1.0  0.14360  0.53360  0.29740  1.0000
  C   C18       1.0  0.85640  0.46640  0.70260  1.0000
  H   H9        1.0  0.14910  0.57580  0.25560  1.0000
  H   H10       1.0  0.85090  0.42420  0.74440  1.0000
  C   C19       1.0  0.23510  0.55560  0.33890  1.0000
  C   C20       1.0  0.76490  0.44440  0.66110  1.0000
  H   H11       1.0  0.30180  0.61340  0.32500  1.0000
  H   H12       1.0  0.69820  0.38660  0.67500  1.0000
  C   C21       1.0  0.23140  0.49520  0.40030  1.0000
  C   C22       1.0  0.76860  0.50480  0.59970  1.0000
  C   C23       1.0  0.32590  0.51310  0.44320  1.0000
  C   C24       1.0  0.67410  0.48690  0.55680  1.0000
  H   H13       1.0  0.39280  0.57130  0.43070  1.0000
  H   H14       1.0  0.60720  0.42870  0.56930  1.0000
  C   C25       1.0  0.32190  0.44780  0.50220  1.0000
  C   C26       1.0  0.67810  0.55220  0.49780  1.0000
  H   H15       1.0  0.38460  0.46390  0.53040  1.0000
  H   H16       1.0  0.61540  0.53610  0.46960  1.0000
  C   C27       1.0  0.22680  0.35650  0.52280  1.0000
  C   C28       1.0  0.77320  0.64350  0.47720  1.0000
  C   C29       1.0  0.12930  0.33890  0.48140  1.0000
  C   C30       1.0  0.87070  0.66110  0.51860  1.0000
  C   C31       1.0  0.13080  0.40730  0.42120  1.0000
  C   C32       1.0  0.86920  0.59270  0.57880  1.0000
  C   C33       1.0  0.08290  0.17040  0.87620  1.0000
  C   C34       1.0  0.91710  0.82960  0.12380  1.0000
  C   C35       1.0  0.12580  0.27070  0.90980  1.0000
  C   C36       1.0  0.87420  0.72930  0.09020  1.0000
  H   H17       1.0  0.15700  0.34650  0.88640  1.0000
  H   H18       1.0  0.84300  0.65350  0.11360  1.0000
  C   C37       1.0  0.12430  0.26320  0.97640  1.0000
  C   C38       1.0  0.87570  0.73680  0.02360  1.0000
  H   H19       1.0  0.15670  0.33250  0.99730  1.0000
  H   H20       1.0  0.84330  0.66750  0.00270  1.0000
  C   C39       1.0  0.07640  0.15680  0.01300  1.0000
  C   C40       1.0  0.92360  0.84320  0.98700  1.0000
  C   C41       1.0  0.06470  0.14980  0.08260  1.0000
  C   C42       1.0  0.93530  0.85020  0.91740  1.0000
  H   H21       1.0  0.09480  0.21890  0.10460  1.0000
  H   H22       1.0  0.90520  0.78110  0.89540  1.0000
  C   C43       1.0  0.01290  0.04890  0.11720  1.0000
  C   C44       1.0  0.98710  0.95110  0.88280  1.0000
  H   H23       1.0  0.00660  0.04910  0.16320  1.0000
  H   H24       1.0  0.99340  0.95090  0.83680  1.0000
  C   C45       1.0  0.02770  0.05400  0.98160  1.0000
  C   C46       1.0  0.97230  0.94600  0.01840  1.0000
  C   C47       1.0  0.03330  0.05970  0.91280  1.0000
  C   C48       1.0  0.96670  0.94030  0.08720  1.0000
  C   C49       1.0  0.40290  0.46460  0.86750  1.0000
  C   C50       1.0  0.59710  0.53540  0.13250  1.0000
  C   C51       1.0  0.49150  0.43800  0.91600  1.0000
  C   C52       1.0  0.50850  0.56200  0.08400  1.0000
  C   C53       1.0  0.61790  0.33980  0.90790  1.0000
  C   C54       1.0  0.38210  0.66020  0.09210  1.0000
  H   H25       1.0  0.64330  0.28880  0.86890  1.0000
  H   H26       1.0  0.35670  0.71120  0.13110  1.0000
  C   C55       1.0  0.70160  0.31760  0.95340  1.0000
  C   C56       1.0  0.29840  0.68240  0.04660  1.0000
  H   H27       1.0  0.78560  0.25280  0.94540  1.0000
  H   H28       1.0  0.21440  0.74720  0.05460  1.0000
  C   C57       1.0  0.45480  0.51180  0.97560  1.0000
  C   C58       1.0  0.54520  0.48820  0.02440  1.0000
  C   C59       1.0  0.33180  0.61130  0.98600  1.0000
  C   C60       1.0  0.66820  0.38870  0.01400  1.0000
  C   C61       1.0  0.24860  0.63640  0.93730  1.0000
  C   C62       1.0  0.75140  0.36360  0.06270  1.0000
  H   H29       1.0  0.16630  0.70370  0.94360  1.0000
  H   H30       1.0  0.83370  0.29630  0.05640  1.0000
  C   C63       1.0  0.28400  0.56440  0.87950  1.0000
  C   C64       1.0  0.71600  0.43560  0.12050  1.0000
  H   H31       1.0  0.22500  0.58400  0.84710  1.0000
  H   H32       1.0  0.77500  0.41600  0.15290  1.0000
