data_image0
_chemical_formula_structural       C162H18C18H36C18H36C18H36C18H36C18H18C18H18C18H36C18H36C18H36C18H36C18H18C18H18C18H36C18H36C18H36C18H36C18H18Cu27Mo18N162H36N18H36N18H36N18H36N18H36N18H36
_chemical_formula_sum              "C468 H756 Cu27 Mo18 N252"
_cell_length_a       29.241
_cell_length_b       29.241
_cell_length_c       27.242
_cell_angle_alpha    90
_cell_angle_beta     90
_cell_angle_gamma    120

_space_group_name_H-M_alt    "P 1"
_space_group_IT_number       1

loop_
  _space_group_symop_operation_xyz
  'x, y, z'

loop_
  _atom_site_type_symbol
  _atom_site_label
  _atom_site_symmetry_multiplicity
  _atom_site_fract_x
  _atom_site_fract_y
  _atom_site_fract_z
  _atom_site_occupancy
  C   C1        1.0  0.32327  0.03741  0.46291  1.0000
  C   C2        1.0  0.96259  0.28586  0.46291  1.0000
  C   C3        1.0  0.71414  0.67673  0.46291  1.0000
  C   C4        1.0  0.98994  0.37074  0.79624  1.0000
  C   C5        1.0  0.62926  0.61919  0.79624  1.0000
  C   C6        1.0  0.38081  0.01006  0.79624  1.0000
  C   C7        1.0  0.65660  0.70408  0.12958  1.0000
  C   C8        1.0  0.29592  0.95253  0.12958  1.0000
  C   C9        1.0  0.04747  0.34340  0.12958  1.0000
  C   C10       1.0  0.67673  0.96259  0.53709  1.0000
  C   C11       1.0  0.03741  0.71414  0.53709  1.0000
  C   C12       1.0  0.28586  0.32327  0.53709  1.0000
  C   C13       1.0  0.01006  0.62926  0.20376  1.0000
  C   C14       1.0  0.37074  0.38081  0.20376  1.0000
  C   C15       1.0  0.61919  0.98994  0.20376  1.0000
  C   C16       1.0  0.34340  0.29592  0.87042  1.0000
  C   C17       1.0  0.70408  0.04747  0.87042  1.0000
  C   C18       1.0  0.95253  0.65660  0.87042  1.0000
  C   C19       1.0  0.37601  0.07183  0.54038  1.0000
  C   C20       1.0  0.92817  0.30418  0.54038  1.0000
  C   C21       1.0  0.69582  0.62399  0.54038  1.0000
  C   C22       1.0  0.04268  0.40516  0.87371  1.0000
  C   C23       1.0  0.59484  0.63751  0.87371  1.0000
  C   C24       1.0  0.36249  0.95732  0.87371  1.0000
  C   C25       1.0  0.70934  0.73850  0.20705  1.0000
  C   C26       1.0  0.26150  0.97085  0.20705  1.0000
  C   C27       1.0  0.02915  0.29066  0.20705  1.0000
  C   C28       1.0  0.62399  0.92817  0.45962  1.0000
  C   C29       1.0  0.07183  0.69582  0.45962  1.0000
  C   C30       1.0  0.30418  0.37601  0.45962  1.0000
  C   C31       1.0  0.95732  0.59484  0.12629  1.0000
  C   C32       1.0  0.40516  0.36249  0.12629  1.0000
  C   C33       1.0  0.63751  0.04268  0.12629  1.0000
  C   C34       1.0  0.29066  0.26150  0.79295  1.0000
  C   C35       1.0  0.73850  0.02915  0.79295  1.0000
  C   C36       1.0  0.97085  0.70934  0.79295  1.0000
  C   C37       1.0  0.38900  0.00449  0.48294  1.0000
  C   C38       1.0  0.99551  0.38451  0.48294  1.0000
  C   C39       1.0  0.61549  0.61100  0.48294  1.0000
  C   C40       1.0  0.05567  0.33782  0.81627  1.0000
  C   C41       1.0  0.66218  0.71784  0.81627  1.0000
  C   C42       1.0  0.28216  0.94433  0.81627  1.0000
  C   C43       1.0  0.72233  0.67116  0.14961  1.0000
  C   C44       1.0  0.32884  0.05118  0.14961  1.0000
  C   C45       1.0  0.94882  0.27767  0.14961  1.0000
  C   C46       1.0  0.61100  0.99551  0.51706  1.0000
  C   C47       1.0  0.00449  0.61549  0.51706  1.0000
  C   C48       1.0  0.38451  0.38900  0.51706  1.0000
  C   C49       1.0  0.94433  0.66218  0.18373  1.0000
  C   C50       1.0  0.33782  0.28216  0.18373  1.0000
  C   C51       1.0  0.71784  0.05567  0.18373  1.0000
  C   C52       1.0  0.27767  0.32884  0.85039  1.0000
  C   C53       1.0  0.67116  0.94882  0.85039  1.0000
  C   C54       1.0  0.05118  0.72233  0.85039  1.0000
  C   C55       1.0  0.36874  0.99181  0.58158  1.0000
  C   C56       1.0  0.00819  0.37693  0.58158  1.0000
  C   C57       1.0  0.62307  0.63126  0.58158  1.0000
  C   C58       1.0  0.03541  0.32514  0.91491  1.0000
  C   C59       1.0  0.67486  0.71026  0.91491  1.0000
  C   C60       1.0  0.28974  0.96459  0.91491  1.0000
  C   C61       1.0  0.70207  0.65848  0.24825  1.0000
  C   C62       1.0  0.34152  0.04360  0.24825  1.0000
  C   C63       1.0  0.95640  0.29793  0.24825  1.0000
  C   C64       1.0  0.63126  0.00819  0.41842  1.0000
  C   C65       1.0  0.99181  0.62307  0.41842  1.0000
  C   C66       1.0  0.37693  0.36874  0.41842  1.0000
  C   C67       1.0  0.96459  0.67486  0.08509  1.0000
  C   C68       1.0  0.32514  0.28974  0.08509  1.0000
  C   C69       1.0  0.71026  0.03541  0.08509  1.0000
  C   C70       1.0  0.29793  0.34152  0.75175  1.0000
  C   C71       1.0  0.65848  0.95640  0.75175  1.0000
  C   C72       1.0  0.04360  0.70207  0.75175  1.0000
  C   C73       1.0  0.31187  0.91450  0.51270  1.0000
  C   C74       1.0  0.08550  0.39737  0.51270  1.0000
  C   C75       1.0  0.60263  0.68813  0.51270  1.0000
  C   C76       1.0  0.97854  0.24783  0.84603  1.0000
  C   C77       1.0  0.75217  0.73070  0.84603  1.0000
  C   C78       1.0  0.26930  0.02146  0.84603  1.0000
  C   C79       1.0  0.64520  0.58117  0.17937  1.0000
  C   C80       1.0  0.41883  0.06404  0.17937  1.0000
  C   C81       1.0  0.93596  0.35480  0.17937  1.0000
  C   C82       1.0  0.68813  0.08550  0.48730  1.0000
  C   C83       1.0  0.91450  0.60263  0.48730  1.0000
  C   C84       1.0  0.39737  0.31187  0.48730  1.0000
  C   C85       1.0  0.02146  0.75217  0.15397  1.0000
  C   C86       1.0  0.24783  0.26930  0.15397  1.0000
  C   C87       1.0  0.73070  0.97854  0.15397  1.0000
  C   C88       1.0  0.35480  0.41883  0.82063  1.0000
  C   C89       1.0  0.58117  0.93596  0.82063  1.0000
  C   C90       1.0  0.06404  0.64520  0.82063  1.0000
  C   C91       1.0  0.26528  0.93765  0.57743  1.0000
  C   C92       1.0  0.06235  0.32763  0.57743  1.0000
  C   C93       1.0  0.67237  0.73472  0.57743  1.0000
  C   C94       1.0  0.93195  0.27098  0.91076  1.0000
  C   C95       1.0  0.72902  0.66096  0.91076  1.0000
  C   C96       1.0  0.33904  0.06805  0.91076  1.0000
  C   C97       1.0  0.59861  0.60432  0.24410  1.0000
  C   C98       1.0  0.39568  0.99430  0.24410  1.0000
  C   C99       1.0  0.00570  0.40139  0.24410  1.0000
  C   C100      1.0  0.73472  0.06235  0.42257  1.0000
  C   C101      1.0  0.93765  0.67237  0.42257  1.0000
  C   C102      1.0  0.32763  0.26528  0.42257  1.0000
  C   C103      1.0  0.06805  0.72902  0.08924  1.0000
  C   C104      1.0  0.27098  0.33904  0.08924  1.0000
  C   C105      1.0  0.66096  0.93195  0.08924  1.0000
  C   C106      1.0  0.40139  0.39568  0.75590  1.0000
  C   C107      1.0  0.60432  0.00570  0.75590  1.0000
  C   C108      1.0  0.99430  0.59861  0.75590  1.0000
  C   C109      1.0  0.25320  0.94370  0.48050  1.0000
  C   C110      1.0  0.05630  0.30950  0.48050  1.0000
  C   C111      1.0  0.69050  0.74680  0.48050  1.0000
  C   C112      1.0  0.91987  0.27703  0.81383  1.0000
  C   C113      1.0  0.72297  0.64283  0.81383  1.0000
  C   C114      1.0  0.35717  0.08013  0.81383  1.0000
  C   C115      1.0  0.58653  0.61037  0.14717  1.0000
  C   C116      1.0  0.38963  0.97617  0.14717  1.0000
  C   C117      1.0  0.02383  0.41347  0.14717  1.0000
  C   C118      1.0  0.74680  0.05630  0.51950  1.0000
  C   C119      1.0  0.94370  0.69050  0.51950  1.0000
  C   C120      1.0  0.30950  0.25320  0.51950  1.0000
  C   C121      1.0  0.08013  0.72297  0.18617  1.0000
  C   C122      1.0  0.27703  0.35717  0.18617  1.0000
  C   C123      1.0  0.64283  0.91987  0.18617  1.0000
  C   C124      1.0  0.41347  0.38963  0.85283  1.0000
  C   C125      1.0  0.61037  0.02383  0.85283  1.0000
  C   C126      1.0  0.97617  0.58653  0.85283  1.0000
  C   C127      1.0  0.27400  0.02250  0.54838  1.0000
  C   C128      1.0  0.97750  0.25150  0.54838  1.0000
  C   C129      1.0  0.74850  0.72600  0.54838  1.0000
  C   C130      1.0  0.94067  0.35583  0.88171  1.0000
  C   C131      1.0  0.64417  0.58483  0.88171  1.0000
  C   C132      1.0  0.41517  0.05933  0.88171  1.0000
  C   C133      1.0  0.60733  0.68917  0.21505  1.0000
  C   C134      1.0  0.31083  0.91817  0.21505  1.0000
  C   C135      1.0  0.08183  0.39267  0.21505  1.0000
  C   C136      1.0  0.72600  0.97750  0.45162  1.0000
  C   C137      1.0  0.02250  0.74850  0.45162  1.0000
  C   C138      1.0  0.25150  0.27400  0.45162  1.0000
  C   C139      1.0  0.05933  0.64417  0.11829  1.0000
  C   C140      1.0  0.35583  0.41517  0.11829  1.0000
  C   C141      1.0  0.58483  0.94067  0.11829  1.0000
  C   C142      1.0  0.39267  0.31083  0.78495  1.0000
  C   C143      1.0  0.68917  0.08183  0.78495  1.0000
  C   C144      1.0  0.91817  0.60733  0.78495  1.0000
  C   C145      1.0  0.43732  0.21330  0.42330  1.0000
  C   C146      1.0  0.78670  0.22402  0.42330  1.0000
  C   C147      1.0  0.77598  0.56268  0.42330  1.0000
  C   C148      1.0  0.10399  0.54663  0.75663  1.0000
  C   C149      1.0  0.45337  0.55735  0.75663  1.0000
  C   C150      1.0  0.44265  0.89601  0.75663  1.0000
  C   C151      1.0  0.77065  0.87997  0.08997  1.0000
  C   C152      1.0  0.12003  0.89069  0.08997  1.0000
  C   C153      1.0  0.10931  0.22935  0.08997  1.0000
  C   C154      1.0  0.56268  0.78670  0.57670  1.0000
  C   C155      1.0  0.21330  0.77598  0.57670  1.0000
  C   C156      1.0  0.22402  0.43732  0.57670  1.0000
  C   C157      1.0  0.89601  0.45337  0.24337  1.0000
  C   C158      1.0  0.54663  0.44265  0.24337  1.0000
  C   C159      1.0  0.55735  0.10399  0.24337  1.0000
  C   C160      1.0  0.22935  0.12003  0.91003  1.0000
  C   C161      1.0  0.87997  0.10931  0.91003  1.0000
  C   C162      1.0  0.89069  0.77065  0.91003  1.0000
  H   H1        1.0  0.43840  0.24500  0.41010  1.0000
  H   H2        1.0  0.75500  0.19340  0.41010  1.0000
  H   H3        1.0  0.80660  0.56160  0.41010  1.0000
  H   H4        1.0  0.10507  0.57833  0.74343  1.0000
  H   H5        1.0  0.42167  0.52673  0.74343  1.0000
  H   H6        1.0  0.47327  0.89493  0.74343  1.0000
  H   H7        1.0  0.77173  0.91167  0.07677  1.0000
  H   H8        1.0  0.08833  0.86007  0.07677  1.0000
  H   H9        1.0  0.13993  0.22827  0.07677  1.0000
  H   H10       1.0  0.56160  0.75500  0.58990  1.0000
  H   H11       1.0  0.24500  0.80660  0.58990  1.0000
  H   H12       1.0  0.19340  0.43840  0.58990  1.0000
  H   H13       1.0  0.89493  0.42167  0.25657  1.0000
  H   H14       1.0  0.57833  0.47327  0.25657  1.0000
  H   H15       1.0  0.52673  0.10507  0.25657  1.0000
  H   H16       1.0  0.22827  0.08833  0.92323  1.0000
  H   H17       1.0  0.91167  0.13993  0.92323  1.0000
  H   H18       1.0  0.86007  0.77173  0.92323  1.0000
  C   C163      1.0  0.49024  0.22946  0.44716  1.0000
  C   C164      1.0  0.77054  0.26078  0.44716  1.0000
  C   C165      1.0  0.73922  0.50976  0.44716  1.0000
  C   C166      1.0  0.15691  0.56279  0.78049  1.0000
  C   C167      1.0  0.43721  0.59411  0.78049  1.0000
  C   C168      1.0  0.40589  0.84309  0.78049  1.0000
  C   C169      1.0  0.82357  0.89613  0.11383  1.0000
  C   C170      1.0  0.10387  0.92745  0.11383  1.0000
  C   C171      1.0  0.07255  0.17643  0.11383  1.0000
  C   C172      1.0  0.50976  0.77054  0.55284  1.0000
  C   C173      1.0  0.22946  0.73922  0.55284  1.0000
  C   C174      1.0  0.26078  0.49024  0.55284  1.0000
  C   C175      1.0  0.84309  0.43721  0.21951  1.0000
  C   C176      1.0  0.56279  0.40589  0.21951  1.0000
  C   C177      1.0  0.59411  0.15691  0.21951  1.0000
  C   C178      1.0  0.17643  0.10387  0.88617  1.0000
  C   C179      1.0  0.89613  0.07255  0.88617  1.0000
  C   C180      1.0  0.92745  0.82357  0.88617  1.0000
  H   H19       1.0  0.48990  0.19820  0.45960  1.0000
  H   H20       1.0  0.80180  0.29170  0.45960  1.0000
  H   H21       1.0  0.70830  0.51010  0.45960  1.0000
  H   H22       1.0  0.15657  0.53153  0.79293  1.0000
  H   H23       1.0  0.46847  0.62503  0.79293  1.0000
  H   H24       1.0  0.37497  0.84343  0.79293  1.0000
  H   H25       1.0  0.82323  0.86487  0.12627  1.0000
  H   H26       1.0  0.13513  0.95837  0.12627  1.0000
  H   H27       1.0  0.04163  0.17677  0.12627  1.0000
  H   H28       1.0  0.51010  0.80180  0.54040  1.0000
  H   H29       1.0  0.19820  0.70830  0.54040  1.0000
  H   H30       1.0  0.29170  0.48990  0.54040  1.0000
  H   H31       1.0  0.84343  0.46847  0.20707  1.0000
  H   H32       1.0  0.53153  0.37497  0.20707  1.0000
  H   H33       1.0  0.62503  0.15657  0.20707  1.0000
  H   H34       1.0  0.17677  0.13513  0.87373  1.0000
  H   H35       1.0  0.86487  0.04163  0.87373  1.0000
  H   H36       1.0  0.95837  0.82323  0.87373  1.0000
  H   H37       1.0  0.49540  0.25250  0.47480  1.0000
  H   H38       1.0  0.74750  0.24290  0.47480  1.0000
  H   H39       1.0  0.75710  0.50460  0.47480  1.0000
  H   H40       1.0  0.16207  0.58583  0.80813  1.0000
  H   H41       1.0  0.41417  0.57623  0.80813  1.0000
  H   H42       1.0  0.42377  0.83793  0.80813  1.0000
  H   H43       1.0  0.82873  0.91917  0.14147  1.0000
  H   H44       1.0  0.08083  0.90957  0.14147  1.0000
  H   H45       1.0  0.09043  0.17127  0.14147  1.0000
  H   H46       1.0  0.50460  0.74750  0.52520  1.0000
  H   H47       1.0  0.25250  0.75710  0.52520  1.0000
  H   H48       1.0  0.24290  0.49540  0.52520  1.0000
  H   H49       1.0  0.83793  0.41417  0.19187  1.0000
  H   H50       1.0  0.58583  0.42377  0.19187  1.0000
  H   H51       1.0  0.57623  0.16207  0.19187  1.0000
  H   H52       1.0  0.17127  0.08083  0.85853  1.0000
  H   H53       1.0  0.91917  0.09043  0.85853  1.0000
  H   H54       1.0  0.90957  0.82873  0.85853  1.0000
  C   C181      1.0  0.53675  0.25832  0.41097  1.0000
  C   C182      1.0  0.74168  0.27843  0.41097  1.0000
  C   C183      1.0  0.72157  0.46325  0.41097  1.0000
  C   C184      1.0  0.20342  0.59165  0.74430  1.0000
  C   C185      1.0  0.40835  0.61176  0.74430  1.0000
  C   C186      1.0  0.38824  0.79658  0.74430  1.0000
  C   C187      1.0  0.87008  0.92499  0.07764  1.0000
  C   C188      1.0  0.07501  0.94510  0.07764  1.0000
  C   C189      1.0  0.05490  0.12992  0.07764  1.0000
  C   C190      1.0  0.46325  0.74168  0.58903  1.0000
  C   C191      1.0  0.25832  0.72157  0.58903  1.0000
  C   C192      1.0  0.27843  0.53675  0.58903  1.0000
  C   C193      1.0  0.79658  0.40835  0.25570  1.0000
  C   C194      1.0  0.59165  0.38824  0.25570  1.0000
  C   C195      1.0  0.61176  0.20342  0.25570  1.0000
  C   C196      1.0  0.12992  0.07501  0.92236  1.0000
  C   C197      1.0  0.92499  0.05490  0.92236  1.0000
  C   C198      1.0  0.94510  0.87008  0.92236  1.0000
  H   H55       1.0  0.53820  0.29020  0.39890  1.0000
  H   H56       1.0  0.70980  0.24800  0.39890  1.0000
  H   H57       1.0  0.75200  0.46180  0.39890  1.0000
  H   H58       1.0  0.20487  0.62353  0.73223  1.0000
  H   H59       1.0  0.37647  0.58133  0.73223  1.0000
  H   H60       1.0  0.41867  0.79513  0.73223  1.0000
  H   H61       1.0  0.87153  0.95687  0.06557  1.0000
  H   H62       1.0  0.04313  0.91467  0.06557  1.0000
  H   H63       1.0  0.08533  0.12847  0.06557  1.0000
  H   H64       1.0  0.46180  0.70980  0.60110  1.0000
  H   H65       1.0  0.29020  0.75200  0.60110  1.0000
  H   H66       1.0  0.24800  0.53820  0.60110  1.0000
  H   H67       1.0  0.79513  0.37647  0.26777  1.0000
  H   H68       1.0  0.62353  0.41867  0.26777  1.0000
  H   H69       1.0  0.58133  0.20487  0.26777  1.0000
  H   H70       1.0  0.12847  0.04313  0.93443  1.0000
  H   H71       1.0  0.95687  0.08533  0.93443  1.0000
  H   H72       1.0  0.91467  0.87153  0.93443  1.0000
  H   H73       1.0  0.56990  0.26800  0.42730  1.0000
  H   H74       1.0  0.73200  0.30190  0.42730  1.0000
  H   H75       1.0  0.69810  0.43010  0.42730  1.0000
  H   H76       1.0  0.23657  0.60133  0.76063  1.0000
  H   H77       1.0  0.39867  0.63523  0.76063  1.0000
  H   H78       1.0  0.36477  0.76343  0.76063  1.0000
  H   H79       1.0  0.90323  0.93467  0.09397  1.0000
  H   H80       1.0  0.06533  0.96857  0.09397  1.0000
  H   H81       1.0  0.03143  0.09677  0.09397  1.0000
  H   H82       1.0  0.43010  0.73200  0.57270  1.0000
  H   H83       1.0  0.26800  0.69810  0.57270  1.0000
  H   H84       1.0  0.30190  0.56990  0.57270  1.0000
  H   H85       1.0  0.76343  0.39867  0.23937  1.0000
  H   H86       1.0  0.60133  0.36477  0.23937  1.0000
  H   H87       1.0  0.63523  0.23657  0.23937  1.0000
  H   H88       1.0  0.09677  0.06533  0.90603  1.0000
  H   H89       1.0  0.93467  0.03143  0.90603  1.0000
  H   H90       1.0  0.96857  0.90323  0.90603  1.0000
  C   C199      1.0  0.52780  0.22070  0.36841  1.0000
  C   C200      1.0  0.77930  0.30710  0.36841  1.0000
  C   C201      1.0  0.69290  0.47220  0.36841  1.0000
  C   C202      1.0  0.19447  0.55403  0.70174  1.0000
  C   C203      1.0  0.44597  0.64043  0.70174  1.0000
  C   C204      1.0  0.35957  0.80553  0.70174  1.0000
  C   C205      1.0  0.86113  0.88737  0.03508  1.0000
  C   C206      1.0  0.11263  0.97377  0.03508  1.0000
  C   C207      1.0  0.02623  0.13887  0.03508  1.0000
  C   C208      1.0  0.47220  0.77930  0.63159  1.0000
  C   C209      1.0  0.22070  0.69290  0.63159  1.0000
  C   C210      1.0  0.30710  0.52780  0.63159  1.0000
  C   C211      1.0  0.80553  0.44597  0.29826  1.0000
  C   C212      1.0  0.55403  0.35957  0.29826  1.0000
  C   C213      1.0  0.64043  0.19447  0.29826  1.0000
  C   C214      1.0  0.13887  0.11263  0.96492  1.0000
  C   C215      1.0  0.88737  0.02623  0.96492  1.0000
  C   C216      1.0  0.97377  0.86113  0.96492  1.0000
  H   H91       1.0  0.52860  0.18990  0.38050  1.0000
  H   H92       1.0  0.81010  0.33870  0.38050  1.0000
  H   H93       1.0  0.66130  0.47140  0.38050  1.0000
  H   H94       1.0  0.19527  0.52323  0.71383  1.0000
  H   H95       1.0  0.47677  0.67203  0.71383  1.0000
  H   H96       1.0  0.32797  0.80473  0.71383  1.0000
  H   H97       1.0  0.86193  0.85657  0.04717  1.0000
  H   H98       1.0  0.14343  0.00537  0.04717  1.0000
  H   H99       1.0  0.99463  0.13807  0.04717  1.0000
  H   H100      1.0  0.47140  0.81010  0.61950  1.0000
  H   H101      1.0  0.18990  0.66130  0.61950  1.0000
  H   H102      1.0  0.33870  0.52860  0.61950  1.0000
  H   H103      1.0  0.80473  0.47677  0.28617  1.0000
  H   H104      1.0  0.52323  0.32797  0.28617  1.0000
  H   H105      1.0  0.67203  0.19527  0.28617  1.0000
  H   H106      1.0  0.13807  0.14343  0.95283  1.0000
  H   H107      1.0  0.85657  0.99463  0.95283  1.0000
  H   H108      1.0  0.00537  0.86193  0.95283  1.0000
  H   H109      1.0  0.55580  0.23820  0.34440  1.0000
  H   H110      1.0  0.76180  0.31760  0.34440  1.0000
  H   H111      1.0  0.68240  0.44420  0.34440  1.0000
  H   H112      1.0  0.22247  0.57153  0.67773  1.0000
  H   H113      1.0  0.42847  0.65093  0.67773  1.0000
  H   H114      1.0  0.34907  0.77753  0.67773  1.0000
  H   H115      1.0  0.88913  0.90487  0.01107  1.0000
  H   H116      1.0  0.09513  0.98427  0.01107  1.0000
  H   H117      1.0  0.01573  0.11087  0.01107  1.0000
  H   H118      1.0  0.44420  0.76180  0.65560  1.0000
  H   H119      1.0  0.23820  0.68240  0.65560  1.0000
  H   H120      1.0  0.31760  0.55580  0.65560  1.0000
  H   H121      1.0  0.77753  0.42847  0.32227  1.0000
  H   H122      1.0  0.57153  0.34907  0.32227  1.0000
  H   H123      1.0  0.65093  0.22247  0.32227  1.0000
  H   H124      1.0  0.11087  0.09513  0.98893  1.0000
  H   H125      1.0  0.90487  0.01573  0.98893  1.0000
  H   H126      1.0  0.98427  0.88913  0.98893  1.0000
  C   C217      1.0  0.47423  0.20358  0.34422  1.0000
  C   C218      1.0  0.79642  0.27065  0.34422  1.0000
  C   C219      1.0  0.72935  0.52577  0.34422  1.0000
  C   C220      1.0  0.14090  0.53691  0.67755  1.0000
  C   C221      1.0  0.46309  0.60398  0.67755  1.0000
  C   C222      1.0  0.39602  0.85910  0.67755  1.0000
  C   C223      1.0  0.80756  0.87025  0.01089  1.0000
  C   C224      1.0  0.12975  0.93732  0.01089  1.0000
  C   C225      1.0  0.06268  0.19244  0.01089  1.0000
  C   C226      1.0  0.52577  0.79642  0.65578  1.0000
  C   C227      1.0  0.20358  0.72935  0.65578  1.0000
  C   C228      1.0  0.27065  0.47423  0.65578  1.0000
  C   C229      1.0  0.85910  0.46309  0.32245  1.0000
  C   C230      1.0  0.53691  0.39602  0.32245  1.0000
  C   C231      1.0  0.60398  0.14090  0.32245  1.0000
  C   C232      1.0  0.19244  0.12975  0.98911  1.0000
  C   C233      1.0  0.87025  0.06268  0.98911  1.0000
  C   C234      1.0  0.93732  0.80756  0.98911  1.0000
  H   H127      1.0  0.46890  0.17970  0.31730  1.0000
  H   H128      1.0  0.82030  0.28920  0.31730  1.0000
  H   H129      1.0  0.71080  0.53110  0.31730  1.0000
  H   H130      1.0  0.13557  0.51303  0.65063  1.0000
  H   H131      1.0  0.48697  0.62253  0.65063  1.0000
  H   H132      1.0  0.37747  0.86443  0.65063  1.0000
  H   H133      1.0  0.80223  0.84637  0.98397  1.0000
  H   H134      1.0  0.15363  0.95587  0.98397  1.0000
  H   H135      1.0  0.04413  0.19777  0.98397  1.0000
  H   H136      1.0  0.53110  0.82030  0.68270  1.0000
  H   H137      1.0  0.17970  0.71080  0.68270  1.0000
  H   H138      1.0  0.28920  0.46890  0.68270  1.0000
  H   H139      1.0  0.86443  0.48697  0.34937  1.0000
  H   H140      1.0  0.51303  0.37747  0.34937  1.0000
  H   H141      1.0  0.62253  0.13557  0.34937  1.0000
  H   H142      1.0  0.19777  0.15363  0.01603  1.0000
  H   H143      1.0  0.84637  0.04413  0.01603  1.0000
  H   H144      1.0  0.95587  0.80223  0.01603  1.0000
  H   H145      1.0  0.47440  0.23440  0.33070  1.0000
  H   H146      1.0  0.76560  0.24000  0.33070  1.0000
  H   H147      1.0  0.76000  0.52560  0.33070  1.0000
  H   H148      1.0  0.14107  0.56773  0.66403  1.0000
  H   H149      1.0  0.43227  0.57333  0.66403  1.0000
  H   H150      1.0  0.42667  0.85893  0.66403  1.0000
  H   H151      1.0  0.80773  0.90107  0.99737  1.0000
  H   H152      1.0  0.09893  0.90667  0.99737  1.0000
  H   H153      1.0  0.09333  0.19227  0.99737  1.0000
  H   H154      1.0  0.52560  0.76560  0.66930  1.0000
  H   H155      1.0  0.23440  0.76000  0.66930  1.0000
  H   H156      1.0  0.24000  0.47440  0.66930  1.0000
  H   H157      1.0  0.85893  0.43227  0.33597  1.0000
  H   H158      1.0  0.56773  0.42667  0.33597  1.0000
  H   H159      1.0  0.57333  0.14107  0.33597  1.0000
  H   H160      1.0  0.19227  0.09893  0.00263  1.0000
  H   H161      1.0  0.90107  0.09333  0.00263  1.0000
  H   H162      1.0  0.90667  0.80773  0.00263  1.0000
  C   C235      1.0  0.42823  0.17596  0.38110  1.0000
  C   C236      1.0  0.82404  0.25227  0.38110  1.0000
  C   C237      1.0  0.74773  0.57177  0.38110  1.0000
  C   C238      1.0  0.09490  0.50929  0.71443  1.0000
  C   C239      1.0  0.49071  0.58560  0.71443  1.0000
  C   C240      1.0  0.41440  0.90510  0.71443  1.0000
  C   C241      1.0  0.76156  0.84263  0.04777  1.0000
  C   C242      1.0  0.15737  0.91894  0.04777  1.0000
  C   C243      1.0  0.08106  0.23844  0.04777  1.0000
  C   C244      1.0  0.57177  0.82404  0.61890  1.0000
  C   C245      1.0  0.17596  0.74773  0.61890  1.0000
  C   C246      1.0  0.25227  0.42823  0.61890  1.0000
  C   C247      1.0  0.90510  0.49071  0.28557  1.0000
  C   C248      1.0  0.50929  0.41440  0.28557  1.0000
  C   C249      1.0  0.58560  0.09490  0.28557  1.0000
  C   C250      1.0  0.23844  0.15737  0.95223  1.0000
  C   C251      1.0  0.84263  0.08106  0.95223  1.0000
  C   C252      1.0  0.91894  0.76156  0.95223  1.0000
  H   H163      1.0  0.42820  0.14470  0.39410  1.0000
  H   H164      1.0  0.85530  0.28350  0.39410  1.0000
  H   H165      1.0  0.71650  0.57180  0.39410  1.0000
  H   H166      1.0  0.09487  0.47803  0.72743  1.0000
  H   H167      1.0  0.52197  0.61683  0.72743  1.0000
  H   H168      1.0  0.38317  0.90513  0.72743  1.0000
  H   H169      1.0  0.76153  0.81137  0.06077  1.0000
  H   H170      1.0  0.18863  0.95017  0.06077  1.0000
  H   H171      1.0  0.04983  0.23847  0.06077  1.0000
  H   H172      1.0  0.57180  0.85530  0.60590  1.0000
  H   H173      1.0  0.14470  0.71650  0.60590  1.0000
  H   H174      1.0  0.28350  0.42820  0.60590  1.0000
  H   H175      1.0  0.90513  0.52197  0.27257  1.0000
  H   H176      1.0  0.47803  0.38317  0.27257  1.0000
  H   H177      1.0  0.61683  0.09487  0.27257  1.0000
  H   H178      1.0  0.23847  0.18863  0.93923  1.0000
  H   H179      1.0  0.81137  0.04983  0.93923  1.0000
  H   H180      1.0  0.95017  0.76153  0.93923  1.0000
  C   C253      1.0  0.22507  0.12007  0.44988  1.0000
  C   C254      1.0  0.87993  0.10500  0.44988  1.0000
  C   C255      1.0  0.89500  0.77493  0.44988  1.0000
  C   C256      1.0  0.89174  0.45340  0.78321  1.0000
  C   C257      1.0  0.54660  0.43833  0.78321  1.0000
  C   C258      1.0  0.56167  0.10826  0.78321  1.0000
  C   C259      1.0  0.55840  0.78674  0.11655  1.0000
  C   C260      1.0  0.21326  0.77167  0.11655  1.0000
  C   C261      1.0  0.22833  0.44160  0.11655  1.0000
  C   C262      1.0  0.77493  0.87993  0.55012  1.0000
  C   C263      1.0  0.12007  0.89500  0.55012  1.0000
  C   C264      1.0  0.10500  0.22507  0.55012  1.0000
  C   C265      1.0  0.10826  0.54660  0.21679  1.0000
  C   C266      1.0  0.45340  0.56167  0.21679  1.0000
  C   C267      1.0  0.43833  0.89174  0.21679  1.0000
  C   C268      1.0  0.44160  0.21326  0.88345  1.0000
  C   C269      1.0  0.78674  0.22833  0.88345  1.0000
  C   C270      1.0  0.77167  0.55840  0.88345  1.0000
  H   H181      1.0  0.22990  0.15390  0.43840  1.0000
  H   H182      1.0  0.84610  0.07600  0.43840  1.0000
  H   H183      1.0  0.92400  0.77010  0.43840  1.0000
  H   H184      1.0  0.89657  0.48723  0.77173  1.0000
  H   H185      1.0  0.51277  0.40933  0.77173  1.0000
  H   H186      1.0  0.59067  0.10343  0.77173  1.0000
  H   H187      1.0  0.56323  0.82057  0.10507  1.0000
  H   H188      1.0  0.17943  0.74267  0.10507  1.0000
  H   H189      1.0  0.25733  0.43677  0.10507  1.0000
  H   H190      1.0  0.77010  0.84610  0.56160  1.0000
  H   H191      1.0  0.15390  0.92400  0.56160  1.0000
  H   H192      1.0  0.07600  0.22990  0.56160  1.0000
  H   H193      1.0  0.10343  0.51277  0.22827  1.0000
  H   H194      1.0  0.48723  0.59067  0.22827  1.0000
  H   H195      1.0  0.40933  0.89657  0.22827  1.0000
  H   H196      1.0  0.43677  0.17943  0.89493  1.0000
  H   H197      1.0  0.82057  0.25733  0.89493  1.0000
  H   H198      1.0  0.74267  0.56323  0.89493  1.0000
  C   C271      1.0  0.17933  0.09551  0.48685  1.0000
  C   C272      1.0  0.90449  0.08382  0.48685  1.0000
  C   C273      1.0  0.91618  0.82067  0.48685  1.0000
  C   C274      1.0  0.84600  0.42884  0.82018  1.0000
  C   C275      1.0  0.57116  0.41715  0.82018  1.0000
  C   C276      1.0  0.58285  0.15400  0.82018  1.0000
  C   C277      1.0  0.51266  0.76218  0.15352  1.0000
  C   C278      1.0  0.23782  0.75049  0.15352  1.0000
  C   C279      1.0  0.24951  0.48734  0.15352  1.0000
  C   C280      1.0  0.82067  0.90449  0.51315  1.0000
  C   C281      1.0  0.09551  0.91618  0.51315  1.0000
  C   C282      1.0  0.08382  0.17933  0.51315  1.0000
  C   C283      1.0  0.15400  0.57116  0.17982  1.0000
  C   C284      1.0  0.42884  0.58285  0.17982  1.0000
  C   C285      1.0  0.41715  0.84600  0.17982  1.0000
  C   C286      1.0  0.48734  0.23782  0.84648  1.0000
  C   C287      1.0  0.76218  0.24951  0.84648  1.0000
  C   C288      1.0  0.75049  0.51266  0.84648  1.0000
  H   H199      1.0  0.17610  0.06280  0.49890  1.0000
  H   H200      1.0  0.93720  0.11330  0.49890  1.0000
  H   H201      1.0  0.88670  0.82390  0.49890  1.0000
  H   H202      1.0  0.84277  0.39613  0.83223  1.0000
  H   H203      1.0  0.60387  0.44663  0.83223  1.0000
  H   H204      1.0  0.55337  0.15723  0.83223  1.0000
  H   H205      1.0  0.50943  0.72947  0.16557  1.0000
  H   H206      1.0  0.27053  0.77997  0.16557  1.0000
  H   H207      1.0  0.22003  0.49057  0.16557  1.0000
  H   H208      1.0  0.82390  0.93720  0.50110  1.0000
  H   H209      1.0  0.06280  0.88670  0.50110  1.0000
  H   H210      1.0  0.11330  0.17610  0.50110  1.0000
  H   H211      1.0  0.15723  0.60387  0.16777  1.0000
  H   H212      1.0  0.39613  0.55337  0.16777  1.0000
  H   H213      1.0  0.44663  0.84277  0.16777  1.0000
  H   H214      1.0  0.49057  0.27053  0.83443  1.0000
  H   H215      1.0  0.72947  0.22003  0.83443  1.0000
  H   H216      1.0  0.77997  0.50943  0.83443  1.0000
  H   H217      1.0  0.18830  0.11930  0.51460  1.0000
  H   H218      1.0  0.88070  0.06900  0.51460  1.0000
  H   H219      1.0  0.93100  0.81170  0.51460  1.0000
  H   H220      1.0  0.85497  0.45263  0.84793  1.0000
  H   H221      1.0  0.54737  0.40233  0.84793  1.0000
  H   H222      1.0  0.59767  0.14503  0.84793  1.0000
  H   H223      1.0  0.52163  0.78597  0.18127  1.0000
  H   H224      1.0  0.21403  0.73567  0.18127  1.0000
  H   H225      1.0  0.26433  0.47837  0.18127  1.0000
  H   H226      1.0  0.81170  0.88070  0.48540  1.0000
  H   H227      1.0  0.11930  0.93100  0.48540  1.0000
  H   H228      1.0  0.06900  0.18830  0.48540  1.0000
  H   H229      1.0  0.14503  0.54737  0.15207  1.0000
  H   H230      1.0  0.45263  0.59767  0.15207  1.0000
  H   H231      1.0  0.40233  0.85497  0.15207  1.0000
  H   H232      1.0  0.47837  0.21403  0.81873  1.0000
  H   H233      1.0  0.78597  0.26433  0.81873  1.0000
  H   H234      1.0  0.73567  0.52163  0.81873  1.0000
  C   C289      1.0  0.12558  0.08370  0.46718  1.0000
  C   C290      1.0  0.91630  0.04188  0.46718  1.0000
  C   C291      1.0  0.95812  0.87442  0.46718  1.0000
  C   C292      1.0  0.79225  0.41703  0.80051  1.0000
  C   C293      1.0  0.58297  0.37521  0.80051  1.0000
  C   C294      1.0  0.62479  0.20775  0.80051  1.0000
  C   C295      1.0  0.45891  0.75037  0.13385  1.0000
  C   C296      1.0  0.24963  0.70855  0.13385  1.0000
  C   C297      1.0  0.29145  0.54109  0.13385  1.0000
  C   C298      1.0  0.87442  0.91630  0.53282  1.0000
  C   C299      1.0  0.08370  0.95812  0.53282  1.0000
  C   C300      1.0  0.04188  0.12558  0.53282  1.0000
  C   C301      1.0  0.20775  0.58297  0.19949  1.0000
  C   C302      1.0  0.41703  0.62479  0.19949  1.0000
  C   C303      1.0  0.37521  0.79225  0.19949  1.0000
  C   C304      1.0  0.54109  0.24963  0.86615  1.0000
  C   C305      1.0  0.75037  0.29145  0.86615  1.0000
  C   C306      1.0  0.70855  0.45891  0.86615  1.0000
  H   H235      1.0  0.12570  0.11610  0.45930  1.0000
  H   H236      1.0  0.88390  0.00960  0.45930  1.0000
  H   H237      1.0  0.99040  0.87430  0.45930  1.0000
  H   H238      1.0  0.79237  0.44943  0.79263  1.0000
  H   H239      1.0  0.55057  0.34293  0.79263  1.0000
  H   H240      1.0  0.65707  0.20763  0.79263  1.0000
  H   H241      1.0  0.45903  0.78277  0.12597  1.0000
  H   H242      1.0  0.21723  0.67627  0.12597  1.0000
  H   H243      1.0  0.32373  0.54097  0.12597  1.0000
  H   H244      1.0  0.87430  0.88390  0.54070  1.0000
  H   H245      1.0  0.11610  0.99040  0.54070  1.0000
  H   H246      1.0  0.00960  0.12570  0.54070  1.0000
  H   H247      1.0  0.20763  0.55057  0.20737  1.0000
  H   H248      1.0  0.44943  0.65707  0.20737  1.0000
  H   H249      1.0  0.34293  0.79237  0.20737  1.0000
  H   H250      1.0  0.54097  0.21723  0.87403  1.0000
  H   H251      1.0  0.78277  0.32373  0.87403  1.0000
  H   H252      1.0  0.67627  0.45903  0.87403  1.0000
  H   H253      1.0  0.09800  0.06400  0.49100  1.0000
  H   H254      1.0  0.93600  0.03400  0.49100  1.0000
  H   H255      1.0  0.96600  0.90200  0.49100  1.0000
  H   H256      1.0  0.76467  0.39733  0.82433  1.0000
  H   H257      1.0  0.60267  0.36733  0.82433  1.0000
  H   H258      1.0  0.63267  0.23533  0.82433  1.0000
  H   H259      1.0  0.43133  0.73067  0.15767  1.0000
  H   H260      1.0  0.26933  0.70067  0.15767  1.0000
  H   H261      1.0  0.29933  0.56867  0.15767  1.0000
  H   H262      1.0  0.90200  0.93600  0.50900  1.0000
  H   H263      1.0  0.06400  0.96600  0.50900  1.0000
  H   H264      1.0  0.03400  0.09800  0.50900  1.0000
  H   H265      1.0  0.23533  0.60267  0.17567  1.0000
  H   H266      1.0  0.39733  0.63267  0.17567  1.0000
  H   H267      1.0  0.36733  0.76467  0.17567  1.0000
  H   H268      1.0  0.56867  0.26933  0.84233  1.0000
  H   H269      1.0  0.73067  0.29933  0.84233  1.0000
  H   H270      1.0  0.70067  0.43133  0.84233  1.0000
  C   C307      1.0  0.11752  0.05080  0.42099  1.0000
  C   C308      1.0  0.94920  0.06672  0.42099  1.0000
  C   C309      1.0  0.93328  0.88248  0.42099  1.0000
  C   C310      1.0  0.78419  0.38413  0.75432  1.0000
  C   C311      1.0  0.61587  0.40005  0.75432  1.0000
  C   C312      1.0  0.59995  0.21581  0.75432  1.0000
  C   C313      1.0  0.45085  0.71747  0.08766  1.0000
  C   C314      1.0  0.28253  0.73339  0.08766  1.0000
  C   C315      1.0  0.26661  0.54915  0.08766  1.0000
  C   C316      1.0  0.88248  0.94920  0.57901  1.0000
  C   C317      1.0  0.05080  0.93328  0.57901  1.0000
  C   C318      1.0  0.06672  0.11752  0.57901  1.0000
  C   C319      1.0  0.21581  0.61587  0.24568  1.0000
  C   C320      1.0  0.38413  0.59995  0.24568  1.0000
  C   C321      1.0  0.40005  0.78419  0.24568  1.0000
  C   C322      1.0  0.54915  0.28253  0.91234  1.0000
  C   C323      1.0  0.71747  0.26661  0.91234  1.0000
  C   C324      1.0  0.73339  0.45085  0.91234  1.0000
  H   H271      1.0  0.11280  0.01680  0.43070  1.0000
  H   H272      1.0  0.98320  0.09600  0.43070  1.0000
  H   H273      1.0  0.90400  0.88720  0.43070  1.0000
  H   H274      1.0  0.77947  0.35013  0.76403  1.0000
  H   H275      1.0  0.64987  0.42933  0.76403  1.0000
  H   H276      1.0  0.57067  0.22053  0.76403  1.0000
  H   H277      1.0  0.44613  0.68347  0.09737  1.0000
  H   H278      1.0  0.31653  0.76267  0.09737  1.0000
  H   H279      1.0  0.23733  0.55387  0.09737  1.0000
  H   H280      1.0  0.88720  0.98320  0.56930  1.0000
  H   H281      1.0  0.01680  0.90400  0.56930  1.0000
  H   H282      1.0  0.09600  0.11280  0.56930  1.0000
  H   H283      1.0  0.22053  0.64987  0.23597  1.0000
  H   H284      1.0  0.35013  0.57067  0.23597  1.0000
  H   H285      1.0  0.42933  0.77947  0.23597  1.0000
  H   H286      1.0  0.55387  0.31653  0.90263  1.0000
  H   H287      1.0  0.68347  0.23733  0.90263  1.0000
  H   H288      1.0  0.76267  0.44613  0.90263  1.0000
  H   H289      1.0  0.08530  0.04450  0.40490  1.0000
  H   H290      1.0  0.95550  0.04080  0.40490  1.0000
  H   H291      1.0  0.95920  0.91470  0.40490  1.0000
  H   H292      1.0  0.75197  0.37783  0.73823  1.0000
  H   H293      1.0  0.62217  0.37413  0.73823  1.0000
  H   H294      1.0  0.62587  0.24803  0.73823  1.0000
  H   H295      1.0  0.41863  0.71117  0.07157  1.0000
  H   H296      1.0  0.28883  0.70747  0.07157  1.0000
  H   H297      1.0  0.29253  0.58137  0.07157  1.0000
  H   H298      1.0  0.91470  0.95550  0.59510  1.0000
  H   H299      1.0  0.04450  0.95920  0.59510  1.0000
  H   H300      1.0  0.04080  0.08530  0.59510  1.0000
  H   H301      1.0  0.24803  0.62217  0.26177  1.0000
  H   H302      1.0  0.37783  0.62587  0.26177  1.0000
  H   H303      1.0  0.37413  0.75197  0.26177  1.0000
  H   H304      1.0  0.58137  0.28883  0.92843  1.0000
  H   H305      1.0  0.71117  0.29253  0.92843  1.0000
  H   H306      1.0  0.70747  0.41863  0.92843  1.0000
  C   C325      1.0  0.16227  0.07580  0.38439  1.0000
  C   C326      1.0  0.92420  0.08647  0.38439  1.0000
  C   C327      1.0  0.91353  0.83773  0.38439  1.0000
  C   C328      1.0  0.82894  0.40913  0.71772  1.0000
  C   C329      1.0  0.59087  0.41980  0.71772  1.0000
  C   C330      1.0  0.58020  0.17106  0.71772  1.0000
  C   C331      1.0  0.49560  0.74247  0.05106  1.0000
  C   C332      1.0  0.25753  0.75314  0.05106  1.0000
  C   C333      1.0  0.24686  0.50440  0.05106  1.0000
  C   C334      1.0  0.83773  0.92420  0.61561  1.0000
  C   C335      1.0  0.07580  0.91353  0.61561  1.0000
  C   C336      1.0  0.08647  0.16227  0.61561  1.0000
  C   C337      1.0  0.17106  0.59087  0.28228  1.0000
  C   C338      1.0  0.40913  0.58020  0.28228  1.0000
  C   C339      1.0  0.41980  0.82894  0.28228  1.0000
  C   C340      1.0  0.50440  0.25753  0.94894  1.0000
  C   C341      1.0  0.74247  0.24686  0.94894  1.0000
  C   C342      1.0  0.75314  0.49560  0.94894  1.0000
  H   H307      1.0  0.16660  0.10930  0.37350  1.0000
  H   H308      1.0  0.89070  0.05730  0.37350  1.0000
  H   H309      1.0  0.94270  0.83340  0.37350  1.0000
  H   H310      1.0  0.83327  0.44263  0.70683  1.0000
  H   H311      1.0  0.55737  0.39063  0.70683  1.0000
  H   H312      1.0  0.60937  0.16673  0.70683  1.0000
  H   H313      1.0  0.49993  0.77597  0.04017  1.0000
  H   H314      1.0  0.22403  0.72397  0.04017  1.0000
  H   H315      1.0  0.27603  0.50007  0.04017  1.0000
  H   H316      1.0  0.83340  0.89070  0.62650  1.0000
  H   H317      1.0  0.10930  0.94270  0.62650  1.0000
  H   H318      1.0  0.05730  0.16660  0.62650  1.0000
  H   H319      1.0  0.16673  0.55737  0.29317  1.0000
  H   H320      1.0  0.44263  0.60937  0.29317  1.0000
  H   H321      1.0  0.39063  0.83327  0.29317  1.0000
  H   H322      1.0  0.50007  0.22403  0.95983  1.0000
  H   H323      1.0  0.77597  0.27603  0.95983  1.0000
  H   H324      1.0  0.72397  0.49993  0.95983  1.0000
  H   H325      1.0  0.15380  0.05300  0.35590  1.0000
  H   H326      1.0  0.94700  0.10080  0.35590  1.0000
  H   H327      1.0  0.89920  0.84620  0.35590  1.0000
  H   H328      1.0  0.82047  0.38633  0.68923  1.0000
  H   H329      1.0  0.61367  0.43413  0.68923  1.0000
  H   H330      1.0  0.56587  0.17953  0.68923  1.0000
  H   H331      1.0  0.48713  0.71967  0.02257  1.0000
  H   H332      1.0  0.28033  0.76747  0.02257  1.0000
  H   H333      1.0  0.23253  0.51287  0.02257  1.0000
  H   H334      1.0  0.84620  0.94700  0.64410  1.0000
  H   H335      1.0  0.05300  0.89920  0.64410  1.0000
  H   H336      1.0  0.10080  0.15380  0.64410  1.0000
  H   H337      1.0  0.17953  0.61367  0.31077  1.0000
  H   H338      1.0  0.38633  0.56587  0.31077  1.0000
  H   H339      1.0  0.43413  0.82047  0.31077  1.0000
  H   H340      1.0  0.51287  0.28033  0.97743  1.0000
  H   H341      1.0  0.71967  0.23253  0.97743  1.0000
  H   H342      1.0  0.76747  0.48713  0.97743  1.0000
  C   C343      1.0  0.21450  0.08470  0.40769  1.0000
  C   C344      1.0  0.91530  0.12980  0.40769  1.0000
  C   C345      1.0  0.87020  0.78550  0.40769  1.0000
  C   C346      1.0  0.88117  0.41803  0.74102  1.0000
  C   C347      1.0  0.58197  0.46313  0.74102  1.0000
  C   C348      1.0  0.53687  0.11883  0.74102  1.0000
  C   C349      1.0  0.54783  0.75137  0.07436  1.0000
  C   C350      1.0  0.24863  0.79647  0.07436  1.0000
  C   C351      1.0  0.20353  0.45217  0.07436  1.0000
  C   C352      1.0  0.78550  0.91530  0.59231  1.0000
  C   C353      1.0  0.08470  0.87020  0.59231  1.0000
  C   C354      1.0  0.12980  0.21450  0.59231  1.0000
  C   C355      1.0  0.11883  0.58197  0.25898  1.0000
  C   C356      1.0  0.41803  0.53687  0.25898  1.0000
  C   C357      1.0  0.46313  0.88117  0.25898  1.0000
  C   C358      1.0  0.45217  0.24863  0.92564  1.0000
  C   C359      1.0  0.75137  0.20353  0.92564  1.0000
  C   C360      1.0  0.79647  0.54783  0.92564  1.0000
  H   H343      1.0  0.21090  0.05110  0.41850  1.0000
  H   H344      1.0  0.94890  0.15980  0.41850  1.0000
  H   H345      1.0  0.84020  0.78910  0.41850  1.0000
  H   H346      1.0  0.87757  0.38443  0.75183  1.0000
  H   H347      1.0  0.61557  0.49313  0.75183  1.0000
  H   H348      1.0  0.50687  0.12243  0.75183  1.0000
  H   H349      1.0  0.54423  0.71777  0.08517  1.0000
  H   H350      1.0  0.28223  0.82647  0.08517  1.0000
  H   H351      1.0  0.17353  0.45577  0.08517  1.0000
  H   H352      1.0  0.78910  0.94890  0.58150  1.0000
  H   H353      1.0  0.05110  0.84020  0.58150  1.0000
  H   H354      1.0  0.15980  0.21090  0.58150  1.0000
  H   H355      1.0  0.12243  0.61557  0.24817  1.0000
  H   H356      1.0  0.38443  0.50687  0.24817  1.0000
  H   H357      1.0  0.49313  0.87757  0.24817  1.0000
  H   H358      1.0  0.45577  0.28223  0.91483  1.0000
  H   H359      1.0  0.71777  0.17353  0.91483  1.0000
  H   H360      1.0  0.82647  0.54423  0.91483  1.0000
  C   C361      1.0  0.46834  0.89326  0.46964  1.0000
  C   C362      1.0  0.10674  0.57508  0.46964  1.0000
  C   C363      1.0  0.42492  0.53166  0.46964  1.0000
  C   C364      1.0  0.13501  0.22659  0.80297  1.0000
  C   C365      1.0  0.77341  0.90841  0.80297  1.0000
  C   C366      1.0  0.09159  0.86499  0.80297  1.0000
  C   C367      1.0  0.80167  0.55993  0.13631  1.0000
  C   C368      1.0  0.44007  0.24175  0.13631  1.0000
  C   C369      1.0  0.75825  0.19833  0.13631  1.0000
  C   C370      1.0  0.53166  0.10674  0.53036  1.0000
  C   C371      1.0  0.89326  0.42492  0.53036  1.0000
  C   C372      1.0  0.57508  0.46834  0.53036  1.0000
  C   C373      1.0  0.86499  0.77341  0.19703  1.0000
  C   C374      1.0  0.22659  0.09159  0.19703  1.0000
  C   C375      1.0  0.90841  0.13501  0.19703  1.0000
  C   C376      1.0  0.19833  0.44007  0.86369  1.0000
  C   C377      1.0  0.55993  0.75825  0.86369  1.0000
  C   C378      1.0  0.24175  0.80167  0.86369  1.0000
  H   H361      1.0  0.49790  0.89420  0.48750  1.0000
  H   H362      1.0  0.10580  0.60370  0.48750  1.0000
  H   H363      1.0  0.39630  0.50210  0.48750  1.0000
  H   H364      1.0  0.16457  0.22753  0.82083  1.0000
  H   H365      1.0  0.77247  0.93703  0.82083  1.0000
  H   H366      1.0  0.06297  0.83543  0.82083  1.0000
  H   H367      1.0  0.83123  0.56087  0.15417  1.0000
  H   H368      1.0  0.43913  0.27037  0.15417  1.0000
  H   H369      1.0  0.72963  0.16877  0.15417  1.0000
  H   H370      1.0  0.50210  0.10580  0.51250  1.0000
  H   H371      1.0  0.89420  0.39630  0.51250  1.0000
  H   H372      1.0  0.60370  0.49790  0.51250  1.0000
  H   H373      1.0  0.83543  0.77247  0.17917  1.0000
  H   H374      1.0  0.22753  0.06297  0.17917  1.0000
  H   H375      1.0  0.93703  0.16457  0.17917  1.0000
  H   H376      1.0  0.16877  0.43913  0.84583  1.0000
  H   H377      1.0  0.56087  0.72963  0.84583  1.0000
  H   H378      1.0  0.27037  0.83123  0.84583  1.0000
  C   C379      1.0  0.44987  0.84872  0.43341  1.0000
  C   C380      1.0  0.15128  0.60115  0.43341  1.0000
  C   C381      1.0  0.39885  0.55013  0.43341  1.0000
  C   C382      1.0  0.11654  0.18205  0.76674  1.0000
  C   C383      1.0  0.81795  0.93448  0.76674  1.0000
  C   C384      1.0  0.06552  0.88346  0.76674  1.0000
  C   C385      1.0  0.78320  0.51539  0.10008  1.0000
  C   C386      1.0  0.48461  0.26782  0.10008  1.0000
  C   C387      1.0  0.73218  0.21680  0.10008  1.0000
  C   C388      1.0  0.55013  0.15128  0.56659  1.0000
  C   C389      1.0  0.84872  0.39885  0.56659  1.0000
  C   C390      1.0  0.60115  0.44987  0.56659  1.0000
  C   C391      1.0  0.88346  0.81795  0.23326  1.0000
  C   C392      1.0  0.18205  0.06552  0.23326  1.0000
  C   C393      1.0  0.93448  0.11654  0.23326  1.0000
  C   C394      1.0  0.21680  0.48461  0.89992  1.0000
  C   C395      1.0  0.51539  0.73218  0.89992  1.0000
  C   C396      1.0  0.26782  0.78320  0.89992  1.0000
  H   H379      1.0  0.42520  0.85010  0.41060  1.0000
  H   H380      1.0  0.14990  0.57510  0.41060  1.0000
  H   H381      1.0  0.42490  0.57480  0.41060  1.0000
  H   H382      1.0  0.09187  0.18343  0.74393  1.0000
  H   H383      1.0  0.81657  0.90843  0.74393  1.0000
  H   H384      1.0  0.09157  0.90813  0.74393  1.0000
  H   H385      1.0  0.75853  0.51677  0.07727  1.0000
  H   H386      1.0  0.48323  0.24177  0.07727  1.0000
  H   H387      1.0  0.75823  0.24147  0.07727  1.0000
  H   H388      1.0  0.57480  0.14990  0.58940  1.0000
  H   H389      1.0  0.85010  0.42490  0.58940  1.0000
  H   H390      1.0  0.57510  0.42520  0.58940  1.0000
  H   H391      1.0  0.90813  0.81657  0.25607  1.0000
  H   H392      1.0  0.18343  0.09157  0.25607  1.0000
  H   H393      1.0  0.90843  0.09187  0.25607  1.0000
  H   H394      1.0  0.24147  0.48323  0.92273  1.0000
  H   H395      1.0  0.51677  0.75823  0.92273  1.0000
  H   H396      1.0  0.24177  0.75853  0.92273  1.0000
  H   H397      1.0  0.47980  0.85220  0.41480  1.0000
  H   H398      1.0  0.14780  0.62760  0.41480  1.0000
  H   H399      1.0  0.37240  0.52020  0.41480  1.0000
  H   H400      1.0  0.14647  0.18553  0.74813  1.0000
  H   H401      1.0  0.81447  0.96093  0.74813  1.0000
  H   H402      1.0  0.03907  0.85353  0.74813  1.0000
  H   H403      1.0  0.81313  0.51887  0.08147  1.0000
  H   H404      1.0  0.48113  0.29427  0.08147  1.0000
  H   H405      1.0  0.70573  0.18687  0.08147  1.0000
  H   H406      1.0  0.52020  0.14780  0.58520  1.0000
  H   H407      1.0  0.85220  0.37240  0.58520  1.0000
  H   H408      1.0  0.62760  0.47980  0.58520  1.0000
  H   H409      1.0  0.85353  0.81447  0.25187  1.0000
  H   H410      1.0  0.18553  0.03907  0.25187  1.0000
  H   H411      1.0  0.96093  0.14647  0.25187  1.0000
  H   H412      1.0  0.18687  0.48113  0.91853  1.0000
  H   H413      1.0  0.51887  0.70573  0.91853  1.0000
  H   H414      1.0  0.29427  0.81313  0.91853  1.0000
  C   C397      1.0  0.42340  0.79647  0.46010  1.0000
  C   C398      1.0  0.20353  0.62693  0.46010  1.0000
  C   C399      1.0  0.37307  0.57660  0.46010  1.0000
  C   C400      1.0  0.09007  0.12980  0.79343  1.0000
  C   C401      1.0  0.87020  0.96026  0.79343  1.0000
  C   C402      1.0  0.03974  0.90993  0.79343  1.0000
  C   C403      1.0  0.75673  0.46314  0.12677  1.0000
  C   C404      1.0  0.53686  0.29360  0.12677  1.0000
  C   C405      1.0  0.70640  0.24327  0.12677  1.0000
  C   C406      1.0  0.57660  0.20353  0.53990  1.0000
  C   C407      1.0  0.79647  0.37307  0.53990  1.0000
  C   C408      1.0  0.62693  0.42340  0.53990  1.0000
  C   C409      1.0  0.90993  0.87020  0.20657  1.0000
  C   C410      1.0  0.12980  0.03974  0.20657  1.0000
  C   C411      1.0  0.96026  0.09007  0.20657  1.0000
  C   C412      1.0  0.24327  0.53686  0.87323  1.0000
  C   C413      1.0  0.46314  0.70640  0.87323  1.0000
  C   C414      1.0  0.29360  0.75673  0.87323  1.0000
  H   H415      1.0  0.40650  0.76820  0.43630  1.0000
  H   H416      1.0  0.23180  0.63830  0.43630  1.0000
  H   H417      1.0  0.36170  0.59350  0.43630  1.0000
  H   H418      1.0  0.07317  0.10153  0.76963  1.0000
  H   H419      1.0  0.89847  0.97163  0.76963  1.0000
  H   H420      1.0  0.02837  0.92683  0.76963  1.0000
  H   H421      1.0  0.73983  0.43487  0.10297  1.0000
  H   H422      1.0  0.56513  0.30497  0.10297  1.0000
  H   H423      1.0  0.69503  0.26017  0.10297  1.0000
  H   H424      1.0  0.59350  0.23180  0.56370  1.0000
  H   H425      1.0  0.76820  0.36170  0.56370  1.0000
  H   H426      1.0  0.63830  0.40650  0.56370  1.0000
  H   H427      1.0  0.92683  0.89847  0.23037  1.0000
  H   H428      1.0  0.10153  0.02837  0.23037  1.0000
  H   H429      1.0  0.97163  0.07317  0.23037  1.0000
  H   H430      1.0  0.26017  0.56513  0.89703  1.0000
  H   H431      1.0  0.43487  0.69503  0.89703  1.0000
  H   H432      1.0  0.30497  0.73983  0.89703  1.0000
  H   H433      1.0  0.45010  0.79200  0.47700  1.0000
  H   H434      1.0  0.20800  0.65810  0.47700  1.0000
  H   H435      1.0  0.34190  0.54990  0.47700  1.0000
  H   H436      1.0  0.11677  0.12533  0.81033  1.0000
  H   H437      1.0  0.87467  0.99143  0.81033  1.0000
  H   H438      1.0  0.00857  0.88323  0.81033  1.0000
  H   H439      1.0  0.78343  0.45867  0.14367  1.0000
  H   H440      1.0  0.54133  0.32477  0.14367  1.0000
  H   H441      1.0  0.67523  0.21657  0.14367  1.0000
  H   H442      1.0  0.54990  0.20800  0.52300  1.0000
  H   H443      1.0  0.79200  0.34190  0.52300  1.0000
  H   H444      1.0  0.65810  0.45010  0.52300  1.0000
  H   H445      1.0  0.88323  0.87467  0.18967  1.0000
  H   H446      1.0  0.12533  0.00857  0.18967  1.0000
  H   H447      1.0  0.99143  0.11677  0.18967  1.0000
  H   H448      1.0  0.21657  0.54133  0.85633  1.0000
  H   H449      1.0  0.45867  0.67523  0.85633  1.0000
  H   H450      1.0  0.32477  0.78343  0.85633  1.0000
  C   C415      1.0  0.38267  0.79204  0.49694  1.0000
  C   C416      1.0  0.20796  0.59063  0.49694  1.0000
  C   C417      1.0  0.40937  0.61733  0.49694  1.0000
  C   C418      1.0  0.04934  0.12537  0.83027  1.0000
  C   C419      1.0  0.87463  0.92396  0.83027  1.0000
  C   C420      1.0  0.07604  0.95066  0.83027  1.0000
  C   C421      1.0  0.71600  0.45871  0.16361  1.0000
  C   C422      1.0  0.54129  0.25730  0.16361  1.0000
  C   C423      1.0  0.74270  0.28400  0.16361  1.0000
  C   C424      1.0  0.61733  0.20796  0.50306  1.0000
  C   C425      1.0  0.79204  0.40937  0.50306  1.0000
  C   C426      1.0  0.59063  0.38267  0.50306  1.0000
  C   C427      1.0  0.95066  0.87463  0.16973  1.0000
  C   C428      1.0  0.12537  0.07604  0.16973  1.0000
  C   C429      1.0  0.92396  0.04934  0.16973  1.0000
  C   C430      1.0  0.28400  0.54129  0.83639  1.0000
  C   C431      1.0  0.45871  0.74270  0.83639  1.0000
  C   C432      1.0  0.25730  0.71600  0.83639  1.0000
  H   H451      1.0  0.35400  0.79260  0.47960  1.0000
  H   H452      1.0  0.20740  0.56140  0.47960  1.0000
  H   H453      1.0  0.43860  0.64600  0.47960  1.0000
  H   H454      1.0  0.02067  0.12593  0.81293  1.0000
  H   H455      1.0  0.87407  0.89473  0.81293  1.0000
  H   H456      1.0  0.10527  0.97933  0.81293  1.0000
  H   H457      1.0  0.68733  0.45927  0.14627  1.0000
  H   H458      1.0  0.54073  0.22807  0.14627  1.0000
  H   H459      1.0  0.77193  0.31267  0.14627  1.0000
  H   H460      1.0  0.64600  0.20740  0.52040  1.0000
  H   H461      1.0  0.79260  0.43860  0.52040  1.0000
  H   H462      1.0  0.56140  0.35400  0.52040  1.0000
  H   H463      1.0  0.97933  0.87407  0.18707  1.0000
  H   H464      1.0  0.12593  0.10527  0.18707  1.0000
  H   H465      1.0  0.89473  0.02067  0.18707  1.0000
  H   H466      1.0  0.31267  0.54073  0.85373  1.0000
  H   H467      1.0  0.45927  0.77193  0.85373  1.0000
  H   H468      1.0  0.22807  0.68733  0.85373  1.0000
  H   H469      1.0  0.36830  0.75850  0.51390  1.0000
  H   H470      1.0  0.24150  0.60980  0.51390  1.0000
  H   H471      1.0  0.39020  0.63170  0.51390  1.0000
  H   H472      1.0  0.03497  0.09183  0.84723  1.0000
  H   H473      1.0  0.90817  0.94313  0.84723  1.0000
  H   H474      1.0  0.05687  0.96503  0.84723  1.0000
  H   H475      1.0  0.70163  0.42517  0.18057  1.0000
  H   H476      1.0  0.57483  0.27647  0.18057  1.0000
  H   H477      1.0  0.72353  0.29837  0.18057  1.0000
  H   H478      1.0  0.63170  0.24150  0.48610  1.0000
  H   H479      1.0  0.75850  0.39020  0.48610  1.0000
  H   H480      1.0  0.60980  0.36830  0.48610  1.0000
  H   H481      1.0  0.96503  0.90817  0.15277  1.0000
  H   H482      1.0  0.09183  0.05687  0.15277  1.0000
  H   H483      1.0  0.94313  0.03497  0.15277  1.0000
  H   H484      1.0  0.29837  0.57483  0.81943  1.0000
  H   H485      1.0  0.42517  0.72353  0.81943  1.0000
  H   H486      1.0  0.27647  0.70163  0.81943  1.0000
  C   C433      1.0  0.40540  0.83648  0.53457  1.0000
  C   C434      1.0  0.16352  0.56892  0.53457  1.0000
  C   C435      1.0  0.43108  0.59460  0.53457  1.0000
  C   C436      1.0  0.07207  0.16981  0.86790  1.0000
  C   C437      1.0  0.83019  0.90225  0.86790  1.0000
  C   C438      1.0  0.09775  0.92793  0.86790  1.0000
  C   C439      1.0  0.73873  0.50315  0.20124  1.0000
  C   C440      1.0  0.49685  0.23559  0.20124  1.0000
  C   C441      1.0  0.76441  0.26127  0.20124  1.0000
  C   C442      1.0  0.59460  0.16352  0.46543  1.0000
  C   C443      1.0  0.83648  0.43108  0.46543  1.0000
  C   C444      1.0  0.56892  0.40540  0.46543  1.0000
  C   C445      1.0  0.92793  0.83019  0.13210  1.0000
  C   C446      1.0  0.16981  0.09775  0.13210  1.0000
  C   C447      1.0  0.90225  0.07207  0.13210  1.0000
  C   C448      1.0  0.26127  0.49685  0.79876  1.0000
  C   C449      1.0  0.50315  0.76441  0.79876  1.0000
  C   C450      1.0  0.23559  0.73873  0.79876  1.0000
  H   H487      1.0  0.43250  0.83480  0.55380  1.0000
  H   H488      1.0  0.16520  0.59770  0.55380  1.0000
  H   H489      1.0  0.40230  0.56750  0.55380  1.0000
  H   H490      1.0  0.09917  0.16813  0.88713  1.0000
  H   H491      1.0  0.83187  0.93103  0.88713  1.0000
  H   H492      1.0  0.06897  0.90083  0.88713  1.0000
  H   H493      1.0  0.76583  0.50147  0.22047  1.0000
  H   H494      1.0  0.49853  0.26437  0.22047  1.0000
  H   H495      1.0  0.73563  0.23417  0.22047  1.0000
  H   H496      1.0  0.56750  0.16520  0.44620  1.0000
  H   H497      1.0  0.83480  0.40230  0.44620  1.0000
  H   H498      1.0  0.59770  0.43250  0.44620  1.0000
  H   H499      1.0  0.90083  0.83187  0.11287  1.0000
  H   H500      1.0  0.16813  0.06897  0.11287  1.0000
  H   H501      1.0  0.93103  0.09917  0.11287  1.0000
  H   H502      1.0  0.23417  0.49853  0.77953  1.0000
  H   H503      1.0  0.50147  0.73563  0.77953  1.0000
  H   H504      1.0  0.26437  0.76583  0.77953  1.0000
  H   H505      1.0  0.37790  0.83290  0.55670  1.0000
  H   H506      1.0  0.16710  0.54500  0.55670  1.0000
  H   H507      1.0  0.45500  0.62210  0.55670  1.0000
  H   H508      1.0  0.04457  0.16623  0.89003  1.0000
  H   H509      1.0  0.83377  0.87833  0.89003  1.0000
  H   H510      1.0  0.12167  0.95543  0.89003  1.0000
  H   H511      1.0  0.71123  0.49957  0.22337  1.0000
  H   H512      1.0  0.50043  0.21167  0.22337  1.0000
  H   H513      1.0  0.78833  0.28877  0.22337  1.0000
  H   H514      1.0  0.62210  0.16710  0.44330  1.0000
  H   H515      1.0  0.83290  0.45500  0.44330  1.0000
  H   H516      1.0  0.54500  0.37790  0.44330  1.0000
  H   H517      1.0  0.95543  0.83377  0.10997  1.0000
  H   H518      1.0  0.16623  0.12167  0.10997  1.0000
  H   H519      1.0  0.87833  0.04457  0.10997  1.0000
  H   H520      1.0  0.28877  0.50043  0.77663  1.0000
  H   H521      1.0  0.49957  0.78833  0.77663  1.0000
  H   H522      1.0  0.21167  0.71123  0.77663  1.0000
  C   C451      1.0  0.42860  0.88805  0.50828  1.0000
  C   C452      1.0  0.11195  0.54055  0.50828  1.0000
  C   C453      1.0  0.45945  0.57140  0.50828  1.0000
  C   C454      1.0  0.09527  0.22138  0.84161  1.0000
  C   C455      1.0  0.77862  0.87388  0.84161  1.0000
  C   C456      1.0  0.12612  0.90473  0.84161  1.0000
  C   C457      1.0  0.76193  0.55472  0.17495  1.0000
  C   C458      1.0  0.44528  0.20722  0.17495  1.0000
  C   C459      1.0  0.79278  0.23807  0.17495  1.0000
  C   C460      1.0  0.57140  0.11195  0.49172  1.0000
  C   C461      1.0  0.88805  0.45945  0.49172  1.0000
  C   C462      1.0  0.54055  0.42860  0.49172  1.0000
  C   C463      1.0  0.90473  0.77862  0.15839  1.0000
  C   C464      1.0  0.22138  0.12612  0.15839  1.0000
  C   C465      1.0  0.87388  0.09527  0.15839  1.0000
  C   C466      1.0  0.23807  0.44528  0.82505  1.0000
  C   C467      1.0  0.55472  0.79278  0.82505  1.0000
  C   C468      1.0  0.20722  0.76193  0.82505  1.0000
  H   H523      1.0  0.39940  0.88800  0.49060  1.0000
  H   H524      1.0  0.11200  0.51140  0.49060  1.0000
  H   H525      1.0  0.48860  0.60060  0.49060  1.0000
  H   H526      1.0  0.06607  0.22133  0.82393  1.0000
  H   H527      1.0  0.77867  0.84473  0.82393  1.0000
  H   H528      1.0  0.15527  0.93393  0.82393  1.0000
  H   H529      1.0  0.73273  0.55467  0.15727  1.0000
  H   H530      1.0  0.44533  0.17807  0.15727  1.0000
  H   H531      1.0  0.82193  0.26727  0.15727  1.0000
  H   H532      1.0  0.60060  0.11200  0.50940  1.0000
  H   H533      1.0  0.88800  0.48860  0.50940  1.0000
  H   H534      1.0  0.51140  0.39940  0.50940  1.0000
  H   H535      1.0  0.93393  0.77867  0.17607  1.0000
  H   H536      1.0  0.22133  0.15527  0.17607  1.0000
  H   H537      1.0  0.84473  0.06607  0.17607  1.0000
  H   H538      1.0  0.26727  0.44533  0.84273  1.0000
  H   H539      1.0  0.55467  0.82193  0.84273  1.0000
  H   H540      1.0  0.17807  0.73273  0.84273  1.0000
  Cu  Cu1       1.0  0.32599  0.14502  0.41555  1.0000
  Cu  Cu2       1.0  0.85498  0.18097  0.41555  1.0000
  Cu  Cu3       1.0  0.81903  0.67401  0.41555  1.0000
  Cu  Cu4       1.0  0.99266  0.47835  0.74888  1.0000
  Cu  Cu5       1.0  0.52165  0.51430  0.74888  1.0000
  Cu  Cu6       1.0  0.48570  0.00734  0.74888  1.0000
  Cu  Cu7       1.0  0.65932  0.81169  0.08222  1.0000
  Cu  Cu8       1.0  0.18831  0.84764  0.08222  1.0000
  Cu  Cu9       1.0  0.15236  0.34068  0.08222  1.0000
  Cu  Cu10      1.0  0.67401  0.85498  0.58445  1.0000
  Cu  Cu11      1.0  0.14502  0.81903  0.58445  1.0000
  Cu  Cu12      1.0  0.18097  0.32599  0.58445  1.0000
  Cu  Cu13      1.0  0.00734  0.52165  0.25112  1.0000
  Cu  Cu14      1.0  0.47835  0.48570  0.25112  1.0000
  Cu  Cu15      1.0  0.51430  0.99266  0.25112  1.0000
  Cu  Cu16      1.0  0.34068  0.18831  0.91778  1.0000
  Cu  Cu17      1.0  0.81169  0.15236  0.91778  1.0000
  Cu  Cu18      1.0  0.84764  0.65932  0.91778  1.0000
  Cu  Cu19      1.0  0.50000  0.00000  0.50000  1.0000
  Cu  Cu20      1.0  0.00000  0.50000  0.50000  1.0000
  Cu  Cu21      1.0  0.50000  0.50000  0.50000  1.0000
  Cu  Cu22      1.0  0.16667  0.33333  0.83333  1.0000
  Cu  Cu23      1.0  0.66667  0.83333  0.83333  1.0000
  Cu  Cu24      1.0  0.16667  0.83333  0.83333  1.0000
  Cu  Cu25      1.0  0.83333  0.66667  0.16667  1.0000
  Cu  Cu26      1.0  0.33333  0.16667  0.16667  1.0000
  Cu  Cu27      1.0  0.83333  0.16667  0.16667  1.0000
  Mo  Mo1       1.0  0.32098  0.99115  0.52462  1.0000
  Mo  Mo2       1.0  0.00885  0.32983  0.52462  1.0000
  Mo  Mo3       1.0  0.67017  0.67902  0.52462  1.0000
  Mo  Mo4       1.0  0.98765  0.32448  0.85795  1.0000
  Mo  Mo5       1.0  0.67552  0.66316  0.85795  1.0000
  Mo  Mo6       1.0  0.33684  0.01235  0.85795  1.0000
  Mo  Mo7       1.0  0.65431  0.65782  0.19129  1.0000
  Mo  Mo8       1.0  0.34218  0.99650  0.19129  1.0000
  Mo  Mo9       1.0  0.00350  0.34569  0.19129  1.0000
  Mo  Mo10      1.0  0.67902  0.00885  0.47538  1.0000
  Mo  Mo11      1.0  0.99115  0.67017  0.47538  1.0000
  Mo  Mo12      1.0  0.32983  0.32098  0.47538  1.0000
  Mo  Mo13      1.0  0.01235  0.67552  0.14205  1.0000
  Mo  Mo14      1.0  0.32448  0.33684  0.14205  1.0000
  Mo  Mo15      1.0  0.66316  0.98765  0.14205  1.0000
  Mo  Mo16      1.0  0.34569  0.34218  0.80871  1.0000
  Mo  Mo17      1.0  0.65782  0.00350  0.80871  1.0000
  Mo  Mo18      1.0  0.99650  0.65431  0.80871  1.0000
  N   N1        1.0  0.32374  0.06076  0.42900  1.0000
  N   N2        1.0  0.93924  0.26298  0.42900  1.0000
  N   N3        1.0  0.73702  0.67626  0.42900  1.0000
  N   N4        1.0  0.99041  0.39409  0.76233  1.0000
  N   N5        1.0  0.60591  0.59631  0.76233  1.0000
  N   N6        1.0  0.40369  0.00959  0.76233  1.0000
  N   N7        1.0  0.65707  0.72743  0.09567  1.0000
  N   N8        1.0  0.27257  0.92965  0.09567  1.0000
  N   N9        1.0  0.07035  0.34293  0.09567  1.0000
  N   N10       1.0  0.67626  0.93924  0.57100  1.0000
  N   N11       1.0  0.06076  0.73702  0.57100  1.0000
  N   N12       1.0  0.26298  0.32374  0.57100  1.0000
  N   N13       1.0  0.00959  0.60591  0.23767  1.0000
  N   N14       1.0  0.39409  0.40369  0.23767  1.0000
  N   N15       1.0  0.59631  0.99041  0.23767  1.0000
  N   N16       1.0  0.34293  0.27257  0.90433  1.0000
  N   N17       1.0  0.72743  0.07035  0.90433  1.0000
  N   N18       1.0  0.92965  0.65707  0.90433  1.0000
  N   N19       1.0  0.40831  0.11579  0.55190  1.0000
  N   N20       1.0  0.88421  0.29252  0.55190  1.0000
  N   N21       1.0  0.70748  0.59169  0.55190  1.0000
  N   N22       1.0  0.07498  0.44912  0.88523  1.0000
  N   N23       1.0  0.55088  0.62585  0.88523  1.0000
  N   N24       1.0  0.37415  0.92502  0.88523  1.0000
  N   N25       1.0  0.74164  0.78246  0.21857  1.0000
  N   N26       1.0  0.21754  0.95919  0.21857  1.0000
  N   N27       1.0  0.04081  0.25836  0.21857  1.0000
  N   N28       1.0  0.59169  0.88421  0.44810  1.0000
  N   N29       1.0  0.11579  0.70748  0.44810  1.0000
  N   N30       1.0  0.29252  0.40831  0.44810  1.0000
  N   N31       1.0  0.92502  0.55088  0.11477  1.0000
  N   N32       1.0  0.44912  0.37415  0.11477  1.0000
  N   N33       1.0  0.62585  0.07498  0.11477  1.0000
  N   N34       1.0  0.25836  0.21754  0.78143  1.0000
  N   N35       1.0  0.78246  0.04081  0.78143  1.0000
  N   N36       1.0  0.95919  0.74164  0.78143  1.0000
  N   N37       1.0  0.42587  0.01222  0.46048  1.0000
  N   N38       1.0  0.98778  0.41365  0.46048  1.0000
  N   N39       1.0  0.58635  0.57413  0.46048  1.0000
  N   N40       1.0  0.09254  0.34555  0.79381  1.0000
  N   N41       1.0  0.65445  0.74698  0.79381  1.0000
  N   N42       1.0  0.25302  0.90746  0.79381  1.0000
  N   N43       1.0  0.75920  0.67889  0.12715  1.0000
  N   N44       1.0  0.32111  0.08032  0.12715  1.0000
  N   N45       1.0  0.91968  0.24080  0.12715  1.0000
  N   N46       1.0  0.57413  0.98778  0.53952  1.0000
  N   N47       1.0  0.01222  0.58635  0.53952  1.0000
  N   N48       1.0  0.41365  0.42587  0.53952  1.0000
  N   N49       1.0  0.90746  0.65445  0.20619  1.0000
  N   N50       1.0  0.34555  0.25302  0.20619  1.0000
  N   N51       1.0  0.74698  0.09254  0.20619  1.0000
  N   N52       1.0  0.24080  0.32111  0.87285  1.0000
  N   N53       1.0  0.67889  0.91968  0.87285  1.0000
  N   N54       1.0  0.08032  0.75920  0.87285  1.0000
  N   N55       1.0  0.39559  0.99125  0.61271  1.0000
  N   N56       1.0  0.00875  0.40434  0.61271  1.0000
  N   N57       1.0  0.59566  0.60441  0.61271  1.0000
  N   N58       1.0  0.06226  0.32458  0.94604  1.0000
  N   N59       1.0  0.67542  0.73767  0.94604  1.0000
  N   N60       1.0  0.26233  0.93774  0.94604  1.0000
  N   N61       1.0  0.72892  0.65792  0.27938  1.0000
  N   N62       1.0  0.34208  0.07101  0.27938  1.0000
  N   N63       1.0  0.92899  0.27108  0.27938  1.0000
  N   N64       1.0  0.60441  0.00875  0.38729  1.0000
  N   N65       1.0  0.99125  0.59566  0.38729  1.0000
  N   N66       1.0  0.40434  0.39559  0.38729  1.0000
  N   N67       1.0  0.93774  0.67542  0.05396  1.0000
  N   N68       1.0  0.32458  0.26233  0.05396  1.0000
  N   N69       1.0  0.73767  0.06226  0.05396  1.0000
  N   N70       1.0  0.27108  0.34208  0.72062  1.0000
  N   N71       1.0  0.65792  0.92899  0.72062  1.0000
  N   N72       1.0  0.07101  0.72892  0.72062  1.0000
  N   N73       1.0  0.30359  0.87029  0.50923  1.0000
  N   N74       1.0  0.12971  0.43330  0.50923  1.0000
  N   N75       1.0  0.56670  0.69641  0.50923  1.0000
  N   N76       1.0  0.97026  0.20362  0.84256  1.0000
  N   N77       1.0  0.79638  0.76663  0.84256  1.0000
  N   N78       1.0  0.23337  0.02974  0.84256  1.0000
  N   N79       1.0  0.63692  0.53696  0.17590  1.0000
  N   N80       1.0  0.46304  0.09997  0.17590  1.0000
  N   N81       1.0  0.90003  0.36308  0.17590  1.0000
  N   N82       1.0  0.69641  0.12971  0.49077  1.0000
  N   N83       1.0  0.87029  0.56670  0.49077  1.0000
  N   N84       1.0  0.43330  0.30359  0.49077  1.0000
  N   N85       1.0  0.02974  0.79638  0.15744  1.0000
  N   N86       1.0  0.20362  0.23337  0.15744  1.0000
  N   N87       1.0  0.76663  0.97026  0.15744  1.0000
  N   N88       1.0  0.36308  0.46304  0.82410  1.0000
  N   N89       1.0  0.53696  0.90003  0.82410  1.0000
  N   N90       1.0  0.09997  0.63692  0.82410  1.0000
  N   N91       1.0  0.23559  0.90620  0.60598  1.0000
  N   N92       1.0  0.09380  0.32939  0.60598  1.0000
  N   N93       1.0  0.67061  0.76441  0.60598  1.0000
  N   N94       1.0  0.90226  0.23953  0.93931  1.0000
  N   N95       1.0  0.76047  0.66272  0.93931  1.0000
  N   N96       1.0  0.33728  0.09774  0.93931  1.0000
  N   N97       1.0  0.56892  0.57287  0.27265  1.0000
  N   N98       1.0  0.42713  0.99606  0.27265  1.0000
  N   N99       1.0  0.00394  0.43108  0.27265  1.0000
  N   N100      1.0  0.76441  0.09380  0.39402  1.0000
  N   N101      1.0  0.90620  0.67061  0.39402  1.0000
  N   N102      1.0  0.32939  0.23559  0.39402  1.0000
  N   N103      1.0  0.09774  0.76047  0.06069  1.0000
  N   N104      1.0  0.23953  0.33728  0.06069  1.0000
  N   N105      1.0  0.66272  0.90226  0.06069  1.0000
  N   N106      1.0  0.43108  0.42713  0.72735  1.0000
  N   N107      1.0  0.57287  0.00394  0.72735  1.0000
  N   N108      1.0  0.99606  0.56892  0.72735  1.0000
  N   N109      1.0  0.21592  0.91621  0.45672  1.0000
  N   N110      1.0  0.08379  0.29971  0.45672  1.0000
  N   N111      1.0  0.70029  0.78408  0.45672  1.0000
  N   N112      1.0  0.88259  0.24954  0.79005  1.0000
  N   N113      1.0  0.75046  0.63304  0.79005  1.0000
  N   N114      1.0  0.36696  0.11741  0.79005  1.0000
  N   N115      1.0  0.54925  0.58288  0.12339  1.0000
  N   N116      1.0  0.41712  0.96638  0.12339  1.0000
  N   N117      1.0  0.03362  0.45075  0.12339  1.0000
  N   N118      1.0  0.78408  0.08379  0.54328  1.0000
  N   N119      1.0  0.91621  0.70029  0.54328  1.0000
  N   N120      1.0  0.29971  0.21592  0.54328  1.0000
  N   N121      1.0  0.11741  0.75046  0.20995  1.0000
  N   N122      1.0  0.24954  0.36696  0.20995  1.0000
  N   N123      1.0  0.63304  0.88259  0.20995  1.0000
  N   N124      1.0  0.45075  0.41712  0.87661  1.0000
  N   N125      1.0  0.58288  0.03362  0.87661  1.0000
  N   N126      1.0  0.96638  0.54925  0.87661  1.0000
  N   N127      1.0  0.25006  0.04274  0.56341  1.0000
  N   N128      1.0  0.95726  0.20732  0.56341  1.0000
  N   N129      1.0  0.79268  0.74994  0.56341  1.0000
  N   N130      1.0  0.91673  0.37607  0.89674  1.0000
  N   N131      1.0  0.62393  0.54065  0.89674  1.0000
  N   N132      1.0  0.45935  0.08327  0.89674  1.0000
  N   N133      1.0  0.58339  0.70941  0.23008  1.0000
  N   N134      1.0  0.29059  0.87399  0.23008  1.0000
  N   N135      1.0  0.12601  0.41661  0.23008  1.0000
  N   N136      1.0  0.74994  0.95726  0.43659  1.0000
  N   N137      1.0  0.04274  0.79268  0.43659  1.0000
  N   N138      1.0  0.20732  0.25006  0.43659  1.0000
  N   N139      1.0  0.08327  0.62393  0.10326  1.0000
  N   N140      1.0  0.37607  0.45935  0.10326  1.0000
  N   N141      1.0  0.54065  0.91673  0.10326  1.0000
  N   N142      1.0  0.41661  0.29059  0.76992  1.0000
  N   N143      1.0  0.70941  0.12601  0.76992  1.0000
  N   N144      1.0  0.87399  0.58339  0.76992  1.0000
  N   N145      1.0  0.38984  0.18550  0.45681  1.0000
  N   N146      1.0  0.81450  0.20434  0.45681  1.0000
  N   N147      1.0  0.79566  0.61016  0.45681  1.0000
  N   N148      1.0  0.05651  0.51883  0.79014  1.0000
  N   N149      1.0  0.48117  0.53767  0.79014  1.0000
  N   N150      1.0  0.46233  0.94349  0.79014  1.0000
  N   N151      1.0  0.72317  0.85217  0.12348  1.0000
  N   N152      1.0  0.14783  0.87101  0.12348  1.0000
  N   N153      1.0  0.12899  0.27683  0.12348  1.0000
  N   N154      1.0  0.61016  0.81450  0.54319  1.0000
  N   N155      1.0  0.18550  0.79566  0.54319  1.0000
  N   N156      1.0  0.20434  0.38984  0.54319  1.0000
  N   N157      1.0  0.94349  0.48117  0.20986  1.0000
  N   N158      1.0  0.51883  0.46233  0.20986  1.0000
  N   N159      1.0  0.53767  0.05651  0.20986  1.0000
  N   N160      1.0  0.27683  0.14783  0.87652  1.0000
  N   N161      1.0  0.85217  0.12899  0.87652  1.0000
  N   N162      1.0  0.87101  0.72317  0.87652  1.0000
  H   H541      1.0  0.38660  0.20930  0.47510  1.0000
  H   H542      1.0  0.79070  0.17730  0.47510  1.0000
  H   H543      1.0  0.82270  0.61340  0.47510  1.0000
  H   H544      1.0  0.05327  0.54263  0.80843  1.0000
  H   H545      1.0  0.45737  0.51063  0.80843  1.0000
  H   H546      1.0  0.48937  0.94673  0.80843  1.0000
  H   H547      1.0  0.71993  0.87597  0.14177  1.0000
  H   H548      1.0  0.12403  0.84397  0.14177  1.0000
  H   H549      1.0  0.15603  0.28007  0.14177  1.0000
  H   H550      1.0  0.61340  0.79070  0.52490  1.0000
  H   H551      1.0  0.20930  0.82270  0.52490  1.0000
  H   H552      1.0  0.17730  0.38660  0.52490  1.0000
  H   H553      1.0  0.94673  0.45737  0.19157  1.0000
  H   H554      1.0  0.54263  0.48937  0.19157  1.0000
  H   H555      1.0  0.51063  0.05327  0.19157  1.0000
  H   H556      1.0  0.28007  0.12403  0.85823  1.0000
  H   H557      1.0  0.87597  0.15603  0.85823  1.0000
  H   H558      1.0  0.84397  0.71993  0.85823  1.0000
  H   H559      1.0  0.39390  0.16350  0.47710  1.0000
  H   H560      1.0  0.83650  0.23040  0.47710  1.0000
  H   H561      1.0  0.76960  0.60610  0.47710  1.0000
  H   H562      1.0  0.06057  0.49683  0.81043  1.0000
  H   H563      1.0  0.50317  0.56373  0.81043  1.0000
  H   H564      1.0  0.43627  0.93943  0.81043  1.0000
  H   H565      1.0  0.72723  0.83017  0.14377  1.0000
  H   H566      1.0  0.16983  0.89707  0.14377  1.0000
  H   H567      1.0  0.10293  0.27277  0.14377  1.0000
  H   H568      1.0  0.60610  0.83650  0.52290  1.0000
  H   H569      1.0  0.16350  0.76960  0.52290  1.0000
  H   H570      1.0  0.23040  0.39390  0.52290  1.0000
  H   H571      1.0  0.93943  0.50317  0.18957  1.0000
  H   H572      1.0  0.49683  0.43627  0.18957  1.0000
  H   H573      1.0  0.56373  0.06057  0.18957  1.0000
  H   H574      1.0  0.27277  0.16983  0.85623  1.0000
  H   H575      1.0  0.83017  0.10293  0.85623  1.0000
  H   H576      1.0  0.89707  0.72723  0.85623  1.0000
  N   N163      1.0  0.37503  0.15933  0.36042  1.0000
  N   N164      1.0  0.84067  0.21570  0.36042  1.0000
  N   N165      1.0  0.78430  0.62497  0.36042  1.0000
  N   N166      1.0  0.04170  0.49266  0.69375  1.0000
  N   N167      1.0  0.50734  0.54903  0.69375  1.0000
  N   N168      1.0  0.45097  0.95830  0.69375  1.0000
  N   N169      1.0  0.70836  0.82600  0.02709  1.0000
  N   N170      1.0  0.17400  0.88237  0.02709  1.0000
  N   N171      1.0  0.11763  0.29164  0.02709  1.0000
  N   N172      1.0  0.62497  0.84067  0.63958  1.0000
  N   N173      1.0  0.15933  0.78430  0.63958  1.0000
  N   N174      1.0  0.21570  0.37503  0.63958  1.0000
  N   N175      1.0  0.95830  0.50734  0.30625  1.0000
  N   N176      1.0  0.49266  0.45097  0.30625  1.0000
  N   N177      1.0  0.54903  0.04170  0.30625  1.0000
  N   N178      1.0  0.29164  0.17400  0.97291  1.0000
  N   N179      1.0  0.82600  0.11763  0.97291  1.0000
  N   N180      1.0  0.88237  0.70836  0.97291  1.0000
  H   H577      1.0  0.36390  0.13010  0.34200  1.0000
  H   H578      1.0  0.86990  0.23380  0.34200  1.0000
  H   H579      1.0  0.76620  0.63610  0.34200  1.0000
  H   H580      1.0  0.03057  0.46343  0.67533  1.0000
  H   H581      1.0  0.53657  0.56713  0.67533  1.0000
  H   H582      1.0  0.43287  0.96943  0.67533  1.0000
  H   H583      1.0  0.69723  0.79677  0.00867  1.0000
  H   H584      1.0  0.20323  0.90047  0.00867  1.0000
  H   H585      1.0  0.09953  0.30277  0.00867  1.0000
  H   H586      1.0  0.63610  0.86990  0.65800  1.0000
  H   H587      1.0  0.13010  0.76620  0.65800  1.0000
  H   H588      1.0  0.23380  0.36390  0.65800  1.0000
  H   H589      1.0  0.96943  0.53657  0.32467  1.0000
  H   H590      1.0  0.46343  0.43287  0.32467  1.0000
  H   H591      1.0  0.56713  0.03057  0.32467  1.0000
  H   H592      1.0  0.30277  0.20323  0.99133  1.0000
  H   H593      1.0  0.79677  0.09953  0.99133  1.0000
  H   H594      1.0  0.90047  0.69723  0.99133  1.0000
  H   H595      1.0  0.37640  0.18510  0.34130  1.0000
  H   H596      1.0  0.81490  0.19130  0.34130  1.0000
  H   H597      1.0  0.80870  0.62360  0.34130  1.0000
  H   H598      1.0  0.04307  0.51843  0.67463  1.0000
  H   H599      1.0  0.48157  0.52463  0.67463  1.0000
  H   H600      1.0  0.47537  0.95693  0.67463  1.0000
  H   H601      1.0  0.70973  0.85177  0.00797  1.0000
  H   H602      1.0  0.14823  0.85797  0.00797  1.0000
  H   H603      1.0  0.14203  0.29027  0.00797  1.0000
  H   H604      1.0  0.62360  0.81490  0.65870  1.0000
  H   H605      1.0  0.18510  0.80870  0.65870  1.0000
  H   H606      1.0  0.19130  0.37640  0.65870  1.0000
  H   H607      1.0  0.95693  0.48157  0.32537  1.0000
  H   H608      1.0  0.51843  0.47537  0.32537  1.0000
  H   H609      1.0  0.52463  0.04307  0.32537  1.0000
  H   H610      1.0  0.29027  0.14823  0.99203  1.0000
  H   H611      1.0  0.85177  0.14203  0.99203  1.0000
  H   H612      1.0  0.85797  0.70973  0.99203  1.0000
  N   N181      1.0  0.27464  0.12862  0.47354  1.0000
  N   N182      1.0  0.87138  0.14602  0.47354  1.0000
  N   N183      1.0  0.85398  0.72536  0.47354  1.0000
  N   N184      1.0  0.94131  0.46195  0.80687  1.0000
  N   N185      1.0  0.53805  0.47935  0.80687  1.0000
  N   N186      1.0  0.52065  0.05869  0.80687  1.0000
  N   N187      1.0  0.60797  0.79529  0.14021  1.0000
  N   N188      1.0  0.20471  0.81269  0.14021  1.0000
  N   N189      1.0  0.18731  0.39203  0.14021  1.0000
  N   N190      1.0  0.72536  0.87138  0.52646  1.0000
  N   N191      1.0  0.12862  0.85398  0.52646  1.0000
  N   N192      1.0  0.14602  0.27464  0.52646  1.0000
  N   N193      1.0  0.05869  0.53805  0.19313  1.0000
  N   N194      1.0  0.46195  0.52065  0.19313  1.0000
  N   N195      1.0  0.47935  0.94131  0.19313  1.0000
  N   N196      1.0  0.39203  0.20471  0.85979  1.0000
  N   N197      1.0  0.79529  0.18731  0.85979  1.0000
  N   N198      1.0  0.81269  0.60797  0.85979  1.0000
  H   H613      1.0  0.26920  0.09950  0.48970  1.0000
  H   H614      1.0  0.90050  0.16970  0.48970  1.0000
  H   H615      1.0  0.83030  0.73080  0.48970  1.0000
  H   H616      1.0  0.93587  0.43283  0.82303  1.0000
  H   H617      1.0  0.56717  0.50303  0.82303  1.0000
  H   H618      1.0  0.49697  0.06413  0.82303  1.0000
  H   H619      1.0  0.60253  0.76617  0.15637  1.0000
  H   H620      1.0  0.23383  0.83637  0.15637  1.0000
  H   H621      1.0  0.16363  0.39747  0.15637  1.0000
  H   H622      1.0  0.73080  0.90050  0.51030  1.0000
  H   H623      1.0  0.09950  0.83030  0.51030  1.0000
  H   H624      1.0  0.16970  0.26920  0.51030  1.0000
  H   H625      1.0  0.06413  0.56717  0.17697  1.0000
  H   H626      1.0  0.43283  0.49697  0.17697  1.0000
  H   H627      1.0  0.50303  0.93587  0.17697  1.0000
  H   H628      1.0  0.39747  0.23383  0.84363  1.0000
  H   H629      1.0  0.76617  0.16363  0.84363  1.0000
  H   H630      1.0  0.83637  0.60253  0.84363  1.0000
  H   H631      1.0  0.28720  0.15590  0.49470  1.0000
  H   H632      1.0  0.84410  0.13130  0.49470  1.0000
  H   H633      1.0  0.86870  0.71280  0.49470  1.0000
  H   H634      1.0  0.95387  0.48923  0.82803  1.0000
  H   H635      1.0  0.51077  0.46463  0.82803  1.0000
  H   H636      1.0  0.53537  0.04613  0.82803  1.0000
  H   H637      1.0  0.62053  0.82257  0.16137  1.0000
  H   H638      1.0  0.17743  0.79797  0.16137  1.0000
  H   H639      1.0  0.20203  0.37947  0.16137  1.0000
  H   H640      1.0  0.71280  0.84410  0.50530  1.0000
  H   H641      1.0  0.15590  0.86870  0.50530  1.0000
  H   H642      1.0  0.13130  0.28720  0.50530  1.0000
  H   H643      1.0  0.04613  0.51077  0.17197  1.0000
  H   H644      1.0  0.48923  0.53537  0.17197  1.0000
  H   H645      1.0  0.46463  0.95387  0.17197  1.0000
  H   H646      1.0  0.37947  0.17743  0.83863  1.0000
  H   H647      1.0  0.82257  0.20203  0.83863  1.0000
  H   H648      1.0  0.79797  0.62053  0.83863  1.0000
  N   N199      1.0  0.25767  0.11058  0.37006  1.0000
  N   N200      1.0  0.88942  0.14709  0.37006  1.0000
  N   N201      1.0  0.85291  0.74233  0.37006  1.0000
  N   N202      1.0  0.92434  0.44391  0.70339  1.0000
  N   N203      1.0  0.55609  0.48042  0.70339  1.0000
  N   N204      1.0  0.51958  0.07566  0.70339  1.0000
  N   N205      1.0  0.59100  0.77725  0.03673  1.0000
  N   N206      1.0  0.22275  0.81376  0.03673  1.0000
  N   N207      1.0  0.18624  0.40900  0.03673  1.0000
  N   N208      1.0  0.74233  0.88942  0.62994  1.0000
  N   N209      1.0  0.11058  0.85291  0.62994  1.0000
  N   N210      1.0  0.14709  0.25767  0.62994  1.0000
  N   N211      1.0  0.07566  0.55609  0.29661  1.0000
  N   N212      1.0  0.44391  0.51958  0.29661  1.0000
  N   N213      1.0  0.48042  0.92434  0.29661  1.0000
  N   N214      1.0  0.40900  0.22275  0.96327  1.0000
  N   N215      1.0  0.77725  0.18624  0.96327  1.0000
  N   N216      1.0  0.81376  0.59100  0.96327  1.0000
  H   H649      1.0  0.25480  0.13530  0.35280  1.0000
  H   H650      1.0  0.86470  0.11950  0.35280  1.0000
  H   H651      1.0  0.88050  0.74520  0.35280  1.0000
  H   H652      1.0  0.92147  0.46863  0.68613  1.0000
  H   H653      1.0  0.53137  0.45283  0.68613  1.0000
  H   H654      1.0  0.54717  0.07853  0.68613  1.0000
  H   H655      1.0  0.58813  0.80197  0.01947  1.0000
  H   H656      1.0  0.19803  0.78617  0.01947  1.0000
  H   H657      1.0  0.21383  0.41187  0.01947  1.0000
  H   H658      1.0  0.74520  0.86470  0.64720  1.0000
  H   H659      1.0  0.13530  0.88050  0.64720  1.0000
  H   H660      1.0  0.11950  0.25480  0.64720  1.0000
  H   H661      1.0  0.07853  0.53137  0.31387  1.0000
  H   H662      1.0  0.46863  0.54717  0.31387  1.0000
  H   H663      1.0  0.45283  0.92147  0.31387  1.0000
  H   H664      1.0  0.41187  0.19803  0.98053  1.0000
  H   H665      1.0  0.80197  0.21383  0.98053  1.0000
  H   H666      1.0  0.78617  0.58813  0.98053  1.0000
  H   H667      1.0  0.25780  0.08670  0.34930  1.0000
  H   H668      1.0  0.91330  0.17110  0.34930  1.0000
  H   H669      1.0  0.82890  0.74220  0.34930  1.0000
  H   H670      1.0  0.92447  0.42003  0.68263  1.0000
  H   H671      1.0  0.57997  0.50443  0.68263  1.0000
  H   H672      1.0  0.49557  0.07553  0.68263  1.0000
  H   H673      1.0  0.59113  0.75337  0.01597  1.0000
  H   H674      1.0  0.24663  0.83777  0.01597  1.0000
  H   H675      1.0  0.16223  0.40887  0.01597  1.0000
  H   H676      1.0  0.74220  0.91330  0.65070  1.0000
  H   H677      1.0  0.08670  0.82890  0.65070  1.0000
  H   H678      1.0  0.17110  0.25780  0.65070  1.0000
  H   H679      1.0  0.07553  0.57997  0.31737  1.0000
  H   H680      1.0  0.42003  0.49557  0.31737  1.0000
  H   H681      1.0  0.50443  0.92447  0.31737  1.0000
  H   H682      1.0  0.40887  0.24663  0.98403  1.0000
  H   H683      1.0  0.75337  0.16223  0.98403  1.0000
  H   H684      1.0  0.83777  0.59113  0.98403  1.0000
  N   N217      1.0  0.49013  0.94762  0.44562  1.0000
  N   N218      1.0  0.05238  0.54251  0.44562  1.0000
  N   N219      1.0  0.45749  0.50987  0.44562  1.0000
  N   N220      1.0  0.15680  0.28095  0.77895  1.0000
  N   N221      1.0  0.71905  0.87584  0.77895  1.0000
  N   N222      1.0  0.12416  0.84320  0.77895  1.0000
  N   N223      1.0  0.82346  0.61429  0.11229  1.0000
  N   N224      1.0  0.38571  0.20918  0.11229  1.0000
  N   N225      1.0  0.79082  0.17654  0.11229  1.0000
  N   N226      1.0  0.50987  0.05238  0.55438  1.0000
  N   N227      1.0  0.94762  0.45749  0.55438  1.0000
  N   N228      1.0  0.54251  0.49013  0.55438  1.0000
  N   N229      1.0  0.84320  0.71905  0.22105  1.0000
  N   N230      1.0  0.28095  0.12416  0.22105  1.0000
  N   N231      1.0  0.87584  0.15680  0.22105  1.0000
  N   N232      1.0  0.17654  0.38571  0.88771  1.0000
  N   N233      1.0  0.61429  0.79082  0.88771  1.0000
  N   N234      1.0  0.20918  0.82346  0.88771  1.0000
  H   H685      1.0  0.52120  0.95730  0.43090  1.0000
  H   H686      1.0  0.04270  0.56390  0.43090  1.0000
  H   H687      1.0  0.43610  0.47880  0.43090  1.0000
  H   H688      1.0  0.18787  0.29063  0.76423  1.0000
  H   H689      1.0  0.70937  0.89723  0.76423  1.0000
  H   H690      1.0  0.10277  0.81213  0.76423  1.0000
  H   H691      1.0  0.85453  0.62397  0.09757  1.0000
  H   H692      1.0  0.37603  0.23057  0.09757  1.0000
  H   H693      1.0  0.76943  0.14547  0.09757  1.0000
  H   H694      1.0  0.47880  0.04270  0.56910  1.0000
  H   H695      1.0  0.95730  0.43610  0.56910  1.0000
  H   H696      1.0  0.56390  0.52120  0.56910  1.0000
  H   H697      1.0  0.81213  0.70937  0.23577  1.0000
  H   H698      1.0  0.29063  0.10277  0.23577  1.0000
  H   H699      1.0  0.89723  0.18787  0.23577  1.0000
  H   H700      1.0  0.14547  0.37603  0.90243  1.0000
  H   H701      1.0  0.62397  0.76943  0.90243  1.0000
  H   H702      1.0  0.23057  0.85453  0.90243  1.0000
  H   H703      1.0  0.46740  0.94670  0.42290  1.0000
  H   H704      1.0  0.05330  0.52070  0.42290  1.0000
  H   H705      1.0  0.47930  0.53260  0.42290  1.0000
  H   H706      1.0  0.13407  0.28003  0.75623  1.0000
  H   H707      1.0  0.71997  0.85403  0.75623  1.0000
  H   H708      1.0  0.14597  0.86593  0.75623  1.0000
  H   H709      1.0  0.80073  0.61337  0.08957  1.0000
  H   H710      1.0  0.38663  0.18737  0.08957  1.0000
  H   H711      1.0  0.81263  0.19927  0.08957  1.0000
  H   H712      1.0  0.53260  0.05330  0.57710  1.0000
  H   H713      1.0  0.94670  0.47930  0.57710  1.0000
  H   H714      1.0  0.52070  0.46740  0.57710  1.0000
  H   H715      1.0  0.86593  0.71997  0.24377  1.0000
  H   H716      1.0  0.28003  0.14597  0.24377  1.0000
  H   H717      1.0  0.85403  0.13407  0.24377  1.0000
  H   H718      1.0  0.19927  0.38663  0.91043  1.0000
  H   H719      1.0  0.61337  0.81263  0.91043  1.0000
  H   H720      1.0  0.18737  0.80073  0.91043  1.0000
  N   N235      1.0  0.45184  0.93641  0.54204  1.0000
  N   N236      1.0  0.06359  0.51543  0.54204  1.0000
  N   N237      1.0  0.48457  0.54816  0.54204  1.0000
  N   N238      1.0  0.11851  0.26974  0.87537  1.0000
  N   N239      1.0  0.73026  0.84876  0.87537  1.0000
  N   N240      1.0  0.15124  0.88149  0.87537  1.0000
  N   N241      1.0  0.78517  0.60308  0.20871  1.0000
  N   N242      1.0  0.39692  0.18210  0.20871  1.0000
  N   N243      1.0  0.81790  0.21483  0.20871  1.0000
  N   N244      1.0  0.54816  0.06359  0.45796  1.0000
  N   N245      1.0  0.93641  0.48457  0.45796  1.0000
  N   N246      1.0  0.51543  0.45184  0.45796  1.0000
  N   N247      1.0  0.88149  0.73026  0.12463  1.0000
  N   N248      1.0  0.26974  0.15124  0.12463  1.0000
  N   N249      1.0  0.84876  0.11851  0.12463  1.0000
  N   N250      1.0  0.21483  0.39692  0.79129  1.0000
  N   N251      1.0  0.60308  0.81790  0.79129  1.0000
  N   N252      1.0  0.18210  0.78517  0.79129  1.0000
  H   H721      1.0  0.42590  0.94050  0.55520  1.0000
  H   H722      1.0  0.05950  0.48540  0.55520  1.0000
  H   H723      1.0  0.51460  0.57410  0.55520  1.0000
  H   H724      1.0  0.09257  0.27383  0.88853  1.0000
  H   H725      1.0  0.72617  0.81873  0.88853  1.0000
  H   H726      1.0  0.18127  0.90743  0.88853  1.0000
  H   H727      1.0  0.75923  0.60717  0.22187  1.0000
  H   H728      1.0  0.39283  0.15207  0.22187  1.0000
  H   H729      1.0  0.84793  0.24077  0.22187  1.0000
  H   H730      1.0  0.57410  0.05950  0.44480  1.0000
  H   H731      1.0  0.94050  0.51460  0.44480  1.0000
  H   H732      1.0  0.48540  0.42590  0.44480  1.0000
  H   H733      1.0  0.90743  0.72617  0.11147  1.0000
  H   H734      1.0  0.27383  0.18127  0.11147  1.0000
  H   H735      1.0  0.81873  0.09257  0.11147  1.0000
  H   H736      1.0  0.24077  0.39283  0.77813  1.0000
  H   H737      1.0  0.60717  0.84793  0.77813  1.0000
  H   H738      1.0  0.15207  0.75923  0.77813  1.0000
  H   H739      1.0  0.47030  0.93260  0.56650  1.0000
  H   H740      1.0  0.06740  0.53770  0.56650  1.0000
  H   H741      1.0  0.46230  0.52970  0.56650  1.0000
  H   H742      1.0  0.13697  0.26593  0.89983  1.0000
  H   H743      1.0  0.73407  0.87103  0.89983  1.0000
  H   H744      1.0  0.12897  0.86303  0.89983  1.0000
  H   H745      1.0  0.80363  0.59927  0.23317  1.0000
  H   H746      1.0  0.40073  0.20437  0.23317  1.0000
  H   H747      1.0  0.79563  0.19637  0.23317  1.0000
  H   H748      1.0  0.52970  0.06740  0.43350  1.0000
  H   H749      1.0  0.93260  0.46230  0.43350  1.0000
  H   H750      1.0  0.53770  0.47030  0.43350  1.0000
  H   H751      1.0  0.86303  0.73407  0.10017  1.0000
  H   H752      1.0  0.26593  0.12897  0.10017  1.0000
  H   H753      1.0  0.87103  0.13697  0.10017  1.0000
  H   H754      1.0  0.19637  0.40073  0.76683  1.0000
  H   H755      1.0  0.59927  0.79563  0.76683  1.0000
  H   H756      1.0  0.20437  0.80363  0.76683  1.0000
