data_image0
_chemical_formula_structural       I2Cu4I2N8C16H4C8H8C8H4C4H8C4H8C32O4H8O4H8O4H8O4H8O4H8O4H8Mn2Mo12Mn2Mo12O72
_chemical_formula_sum              "I4 Cu4 N8 C72 H80 O96 Mn4 Mo24"
_cell_length_a       14.603
_cell_length_b       27.207
_cell_length_c       25.725
_cell_angle_alpha    90
_cell_angle_beta     94.259
_cell_angle_gamma    90

_space_group_name_H-M_alt    "P 1"
_space_group_IT_number       1

loop_
  _space_group_symop_operation_xyz
  'x, y, z'

loop_
  _atom_site_type_symbol
  _atom_site_label
  _atom_site_symmetry_multiplicity
  _atom_site_fract_x
  _atom_site_fract_y
  _atom_site_fract_z
  _atom_site_occupancy
  I   I1        1.0  0.38295  0.25000  0.29621  1.0000
  I   I2        1.0  0.61705  0.75000  0.70379  1.0000
  Cu  Cu1       1.0  0.24375  0.29814  0.24774  1.0000
  Cu  Cu2       1.0  0.75625  0.79814  0.75226  1.0000
  Cu  Cu3       1.0  0.75625  0.70186  0.75226  1.0000
  Cu  Cu4       1.0  0.24375  0.20186  0.24774  1.0000
  I   I3        1.0  0.11154  0.25000  0.19390  1.0000
  I   I4        1.0  0.88846  0.75000  0.80610  1.0000
  N   N1        1.0  0.18470  0.33794  0.30410  1.0000
  N   N2        1.0  0.81530  0.83794  0.69590  1.0000
  N   N3        1.0  0.81530  0.66206  0.69590  1.0000
  N   N4        1.0  0.18470  0.16206  0.30410  1.0000
  N   N5        1.0  0.30160  0.34390  0.19640  1.0000
  N   N6        1.0  0.69840  0.84390  0.80360  1.0000
  N   N7        1.0  0.69840  0.65610  0.80360  1.0000
  N   N8        1.0  0.30160  0.15610  0.19640  1.0000
  C   C1        1.0  0.23470  0.36450  0.33960  1.0000
  C   C2        1.0  0.76530  0.86450  0.66040  1.0000
  C   C3        1.0  0.76530  0.63550  0.66040  1.0000
  C   C4        1.0  0.23470  0.13550  0.33960  1.0000
  C   C5        1.0  0.09450  0.34010  0.30970  1.0000
  C   C6        1.0  0.90550  0.84010  0.69030  1.0000
  C   C7        1.0  0.90550  0.65990  0.69030  1.0000
  C   C8        1.0  0.09450  0.15990  0.30970  1.0000
  C   C9        1.0  0.25700  0.37920  0.17000  1.0000
  C   C10       1.0  0.74300  0.87920  0.83000  1.0000
  C   C11       1.0  0.74300  0.62080  0.83000  1.0000
  C   C12       1.0  0.25700  0.12080  0.17000  1.0000
  C   C13       1.0  0.39060  0.34440  0.18820  1.0000
  C   C14       1.0  0.60940  0.84440  0.81180  1.0000
  C   C15       1.0  0.60940  0.65560  0.81180  1.0000
  C   C16       1.0  0.39060  0.15560  0.18820  1.0000
  H   H1        1.0  0.29960  0.36160  0.34000  1.0000
  H   H2        1.0  0.70040  0.86160  0.66000  1.0000
  H   H3        1.0  0.70040  0.63840  0.66000  1.0000
  H   H4        1.0  0.29960  0.13840  0.34000  1.0000
  C   C17       1.0  0.20070  0.39530  0.37540  1.0000
  C   C18       1.0  0.79930  0.89530  0.62460  1.0000
  C   C19       1.0  0.79930  0.60470  0.62460  1.0000
  C   C20       1.0  0.20070  0.10470  0.37540  1.0000
  C   C21       1.0  0.05590  0.36760  0.34590  1.0000
  C   C22       1.0  0.94410  0.86760  0.65410  1.0000
  C   C23       1.0  0.94410  0.63240  0.65410  1.0000
  C   C24       1.0  0.05590  0.13240  0.34590  1.0000
  H   H5        1.0  0.05500  0.32100  0.28670  1.0000
  H   H6        1.0  0.94500  0.82100  0.71330  1.0000
  H   H7        1.0  0.94500  0.67900  0.71330  1.0000
  H   H8        1.0  0.05500  0.17900  0.28670  1.0000
  H   H9        1.0  0.19470  0.38570  0.17610  1.0000
  H   H10       1.0  0.80530  0.88570  0.82390  1.0000
  H   H11       1.0  0.80530  0.61430  0.82390  1.0000
  H   H12       1.0  0.19470  0.11430  0.17610  1.0000
  C   C25       1.0  0.29940  0.40690  0.13370  1.0000
  C   C26       1.0  0.70060  0.90690  0.86630  1.0000
  C   C27       1.0  0.70060  0.59310  0.86630  1.0000
  C   C28       1.0  0.29940  0.09310  0.13370  1.0000
  C   C29       1.0  0.43520  0.37270  0.15390  1.0000
  C   C30       1.0  0.56480  0.87270  0.84610  1.0000
  C   C31       1.0  0.56480  0.62730  0.84610  1.0000
  C   C32       1.0  0.43520  0.12730  0.15390  1.0000
  H   H13       1.0  0.42810  0.32220  0.20890  1.0000
  H   H14       1.0  0.57190  0.82220  0.79110  1.0000
  H   H15       1.0  0.57190  0.67780  0.79110  1.0000
  H   H16       1.0  0.42810  0.17780  0.20890  1.0000
  C   C33       1.0  0.10850  0.39757  0.38030  1.0000
  C   C34       1.0  0.89150  0.89757  0.61970  1.0000
  C   C35       1.0  0.89150  0.60243  0.61970  1.0000
  C   C36       1.0  0.10850  0.10243  0.38030  1.0000
  H   H17       1.0  0.24130  0.41520  0.39690  1.0000
  H   H18       1.0  0.75870  0.91520  0.60310  1.0000
  H   H19       1.0  0.75870  0.58480  0.60310  1.0000
  H   H20       1.0  0.24130  0.08480  0.39690  1.0000
  H   H21       1.0  0.99120  0.36660  0.34790  1.0000
  H   H22       1.0  0.00880  0.86660  0.65210  1.0000
  H   H23       1.0  0.00880  0.63340  0.65210  1.0000
  H   H24       1.0  0.99120  0.13340  0.34790  1.0000
  C   C37       1.0  0.38510  0.40520  0.12350  1.0000
  C   C38       1.0  0.61490  0.90520  0.87650  1.0000
  C   C39       1.0  0.61490  0.59480  0.87650  1.0000
  C   C40       1.0  0.38510  0.09480  0.12350  1.0000
  H   H25       1.0  0.26170  0.42970  0.11410  1.0000
  H   H26       1.0  0.73830  0.92970  0.88590  1.0000
  H   H27       1.0  0.73830  0.57030  0.88590  1.0000
  H   H28       1.0  0.26170  0.07030  0.11410  1.0000
  H   H29       1.0  0.49960  0.36960  0.15150  1.0000
  H   H30       1.0  0.50040  0.86960  0.84850  1.0000
  H   H31       1.0  0.50040  0.63040  0.84850  1.0000
  H   H32       1.0  0.49960  0.13040  0.15150  1.0000
  C   C41       1.0  0.06990  0.43147  0.42100  1.0000
  C   C42       1.0  0.93010  0.93147  0.57900  1.0000
  C   C43       1.0  0.93010  0.56853  0.57900  1.0000
  C   C44       1.0  0.06990  0.06853  0.42100  1.0000
  C   C45       1.0  0.42300  0.43700  0.08110  1.0000
  C   C46       1.0  0.57700  0.93700  0.91890  1.0000
  C   C47       1.0  0.57700  0.56300  0.91890  1.0000
  C   C48       1.0  0.42300  0.06300  0.08110  1.0000
  C   C49       1.0  0.11640  0.41660  0.47440  1.0000
  C   C50       1.0  0.88360  0.91660  0.52560  1.0000
  C   C51       1.0  0.88360  0.58340  0.52560  1.0000
  C   C52       1.0  0.11640  0.08340  0.47440  1.0000
  C   C53       1.0  0.96420  0.42530  0.42040  1.0000
  C   C54       1.0  0.03580  0.92530  0.57960  1.0000
  C   C55       1.0  0.03580  0.57470  0.57960  1.0000
  C   C56       1.0  0.96420  0.07470  0.42040  1.0000
  C   C57       1.0  0.09460  0.48424  0.40410  1.0000
  C   C58       1.0  0.90540  0.98424  0.59590  1.0000
  C   C59       1.0  0.90540  0.51576  0.59590  1.0000
  C   C60       1.0  0.09460  0.01576  0.40410  1.0000
  C   C61       1.0  0.41710  0.48930  0.09960  1.0000
  C   C62       1.0  0.58290  0.98930  0.90040  1.0000
  C   C63       1.0  0.58290  0.51070  0.90040  1.0000
  C   C64       1.0  0.41710  0.01070  0.09960  1.0000
  C   C65       1.0  0.52240  0.42180  0.07590  1.0000
  C   C66       1.0  0.47760  0.92180  0.92410  1.0000
  C   C67       1.0  0.47760  0.57820  0.92410  1.0000
  C   C68       1.0  0.52240  0.07820  0.07590  1.0000
  C   C69       1.0  0.36520  0.42860  0.03090  1.0000
  C   C70       1.0  0.63480  0.92860  0.96910  1.0000
  C   C71       1.0  0.63480  0.57140  0.96910  1.0000
  C   C72       1.0  0.36520  0.07140  0.03090  1.0000
  O   O1        1.0  0.09010  0.44706  0.51740  1.0000
  O   O2        1.0  0.90990  0.94706  0.48260  1.0000
  O   O3        1.0  0.90990  0.55294  0.48260  1.0000
  O   O4        1.0  0.09010  0.05294  0.51740  1.0000
  H   H33       1.0  0.10060  0.38200  0.48160  1.0000
  H   H34       1.0  0.89940  0.88200  0.51840  1.0000
  H   H35       1.0  0.89940  0.61800  0.51840  1.0000
  H   H36       1.0  0.10060  0.11800  0.48160  1.0000
  H   H37       1.0  0.18380  0.41850  0.47280  1.0000
  H   H38       1.0  0.81620  0.91850  0.52720  1.0000
  H   H39       1.0  0.81620  0.58150  0.52720  1.0000
  H   H40       1.0  0.18380  0.08150  0.47280  1.0000
  O   O5        1.0  0.91980  0.45562  0.45670  1.0000
  O   O6        1.0  0.08020  0.95562  0.54330  1.0000
  O   O7        1.0  0.08020  0.54438  0.54330  1.0000
  O   O8        1.0  0.91980  0.04438  0.45670  1.0000
  H   H41       1.0  0.93710  0.43260  0.38490  1.0000
  H   H42       1.0  0.06290  0.93260  0.61510  1.0000
  H   H43       1.0  0.06290  0.56740  0.61510  1.0000
  H   H44       1.0  0.93710  0.06740  0.38490  1.0000
  H   H45       1.0  0.95060  0.39050  0.42790  1.0000
  H   H46       1.0  0.04940  0.89050  0.57210  1.0000
  H   H47       1.0  0.04940  0.60950  0.57210  1.0000
  H   H48       1.0  0.95060  0.10950  0.42790  1.0000
  O   O9        1.0  0.06560  0.52233  0.43808  1.0000
  O   O10       1.0  0.93440  0.02233  0.56192  1.0000
  O   O11       1.0  0.93440  0.47767  0.56192  1.0000
  O   O12       1.0  0.06560  0.97767  0.43808  1.0000
  H   H49       1.0  0.16200  0.48640  0.40240  1.0000
  H   H50       1.0  0.83800  0.98640  0.59760  1.0000
  H   H51       1.0  0.83800  0.51360  0.59760  1.0000
  H   H52       1.0  0.16200  0.01360  0.40240  1.0000
  H   H53       1.0  0.06600  0.49020  0.36850  1.0000
  H   H54       1.0  0.93400  0.99020  0.63150  1.0000
  H   H55       1.0  0.93400  0.50980  0.63150  1.0000
  H   H56       1.0  0.06600  0.00980  0.36850  1.0000
  O   O13       1.0  0.45180  0.52601  0.06604  1.0000
  O   O14       1.0  0.54820  0.02601  0.93396  1.0000
  O   O15       1.0  0.54820  0.47399  0.93396  1.0000
  O   O16       1.0  0.45180  0.97399  0.06604  1.0000
  H   H57       1.0  0.35200  0.49690  0.10440  1.0000
  H   H58       1.0  0.64800  0.99690  0.89560  1.0000
  H   H59       1.0  0.64800  0.50310  0.89560  1.0000
  H   H60       1.0  0.35200  0.00310  0.10440  1.0000
  H   H61       1.0  0.45140  0.49190  0.13420  1.0000
  H   H62       1.0  0.54860  0.99190  0.86580  1.0000
  H   H63       1.0  0.54860  0.50810  0.86580  1.0000
  H   H64       1.0  0.45140  0.00810  0.13420  1.0000
  O   O17       1.0  0.56840  0.44934  0.03796  1.0000
  O   O18       1.0  0.43160  0.94934  0.96204  1.0000
  O   O19       1.0  0.43160  0.55066  0.96204  1.0000
  O   O20       1.0  0.56840  0.05066  0.03796  1.0000
  H   H65       1.0  0.55700  0.42560  0.11020  1.0000
  H   H66       1.0  0.44300  0.92560  0.88980  1.0000
  H   H67       1.0  0.44300  0.57440  0.88980  1.0000
  H   H68       1.0  0.55700  0.07440  0.11020  1.0000
  H   H69       1.0  0.52370  0.38660  0.06640  1.0000
  H   H70       1.0  0.47630  0.88660  0.93360  1.0000
  H   H71       1.0  0.47630  0.61340  0.93360  1.0000
  H   H72       1.0  0.52370  0.11340  0.06640  1.0000
  O   O21       1.0  0.39190  0.45606  0.98630  1.0000
  O   O22       1.0  0.60810  0.95606  0.01370  1.0000
  O   O23       1.0  0.60810  0.54394  0.01370  1.0000
  O   O24       1.0  0.39190  0.04394  0.98630  1.0000
  H   H73       1.0  0.36700  0.39310  0.02230  1.0000
  H   H74       1.0  0.63300  0.89310  0.97770  1.0000
  H   H75       1.0  0.63300  0.60690  0.97770  1.0000
  H   H76       1.0  0.36700  0.10690  0.02230  1.0000
  H   H77       1.0  0.30080  0.43700  0.03660  1.0000
  H   H78       1.0  0.69920  0.93700  0.96340  1.0000
  H   H79       1.0  0.69920  0.56300  0.96340  1.0000
  H   H80       1.0  0.30080  0.06300  0.03660  1.0000
  Mn  Mn1       1.0  0.00000  0.50000  0.50000  1.0000
  Mn  Mn2       1.0  0.00000  0.00000  0.50000  1.0000
  Mo  Mo1       1.0  0.20117  0.49051  0.57061  1.0000
  Mo  Mo2       1.0  0.79883  0.99051  0.42939  1.0000
  Mo  Mo3       1.0  0.79883  0.50949  0.42939  1.0000
  Mo  Mo4       1.0  0.20117  0.00949  0.57061  1.0000
  Mo  Mo5       1.0  0.03001  0.41201  0.59260  1.0000
  Mo  Mo6       1.0  0.96999  0.91201  0.40740  1.0000
  Mo  Mo7       1.0  0.96999  0.58799  0.40740  1.0000
  Mo  Mo8       1.0  0.03001  0.08799  0.59260  1.0000
  Mo  Mo9       1.0  0.82708  0.42157  0.52194  1.0000
  Mo  Mo10      1.0  0.17292  0.92157  0.47806  1.0000
  Mo  Mo11      1.0  0.17292  0.57843  0.47806  1.0000
  Mo  Mo12      1.0  0.82708  0.07843  0.52194  1.0000
  Mn  Mn3       1.0  0.50000  0.50000  0.00000  1.0000
  Mn  Mn4       1.0  0.50000  0.00000  0.00000  1.0000
  Mo  Mo13      1.0  0.35979  0.59104  0.03208  1.0000
  Mo  Mo14      1.0  0.64021  0.09104  0.96792  1.0000
  Mo  Mo15      1.0  0.64021  0.40896  0.96792  1.0000
  Mo  Mo16      1.0  0.35979  0.90896  0.03208  1.0000
  Mo  Mo17      1.0  0.57211  0.58253  0.09229  1.0000
  Mo  Mo18      1.0  0.42789  0.08253  0.90771  1.0000
  Mo  Mo19      1.0  0.42789  0.41747  0.90771  1.0000
  Mo  Mo20      1.0  0.57211  0.91747  0.09229  1.0000
  Mo  Mo21      1.0  0.71179  0.49150  0.06030  1.0000
  Mo  Mo22      1.0  0.28821  0.99150  0.93970  1.0000
  Mo  Mo23      1.0  0.28821  0.50850  0.93970  1.0000
  Mo  Mo24      1.0  0.71179  0.00850  0.06030  1.0000
  O   O25       1.0  0.22720  0.51776  0.50542  1.0000
  O   O26       1.0  0.77280  0.01776  0.49458  1.0000
  O   O27       1.0  0.77280  0.48224  0.49458  1.0000
  O   O28       1.0  0.22720  0.98224  0.50542  1.0000
  O   O29       1.0  0.10720  0.46699  0.61389  1.0000
  O   O30       1.0  0.89280  0.96699  0.38611  1.0000
  O   O31       1.0  0.89280  0.53301  0.38611  1.0000
  O   O32       1.0  0.10720  0.03301  0.61389  1.0000
  O   O33       1.0  0.27380  0.44206  0.57090  1.0000
  O   O34       1.0  0.72620  0.94206  0.42910  1.0000
  O   O35       1.0  0.72620  0.55794  0.42910  1.0000
  O   O36       1.0  0.27380  0.05794  0.57090  1.0000
  O   O37       1.0  0.25140  0.53240  0.61291  1.0000
  O   O38       1.0  0.74860  0.03240  0.38709  1.0000
  O   O39       1.0  0.74860  0.46760  0.38709  1.0000
  O   O40       1.0  0.25140  0.96760  0.61291  1.0000
  O   O41       1.0  0.94010  0.38785  0.54073  1.0000
  O   O42       1.0  0.05990  0.88785  0.45927  1.0000
  O   O43       1.0  0.05990  0.61215  0.45927  1.0000
  O   O44       1.0  0.94010  0.11215  0.54073  1.0000
  O   O45       1.0  0.97710  0.40507  0.64802  1.0000
  O   O46       1.0  0.02290  0.90507  0.35198  1.0000
  O   O47       1.0  0.02290  0.59493  0.35198  1.0000
  O   O48       1.0  0.97710  0.09493  0.64802  1.0000
  O   O49       1.0  0.10520  0.36493  0.59190  1.0000
  O   O50       1.0  0.89480  0.86493  0.40810  1.0000
  O   O51       1.0  0.89480  0.63507  0.40810  1.0000
  O   O52       1.0  0.10520  0.13507  0.59190  1.0000
  O   O53       1.0  0.76880  0.41504  0.57694  1.0000
  O   O54       1.0  0.23120  0.91504  0.42306  1.0000
  O   O55       1.0  0.23120  0.58496  0.42306  1.0000
  O   O56       1.0  0.76880  0.08496  0.57694  1.0000
  O   O57       1.0  0.77880  0.37991  0.47865  1.0000
  O   O58       1.0  0.22120  0.87991  0.52135  1.0000
  O   O59       1.0  0.22120  0.62009  0.52135  1.0000
  O   O60       1.0  0.77880  0.12009  0.47865  1.0000
  O   O61       1.0  0.28420  0.53762  0.00704  1.0000
  O   O62       1.0  0.71580  0.03762  0.99296  1.0000
  O   O63       1.0  0.71580  0.46238  0.99296  1.0000
  O   O64       1.0  0.28420  0.96238  0.00704  1.0000
  O   O65       1.0  0.31460  0.60360  0.08880  1.0000
  O   O66       1.0  0.68540  0.10360  0.91120  1.0000
  O   O67       1.0  0.68540  0.39640  0.91120  1.0000
  O   O68       1.0  0.31460  0.89640  0.08880  1.0000
  O   O69       1.0  0.31840  0.63690  0.99240  1.0000
  O   O70       1.0  0.68160  0.13690  0.00760  1.0000
  O   O71       1.0  0.68160  0.36310  0.00760  1.0000
  O   O72       1.0  0.31840  0.86310  0.99240  1.0000
  O   O73       1.0  0.48370  0.61492  0.04532  1.0000
  O   O74       1.0  0.51630  0.11492  0.95468  1.0000
  O   O75       1.0  0.51630  0.38508  0.95468  1.0000
  O   O76       1.0  0.48370  0.88508  0.04532  1.0000
  O   O77       1.0  0.66120  0.62310  0.08940  1.0000
  O   O78       1.0  0.33880  0.12310  0.91060  1.0000
  O   O79       1.0  0.33880  0.37690  0.91060  1.0000
  O   O80       1.0  0.66120  0.87690  0.08940  1.0000
  O   O81       1.0  0.53190  0.59220  0.15050  1.0000
  O   O82       1.0  0.46810  0.09220  0.84950  1.0000
  O   O83       1.0  0.46810  0.40780  0.84950  1.0000
  O   O84       1.0  0.53190  0.90780  0.15050  1.0000
  O   O85       1.0  0.63360  0.52240  0.10806  1.0000
  O   O86       1.0  0.36640  0.02240  0.89194  1.0000
  O   O87       1.0  0.36640  0.47760  0.89194  1.0000
  O   O88       1.0  0.63360  0.97760  0.10806  1.0000
  O   O89       1.0  0.75260  0.44460  0.09980  1.0000
  O   O90       1.0  0.24740  0.94460  0.90020  1.0000
  O   O91       1.0  0.24740  0.55540  0.90020  1.0000
  O   O92       1.0  0.75260  0.05540  0.09980  1.0000
  O   O93       1.0  0.79910  0.53370  0.05940  1.0000
  O   O94       1.0  0.20090  0.03370  0.94060  1.0000
  O   O95       1.0  0.20090  0.46630  0.94060  1.0000
  O   O96       1.0  0.79910  0.96630  0.05940  1.0000
