data_image0
_chemical_formula_structural       Ni4C16H8C16H8C16H8C24O16H16O40H8
_chemical_formula_sum              "Ni4 C72 H48 O56"
_cell_length_a       11.1813
_cell_length_b       11.1813
_cell_length_c       31.552
_cell_angle_alpha    90
_cell_angle_beta     90
_cell_angle_gamma    90

_space_group_name_H-M_alt    "P 1"
_space_group_IT_number       1

loop_
  _space_group_symop_operation_xyz
  'x, y, z'

loop_
  _atom_site_type_symbol
  _atom_site_label
  _atom_site_symmetry_multiplicity
  _atom_site_fract_x
  _atom_site_fract_y
  _atom_site_fract_z
  _atom_site_occupancy
  Ni  Ni1       1.0  0.30051  0.69949  0.75000  1.0000
  Ni  Ni2       1.0  0.69949  0.30051  0.25000  1.0000
  Ni  Ni3       1.0  0.80051  0.80051  1.00000  1.0000
  Ni  Ni4       1.0  0.19949  0.19949  0.50000  1.0000
  C   C1        1.0  0.08804  0.86952  0.65144  1.0000
  C   C2        1.0  0.91196  0.13048  0.15144  1.0000
  C   C3        1.0  0.58804  0.63048  0.09856  1.0000
  C   C4        1.0  0.41196  0.36952  0.59856  1.0000
  C   C5        1.0  0.13048  0.91196  0.84856  1.0000
  C   C6        1.0  0.86952  0.08804  0.34856  1.0000
  C   C7        1.0  0.36952  0.41196  0.40144  1.0000
  C   C8        1.0  0.63048  0.58804  0.90144  1.0000
  C   C9        1.0  0.10120  0.95329  0.61925  1.0000
  C   C10       1.0  0.89880  0.04671  0.11925  1.0000
  C   C11       1.0  0.60120  0.54671  0.13075  1.0000
  C   C12       1.0  0.39880  0.45329  0.63075  1.0000
  C   C13       1.0  0.04671  0.89880  0.88075  1.0000
  C   C14       1.0  0.95329  0.10120  0.38075  1.0000
  C   C15       1.0  0.45329  0.39880  0.36925  1.0000
  C   C16       1.0  0.54671  0.60120  0.86925  1.0000
  H   H1        1.0  0.17560  0.98800  0.61460  1.0000
  H   H2        1.0  0.82440  0.01200  0.11460  1.0000
  H   H3        1.0  0.67560  0.51200  0.13540  1.0000
  H   H4        1.0  0.32440  0.48800  0.63540  1.0000
  H   H5        1.0  0.01200  0.82440  0.88540  1.0000
  H   H6        1.0  0.98800  0.17560  0.38540  1.0000
  H   H7        1.0  0.48800  0.32440  0.36460  1.0000
  H   H8        1.0  0.51200  0.67560  0.86460  1.0000
  C   C17       1.0  0.00444  0.98601  0.59386  1.0000
  C   C18       1.0  0.99556  0.01399  0.09386  1.0000
  C   C19       1.0  0.50444  0.51399  0.15614  1.0000
  C   C20       1.0  0.49556  0.48601  0.65614  1.0000
  C   C21       1.0  0.01399  0.99556  0.90614  1.0000
  C   C22       1.0  0.98601  0.00444  0.40614  1.0000
  C   C23       1.0  0.48601  0.49556  0.34386  1.0000
  C   C24       1.0  0.51399  0.50444  0.84386  1.0000
  C   C25       1.0  0.89318  0.93447  0.60082  1.0000
  C   C26       1.0  0.10682  0.06553  0.10082  1.0000
  C   C27       1.0  0.39318  0.56553  0.14918  1.0000
  C   C28       1.0  0.60682  0.43447  0.64918  1.0000
  C   C29       1.0  0.06553  0.10682  0.89918  1.0000
  C   C30       1.0  0.93447  0.89318  0.39918  1.0000
  C   C31       1.0  0.43447  0.60682  0.35082  1.0000
  C   C32       1.0  0.56553  0.39318  0.85082  1.0000
  H   H9        1.0  0.82780  0.95750  0.58460  1.0000
  H   H10       1.0  0.17220  0.04250  0.08460  1.0000
  H   H11       1.0  0.32780  0.54250  0.16540  1.0000
  H   H12       1.0  0.67220  0.45750  0.66540  1.0000
  H   H13       1.0  0.04250  0.17220  0.91540  1.0000
  H   H14       1.0  0.95750  0.82780  0.41540  1.0000
  H   H15       1.0  0.45750  0.67220  0.33460  1.0000
  H   H16       1.0  0.54250  0.32780  0.83460  1.0000
  C   C33       1.0  0.87993  0.84763  0.63244  1.0000
  C   C34       1.0  0.12007  0.15237  0.13244  1.0000
  C   C35       1.0  0.37993  0.65237  0.11756  1.0000
  C   C36       1.0  0.62007  0.34763  0.61756  1.0000
  C   C37       1.0  0.15237  0.12007  0.86756  1.0000
  C   C38       1.0  0.84763  0.87993  0.36756  1.0000
  C   C39       1.0  0.34763  0.62007  0.38244  1.0000
  C   C40       1.0  0.65237  0.37993  0.88244  1.0000
  C   C41       1.0  0.97692  0.81608  0.65762  1.0000
  C   C42       1.0  0.02308  0.18392  0.15762  1.0000
  C   C43       1.0  0.47692  0.68392  0.09238  1.0000
  C   C44       1.0  0.52308  0.31608  0.59238  1.0000
  C   C45       1.0  0.18392  0.02308  0.84238  1.0000
  C   C46       1.0  0.81608  0.97692  0.34238  1.0000
  C   C47       1.0  0.31608  0.52308  0.40762  1.0000
  C   C48       1.0  0.68392  0.47692  0.90762  1.0000
  H   H17       1.0  0.96750  0.75890  0.67880  1.0000
  H   H18       1.0  0.03250  0.24110  0.17880  1.0000
  H   H19       1.0  0.46750  0.74110  0.07120  1.0000
  H   H20       1.0  0.53250  0.25890  0.57120  1.0000
  H   H21       1.0  0.24110  0.03250  0.82120  1.0000
  H   H22       1.0  0.75890  0.96750  0.32120  1.0000
  H   H23       1.0  0.25890  0.53250  0.42880  1.0000
  H   H24       1.0  0.74110  0.46750  0.92880  1.0000
  C   C49       1.0  0.19298  0.84175  0.68010  1.0000
  C   C50       1.0  0.80702  0.15825  0.18010  1.0000
  C   C51       1.0  0.69298  0.65825  0.06990  1.0000
  C   C52       1.0  0.30702  0.34175  0.56990  1.0000
  C   C53       1.0  0.15825  0.80702  0.81990  1.0000
  C   C54       1.0  0.84175  0.19298  0.31990  1.0000
  C   C55       1.0  0.34175  0.30702  0.43010  1.0000
  C   C56       1.0  0.65825  0.69298  0.93010  1.0000
  C   C57       1.0  0.02493  0.07796  0.55959  1.0000
  C   C58       1.0  0.97507  0.92204  0.05959  1.0000
  C   C59       1.0  0.52493  0.42204  0.19041  1.0000
  C   C60       1.0  0.47507  0.57796  0.69041  1.0000
  C   C61       1.0  0.92204  0.97507  0.94041  1.0000
  C   C62       1.0  0.07796  0.02493  0.44041  1.0000
  C   C63       1.0  0.57796  0.47507  0.30959  1.0000
  C   C64       1.0  0.42204  0.52493  0.80959  1.0000
  C   C65       1.0  0.75935  0.79186  0.63906  1.0000
  C   C66       1.0  0.24065  0.20814  0.13906  1.0000
  C   C67       1.0  0.25935  0.70814  0.11094  1.0000
  C   C68       1.0  0.74065  0.29186  0.61094  1.0000
  C   C69       1.0  0.20814  0.24065  0.86094  1.0000
  C   C70       1.0  0.79186  0.75935  0.36094  1.0000
  C   C71       1.0  0.29186  0.74065  0.38906  1.0000
  C   C72       1.0  0.70814  0.25935  0.88906  1.0000
  O   O1        1.0  0.17961  0.75733  0.70607  1.0000
  O   O2        1.0  0.82039  0.24267  0.20607  1.0000
  O   O3        1.0  0.67961  0.74267  0.04393  1.0000
  O   O4        1.0  0.32039  0.25733  0.54393  1.0000
  O   O5        1.0  0.24267  0.82039  0.79393  1.0000
  O   O6        1.0  0.75733  0.17961  0.29393  1.0000
  O   O7        1.0  0.25733  0.32039  0.45607  1.0000
  O   O8        1.0  0.74267  0.67961  0.95607  1.0000
  O   O9        1.0  0.42976  0.82716  0.73439  1.0000
  O   O10       1.0  0.57024  0.17284  0.23439  1.0000
  O   O11       1.0  0.92976  0.67284  0.01561  1.0000
  O   O12       1.0  0.07024  0.32716  0.51561  1.0000
  O   O13       1.0  0.17284  0.57024  0.76561  1.0000
  O   O14       1.0  0.82716  0.42976  0.26561  1.0000
  O   O15       1.0  0.32716  0.07024  0.48439  1.0000
  O   O16       1.0  0.67284  0.92976  0.98439  1.0000
  H   H25       1.0  0.38800  0.86000  0.71370  1.0000
  H   H26       1.0  0.61200  0.14000  0.21370  1.0000
  H   H27       1.0  0.88800  0.64000  0.03630  1.0000
  H   H28       1.0  0.11200  0.36000  0.53630  1.0000
  H   H29       1.0  0.14000  0.61200  0.78630  1.0000
  H   H30       1.0  0.86000  0.38800  0.28630  1.0000
  H   H31       1.0  0.36000  0.11200  0.46370  1.0000
  H   H32       1.0  0.64000  0.88800  0.96370  1.0000
  H   H33       1.0  0.47900  0.78500  0.72190  1.0000
  H   H34       1.0  0.52100  0.21500  0.22190  1.0000
  H   H35       1.0  0.97900  0.71500  0.02810  1.0000
  H   H36       1.0  0.02100  0.28500  0.52810  1.0000
  H   H37       1.0  0.21500  0.52100  0.77810  1.0000
  H   H38       1.0  0.78500  0.47900  0.27810  1.0000
  H   H39       1.0  0.28500  0.02100  0.47190  1.0000
  H   H40       1.0  0.71500  0.97900  0.97190  1.0000
  O   O17       1.0  0.28413  0.90650  0.67608  1.0000
  O   O18       1.0  0.71587  0.09350  0.17608  1.0000
  O   O19       1.0  0.78413  0.59350  0.07392  1.0000
  O   O20       1.0  0.21587  0.40650  0.57392  1.0000
  O   O21       1.0  0.09350  0.71587  0.82392  1.0000
  O   O22       1.0  0.90650  0.28413  0.32392  1.0000
  O   O23       1.0  0.40650  0.21587  0.42608  1.0000
  O   O24       1.0  0.59350  0.78413  0.92608  1.0000
  O   O25       1.0  0.12936  0.08488  0.54518  1.0000
  O   O26       1.0  0.87064  0.91512  0.04518  1.0000
  O   O27       1.0  0.62936  0.41512  0.20482  1.0000
  O   O28       1.0  0.37064  0.58488  0.70482  1.0000
  O   O29       1.0  0.91512  0.87064  0.95482  1.0000
  O   O30       1.0  0.08488  0.12936  0.45482  1.0000
  O   O31       1.0  0.58488  0.37064  0.29518  1.0000
  O   O32       1.0  0.41512  0.62936  0.79518  1.0000
  O   O33       1.0  0.93786  0.14247  0.54787  1.0000
  O   O34       1.0  0.06214  0.85753  0.04787  1.0000
  O   O35       1.0  0.43786  0.35753  0.20213  1.0000
  O   O36       1.0  0.56214  0.64247  0.70213  1.0000
  O   O37       1.0  0.85753  0.06214  0.95213  1.0000
  O   O38       1.0  0.14247  0.93786  0.45213  1.0000
  O   O39       1.0  0.64247  0.56214  0.29787  1.0000
  O   O40       1.0  0.35753  0.43786  0.79787  1.0000
  O   O41       1.0  0.67146  0.81857  0.61893  1.0000
  O   O42       1.0  0.32854  0.18143  0.11893  1.0000
  O   O43       1.0  0.17146  0.68143  0.13107  1.0000
  O   O44       1.0  0.82854  0.31857  0.63107  1.0000
  O   O45       1.0  0.18143  0.32854  0.88107  1.0000
  O   O46       1.0  0.81857  0.67146  0.38107  1.0000
  O   O47       1.0  0.31857  0.82854  0.36893  1.0000
  O   O48       1.0  0.68143  0.17146  0.86893  1.0000
  O   O49       1.0  0.76090  0.71043  0.66939  1.0000
  O   O50       1.0  0.23910  0.28957  0.16939  1.0000
  O   O51       1.0  0.26090  0.78957  0.08061  1.0000
  O   O52       1.0  0.73910  0.21043  0.58061  1.0000
  O   O53       1.0  0.28957  0.23910  0.83061  1.0000
  O   O54       1.0  0.71043  0.76090  0.33061  1.0000
  O   O55       1.0  0.21043  0.73910  0.41939  1.0000
  O   O56       1.0  0.78957  0.26090  0.91939  1.0000
  H   H41       1.0  0.68600  0.68300  0.67650  1.0000
  H   H42       1.0  0.31400  0.31700  0.17650  1.0000
  H   H43       1.0  0.18600  0.81700  0.07350  1.0000
  H   H44       1.0  0.81400  0.18300  0.57350  1.0000
  H   H45       1.0  0.31700  0.31400  0.82350  1.0000
  H   H46       1.0  0.68300  0.68600  0.32350  1.0000
  H   H47       1.0  0.18300  0.81400  0.42650  1.0000
  H   H48       1.0  0.81700  0.18600  0.92650  1.0000
