data_image0
_chemical_formula_structural       Zn12C6H6C6H6C6H6C6H6C30H6C6H6C6H6C6H6C18H6C6H6C6H6C6H6C18H6C6H6C6H6C6H6C30H6C6H6C6H6C6H6C18H6C6H6C6H6C6H6C12N30H12N6O76S4
_chemical_formula_sum              "Zn12 C240 H156 N36 O76 S4"
_cell_length_a       18.7253
_cell_length_b       18.7253
_cell_length_c       27.5938
_cell_angle_alpha    90
_cell_angle_beta     90
_cell_angle_gamma    120

_space_group_name_H-M_alt    "P 1"
_space_group_IT_number       1

loop_
  _space_group_symop_operation_xyz
  'x, y, z'

loop_
  _atom_site_type_symbol
  _atom_site_label
  _atom_site_symmetry_multiplicity
  _atom_site_fract_x
  _atom_site_fract_y
  _atom_site_fract_z
  _atom_site_occupancy
  Zn  Zn1       1.0  0.54089  0.38579  0.36703  1.0000
  Zn  Zn2       1.0  0.61421  0.15510  0.36703  1.0000
  Zn  Zn3       1.0  0.84490  0.45911  0.36703  1.0000
  Zn  Zn4       1.0  0.45911  0.61421  0.63297  1.0000
  Zn  Zn5       1.0  0.38579  0.84490  0.63297  1.0000
  Zn  Zn6       1.0  0.15510  0.54089  0.63297  1.0000
  Zn  Zn7       1.0  0.54178  0.38535  0.84055  1.0000
  Zn  Zn8       1.0  0.61465  0.15643  0.84055  1.0000
  Zn  Zn9       1.0  0.84357  0.45822  0.84055  1.0000
  Zn  Zn10      1.0  0.45822  0.61465  0.15945  1.0000
  Zn  Zn11      1.0  0.38535  0.84357  0.15945  1.0000
  Zn  Zn12      1.0  0.15643  0.54178  0.15945  1.0000
  C   C1        1.0  0.52270  0.40940  0.26204  1.0000
  C   C2        1.0  0.59060  0.11330  0.26204  1.0000
  C   C3        1.0  0.88670  0.47730  0.26204  1.0000
  C   C4        1.0  0.47730  0.59060  0.73796  1.0000
  C   C5        1.0  0.40940  0.88670  0.73796  1.0000
  C   C6        1.0  0.11330  0.52270  0.73796  1.0000
  H   H1        1.0  0.52080  0.45490  0.27400  1.0000
  H   H2        1.0  0.54510  0.06590  0.27400  1.0000
  H   H3        1.0  0.93410  0.47920  0.27400  1.0000
  H   H4        1.0  0.47920  0.54510  0.72600  1.0000
  H   H5        1.0  0.45490  0.93410  0.72600  1.0000
  H   H6        1.0  0.06590  0.52080  0.72600  1.0000
  C   C7        1.0  0.52810  0.29230  0.27627  1.0000
  C   C8        1.0  0.70770  0.23580  0.27627  1.0000
  C   C9        1.0  0.76420  0.47190  0.27627  1.0000
  C   C10       1.0  0.47190  0.70770  0.72373  1.0000
  C   C11       1.0  0.29230  0.76420  0.72373  1.0000
  C   C12       1.0  0.23580  0.52810  0.72373  1.0000
  H   H7        1.0  0.52970  0.25490  0.29780  1.0000
  H   H8        1.0  0.74510  0.27480  0.29780  1.0000
  H   H9        1.0  0.72520  0.47030  0.29780  1.0000
  H   H10       1.0  0.47030  0.74510  0.70220  1.0000
  H   H11       1.0  0.25490  0.72520  0.70220  1.0000
  H   H12       1.0  0.27480  0.52970  0.70220  1.0000
  C   C13       1.0  0.52790  0.27840  0.22821  1.0000
  C   C14       1.0  0.72160  0.24950  0.22821  1.0000
  C   C15       1.0  0.75050  0.47210  0.22821  1.0000
  C   C16       1.0  0.47210  0.72160  0.77179  1.0000
  C   C17       1.0  0.27840  0.75050  0.77179  1.0000
  C   C18       1.0  0.24950  0.52790  0.77179  1.0000
  H   H13       1.0  0.53020  0.23250  0.21760  1.0000
  H   H14       1.0  0.76750  0.29770  0.21760  1.0000
  H   H15       1.0  0.70230  0.46980  0.21760  1.0000
  H   H16       1.0  0.46980  0.76750  0.78240  1.0000
  H   H17       1.0  0.23250  0.70230  0.78240  1.0000
  H   H18       1.0  0.29770  0.53020  0.78240  1.0000
  C   C19       1.0  0.52160  0.39930  0.21299  1.0000
  C   C20       1.0  0.60070  0.12230  0.21299  1.0000
  C   C21       1.0  0.87770  0.47840  0.21299  1.0000
  C   C22       1.0  0.47840  0.60070  0.78701  1.0000
  C   C23       1.0  0.39930  0.87770  0.78701  1.0000
  C   C24       1.0  0.12230  0.52160  0.78701  1.0000
  H   H19       1.0  0.51930  0.43720  0.19220  1.0000
  H   H20       1.0  0.56280  0.08210  0.19220  1.0000
  H   H21       1.0  0.91790  0.48070  0.19220  1.0000
  H   H22       1.0  0.48070  0.56280  0.80780  1.0000
  H   H23       1.0  0.43720  0.91790  0.80780  1.0000
  H   H24       1.0  0.08210  0.51930  0.80780  1.0000
  C   C25       1.0  0.52410  0.33120  0.19455  1.0000
  C   C26       1.0  0.66880  0.19290  0.19455  1.0000
  C   C27       1.0  0.80710  0.47590  0.19455  1.0000
  C   C28       1.0  0.47590  0.66880  0.80545  1.0000
  C   C29       1.0  0.33120  0.80710  0.80545  1.0000
  C   C30       1.0  0.19290  0.52410  0.80545  1.0000
  C   C31       1.0  0.52500  0.31230  0.14306  1.0000
  C   C32       1.0  0.68770  0.21270  0.14306  1.0000
  C   C33       1.0  0.78730  0.47500  0.14306  1.0000
  C   C34       1.0  0.47500  0.68770  0.85694  1.0000
  C   C35       1.0  0.31230  0.78730  0.85694  1.0000
  C   C36       1.0  0.21270  0.52500  0.85694  1.0000
  C   C37       1.0  0.52570  0.31240  0.06483  1.0000
  C   C38       1.0  0.68760  0.21330  0.06483  1.0000
  C   C39       1.0  0.78670  0.47430  0.06483  1.0000
  C   C40       1.0  0.47430  0.68760  0.93517  1.0000
  C   C41       1.0  0.31240  0.78670  0.93517  1.0000
  C   C42       1.0  0.21330  0.52570  0.93517  1.0000
  C   C43       1.0  0.52600  0.33240  0.01286  1.0000
  C   C44       1.0  0.66760  0.19360  0.01286  1.0000
  C   C45       1.0  0.80640  0.47400  0.01286  1.0000
  C   C46       1.0  0.47400  0.66760  0.98714  1.0000
  C   C47       1.0  0.33240  0.80640  0.98714  1.0000
  C   C48       1.0  0.19360  0.52600  0.98714  1.0000
  C   C49       1.0  0.51570  0.27320  0.97980  1.0000
  C   C50       1.0  0.72680  0.24250  0.97980  1.0000
  C   C51       1.0  0.75750  0.48430  0.97980  1.0000
  C   C52       1.0  0.48430  0.72680  0.02020  1.0000
  C   C53       1.0  0.27320  0.75750  0.02020  1.0000
  C   C54       1.0  0.24250  0.51570  0.02020  1.0000
  H   H25       1.0  0.50590  0.22190  0.99020  1.0000
  H   H26       1.0  0.77810  0.28400  0.99020  1.0000
  H   H27       1.0  0.71600  0.49410  0.99020  1.0000
  H   H28       1.0  0.49410  0.77810  0.00980  1.0000
  H   H29       1.0  0.22190  0.71600  0.00980  1.0000
  H   H30       1.0  0.28400  0.50590  0.00980  1.0000
  C   C55       1.0  0.53610  0.40540  0.99493  1.0000
  C   C56       1.0  0.59460  0.13070  0.99493  1.0000
  C   C57       1.0  0.86930  0.46390  0.99493  1.0000
  C   C58       1.0  0.46390  0.59460  0.00507  1.0000
  C   C59       1.0  0.40540  0.86930  0.00507  1.0000
  C   C60       1.0  0.13070  0.53610  0.00507  1.0000
  H   H31       1.0  0.54040  0.44640  0.01580  1.0000
  H   H32       1.0  0.55360  0.09400  0.01580  1.0000
  H   H33       1.0  0.90600  0.45960  0.01580  1.0000
  H   H34       1.0  0.45960  0.55360  0.98420  1.0000
  H   H35       1.0  0.44640  0.90600  0.98420  1.0000
  H   H36       1.0  0.09400  0.54040  0.98420  1.0000
  C   C61       1.0  0.52000  0.29050  0.93080  1.0000
  C   C62       1.0  0.70950  0.22950  0.93080  1.0000
  C   C63       1.0  0.77050  0.48000  0.93080  1.0000
  C   C64       1.0  0.48000  0.70950  0.06920  1.0000
  C   C65       1.0  0.29050  0.77050  0.06920  1.0000
  C   C66       1.0  0.22950  0.52000  0.06920  1.0000
  H   H37       1.0  0.51390  0.25010  0.90890  1.0000
  H   H38       1.0  0.74990  0.26380  0.90890  1.0000
  H   H39       1.0  0.73620  0.48610  0.90890  1.0000
  H   H40       1.0  0.48610  0.74990  0.09110  1.0000
  H   H41       1.0  0.25010  0.73620  0.09110  1.0000
  H   H42       1.0  0.26380  0.51390  0.09110  1.0000
  C   C67       1.0  0.53990  0.41680  0.94567  1.0000
  C   C68       1.0  0.58320  0.12310  0.94567  1.0000
  C   C69       1.0  0.87690  0.46010  0.94567  1.0000
  C   C70       1.0  0.46010  0.58320  0.05433  1.0000
  C   C71       1.0  0.41680  0.87690  0.05433  1.0000
  C   C72       1.0  0.12310  0.53990  0.05433  1.0000
  H   H43       1.0  0.54830  0.46700  0.93400  1.0000
  H   H44       1.0  0.53300  0.08130  0.93400  1.0000
  H   H45       1.0  0.91870  0.45170  0.93400  1.0000
  H   H46       1.0  0.45170  0.53300  0.06600  1.0000
  H   H47       1.0  0.46700  0.91870  0.06600  1.0000
  H   H48       1.0  0.08130  0.54830  0.06600  1.0000
  C   C73       1.0  0.39420  0.35440  0.38791  1.0000
  C   C74       1.0  0.64560  0.03980  0.38791  1.0000
  C   C75       1.0  0.96020  0.60580  0.38791  1.0000
  C   C76       1.0  0.60580  0.64560  0.61209  1.0000
  C   C77       1.0  0.35440  0.96020  0.61209  1.0000
  C   C78       1.0  0.03980  0.39420  0.61209  1.0000
  C   C79       1.0  0.30300  0.30760  0.39861  1.0000
  C   C80       1.0  0.69240  0.99540  0.39861  1.0000
  C   C81       1.0  0.00460  0.69700  0.39861  1.0000
  C   C82       1.0  0.69700  0.69240  0.60139  1.0000
  C   C83       1.0  0.30760  0.00460  0.60139  1.0000
  C   C84       1.0  0.99540  0.30300  0.60139  1.0000
  C   C85       1.0  0.26210  0.22330  0.40850  1.0000
  C   C86       1.0  0.77670  0.03880  0.40850  1.0000
  C   C87       1.0  0.96120  0.73790  0.40850  1.0000
  C   C88       1.0  0.73790  0.77670  0.59150  1.0000
  C   C89       1.0  0.22330  0.96120  0.59150  1.0000
  C   C90       1.0  0.03880  0.26210  0.59150  1.0000
  H   H49       1.0  0.29220  0.19610  0.41070  1.0000
  H   H50       1.0  0.80390  0.09610  0.41070  1.0000
  H   H51       1.0  0.90390  0.70780  0.41070  1.0000
  H   H52       1.0  0.70780  0.80390  0.58930  1.0000
  H   H53       1.0  0.19610  0.90390  0.58930  1.0000
  H   H54       1.0  0.09610  0.29220  0.58930  1.0000
  C   C91       1.0  0.25770  0.34690  0.39640  1.0000
  C   C92       1.0  0.65310  0.91080  0.39640  1.0000
  C   C93       1.0  0.08920  0.74230  0.39640  1.0000
  C   C94       1.0  0.74230  0.65310  0.60360  1.0000
  C   C95       1.0  0.34690  0.08920  0.60360  1.0000
  C   C96       1.0  0.91080  0.25770  0.60360  1.0000
  H   H55       1.0  0.28410  0.40320  0.39000  1.0000
  H   H56       1.0  0.59680  0.88090  0.39000  1.0000
  H   H57       1.0  0.11910  0.71590  0.39000  1.0000
  H   H58       1.0  0.71590  0.59680  0.61000  1.0000
  H   H59       1.0  0.40320  0.11910  0.61000  1.0000
  H   H60       1.0  0.88090  0.28410  0.61000  1.0000
  C   C97       1.0  0.17790  0.17950  0.41500  1.0000
  C   C98       1.0  0.82050  0.99840  0.41500  1.0000
  C   C99       1.0  0.00160  0.82210  0.41500  1.0000
  C   C100      1.0  0.82210  0.82050  0.58500  1.0000
  C   C101      1.0  0.17950  0.00160  0.58500  1.0000
  C   C102      1.0  0.99840  0.17790  0.58500  1.0000
  H   H61       1.0  0.15110  0.12320  0.42120  1.0000
  H   H62       1.0  0.87680  0.02790  0.42120  1.0000
  H   H63       1.0  0.97210  0.84890  0.42120  1.0000
  H   H64       1.0  0.84890  0.87680  0.57880  1.0000
  H   H65       1.0  0.12320  0.97210  0.57880  1.0000
  H   H66       1.0  0.02790  0.15110  0.57880  1.0000
  C   C103      1.0  0.17490  0.30480  0.40340  1.0000
  C   C104      1.0  0.69520  0.87010  0.40340  1.0000
  C   C105      1.0  0.12990  0.82510  0.40340  1.0000
  C   C106      1.0  0.82510  0.69520  0.59660  1.0000
  C   C107      1.0  0.30480  0.12990  0.59660  1.0000
  C   C108      1.0  0.87010  0.17490  0.59660  1.0000
  H   H67       1.0  0.14550  0.33270  0.40230  1.0000
  H   H68       1.0  0.66730  0.81280  0.40230  1.0000
  H   H69       1.0  0.18720  0.85450  0.40230  1.0000
  H   H70       1.0  0.85450  0.66730  0.59770  1.0000
  H   H71       1.0  0.33270  0.18720  0.59770  1.0000
  H   H72       1.0  0.81280  0.14550  0.59770  1.0000
  C   C109      1.0  0.13360  0.22070  0.41230  1.0000
  C   C110      1.0  0.77930  0.91290  0.41230  1.0000
  C   C111      1.0  0.08710  0.86640  0.41230  1.0000
  C   C112      1.0  0.86640  0.77930  0.58770  1.0000
  C   C113      1.0  0.22070  0.08710  0.58770  1.0000
  C   C114      1.0  0.91290  0.13360  0.58770  1.0000
  C   C115      1.0  0.00510  0.21380  0.41490  1.0000
  C   C116      1.0  0.78620  0.79130  0.41490  1.0000
  C   C117      1.0  0.20870  0.99490  0.41490  1.0000
  C   C118      1.0  0.99490  0.78620  0.58510  1.0000
  C   C119      1.0  0.21380  0.20870  0.58510  1.0000
  C   C120      1.0  0.79130  0.00510  0.58510  1.0000
  C   C121      1.0  0.98580  0.24280  0.45590  1.0000
  C   C122      1.0  0.75720  0.74300  0.45590  1.0000
  C   C123      1.0  0.25700  0.01420  0.45590  1.0000
  C   C124      1.0  0.01420  0.75720  0.54410  1.0000
  C   C125      1.0  0.24280  0.25700  0.54410  1.0000
  C   C126      1.0  0.74300  0.98580  0.54410  1.0000
  H   H73       1.0  0.00010  0.23290  0.48640  1.0000
  H   H74       1.0  0.76710  0.76720  0.48640  1.0000
  H   H75       1.0  0.23280  0.99990  0.48640  1.0000
  H   H76       1.0  0.99990  0.76710  0.51360  1.0000
  H   H77       1.0  0.23290  0.23280  0.51360  1.0000
  H   H78       1.0  0.76720  0.00010  0.51360  1.0000
  C   C127      1.0  0.98090  0.22460  0.37020  1.0000
  C   C128      1.0  0.77540  0.75630  0.37020  1.0000
  C   C129      1.0  0.24370  0.01910  0.37020  1.0000
  C   C130      1.0  0.01910  0.77540  0.62980  1.0000
  C   C131      1.0  0.22460  0.24370  0.62980  1.0000
  C   C132      1.0  0.75630  0.98090  0.62980  1.0000
  H   H79       1.0  0.99250  0.20320  0.34280  1.0000
  H   H80       1.0  0.79680  0.78930  0.34280  1.0000
  H   H81       1.0  0.21070  0.00750  0.34280  1.0000
  H   H82       1.0  0.00750  0.79680  0.65720  1.0000
  H   H83       1.0  0.20320  0.21070  0.65720  1.0000
  H   H84       1.0  0.78930  0.99250  0.65720  1.0000
  C   C133      1.0  0.94550  0.28600  0.45120  1.0000
  C   C134      1.0  0.71400  0.65950  0.45120  1.0000
  C   C135      1.0  0.34050  0.05450  0.45120  1.0000
  C   C136      1.0  0.05450  0.71400  0.54880  1.0000
  C   C137      1.0  0.28600  0.34050  0.54880  1.0000
  C   C138      1.0  0.65950  0.94550  0.54880  1.0000
  H   H85       1.0  0.93170  0.30500  0.47880  1.0000
  H   H86       1.0  0.69500  0.62670  0.47880  1.0000
  H   H87       1.0  0.37330  0.06830  0.47880  1.0000
  H   H88       1.0  0.06830  0.69500  0.52120  1.0000
  H   H89       1.0  0.30500  0.37330  0.52120  1.0000
  H   H90       1.0  0.62670  0.93170  0.52120  1.0000
  C   C139      1.0  0.93950  0.26690  0.36586  1.0000
  C   C140      1.0  0.73310  0.67260  0.36586  1.0000
  C   C141      1.0  0.32740  0.06050  0.36586  1.0000
  C   C142      1.0  0.06050  0.73310  0.63414  1.0000
  C   C143      1.0  0.26690  0.32740  0.63414  1.0000
  C   C144      1.0  0.67260  0.93950  0.63414  1.0000
  H   H91       1.0  0.92100  0.27240  0.33560  1.0000
  H   H92       1.0  0.72760  0.64860  0.33560  1.0000
  H   H93       1.0  0.35140  0.07900  0.33560  1.0000
  H   H94       1.0  0.07900  0.72760  0.66440  1.0000
  H   H95       1.0  0.27240  0.35140  0.66440  1.0000
  H   H96       1.0  0.64860  0.92100  0.66440  1.0000
  C   C145      1.0  0.92460  0.30200  0.40615  1.0000
  C   C146      1.0  0.69800  0.62260  0.40615  1.0000
  C   C147      1.0  0.37740  0.07540  0.40615  1.0000
  C   C148      1.0  0.07540  0.69800  0.59385  1.0000
  C   C149      1.0  0.30200  0.37740  0.59385  1.0000
  C   C150      1.0  0.62260  0.92460  0.59385  1.0000
  C   C151      1.0  0.88940  0.35790  0.40190  1.0000
  C   C152      1.0  0.64210  0.53150  0.40190  1.0000
  C   C153      1.0  0.46850  0.11060  0.40190  1.0000
  C   C154      1.0  0.11060  0.64210  0.59810  1.0000
  C   C155      1.0  0.35790  0.46850  0.59810  1.0000
  C   C156      1.0  0.53150  0.88940  0.59810  1.0000
  C   C157      1.0  0.39190  0.35250  0.82182  1.0000
  C   C158      1.0  0.64750  0.03940  0.82182  1.0000
  C   C159      1.0  0.96060  0.60810  0.82182  1.0000
  C   C160      1.0  0.60810  0.64750  0.17818  1.0000
  C   C161      1.0  0.35250  0.96060  0.17818  1.0000
  C   C162      1.0  0.03940  0.39190  0.17818  1.0000
  C   C163      1.0  0.30370  0.30940  0.80570  1.0000
  C   C164      1.0  0.69060  0.99430  0.80570  1.0000
  C   C165      1.0  0.00570  0.69630  0.80570  1.0000
  C   C166      1.0  0.69630  0.69060  0.19430  1.0000
  C   C167      1.0  0.30940  0.00570  0.19430  1.0000
  C   C168      1.0  0.99430  0.30370  0.19430  1.0000
  C   C169      1.0  0.26480  0.22930  0.78780  1.0000
  C   C170      1.0  0.77070  0.03550  0.78780  1.0000
  C   C171      1.0  0.96450  0.73520  0.78780  1.0000
  C   C172      1.0  0.73520  0.77070  0.21220  1.0000
  C   C173      1.0  0.22930  0.96450  0.21220  1.0000
  C   C174      1.0  0.03550  0.26480  0.21220  1.0000
  H   H97       1.0  0.29450  0.20180  0.78470  1.0000
  H   H98       1.0  0.79820  0.09270  0.78470  1.0000
  H   H99       1.0  0.90730  0.70550  0.78470  1.0000
  H   H100      1.0  0.70550  0.79820  0.21530  1.0000
  H   H101      1.0  0.20180  0.90730  0.21530  1.0000
  H   H102      1.0  0.09270  0.29450  0.21530  1.0000
  C   C175      1.0  0.25870  0.34850  0.80910  1.0000
  C   C176      1.0  0.65150  0.91020  0.80910  1.0000
  C   C177      1.0  0.08980  0.74130  0.80910  1.0000
  C   C178      1.0  0.74130  0.65150  0.19090  1.0000
  C   C179      1.0  0.34850  0.08980  0.19090  1.0000
  C   C180      1.0  0.91020  0.25870  0.19090  1.0000
  H   H103      1.0  0.28380  0.40200  0.82120  1.0000
  H   H104      1.0  0.59800  0.88180  0.82120  1.0000
  H   H105      1.0  0.11820  0.71620  0.82120  1.0000
  H   H106      1.0  0.71620  0.59800  0.17880  1.0000
  H   H107      1.0  0.40200  0.11820  0.17880  1.0000
  H   H108      1.0  0.88180  0.28380  0.17880  1.0000
  C   C181      1.0  0.18300  0.19010  0.77460  1.0000
  C   C182      1.0  0.80990  0.99290  0.77460  1.0000
  C   C183      1.0  0.00710  0.81700  0.77460  1.0000
  C   C184      1.0  0.81700  0.80990  0.22540  1.0000
  C   C185      1.0  0.19010  0.00710  0.22540  1.0000
  C   C186      1.0  0.99290  0.18300  0.22540  1.0000
  H   H109      1.0  0.15740  0.13620  0.76310  1.0000
  H   H110      1.0  0.86380  0.02120  0.76310  1.0000
  H   H111      1.0  0.97880  0.84260  0.76310  1.0000
  H   H112      1.0  0.84260  0.86380  0.23690  1.0000
  H   H113      1.0  0.13620  0.97880  0.23690  1.0000
  H   H114      1.0  0.02120  0.15740  0.23690  1.0000
  C   C187      1.0  0.17770  0.31090  0.79520  1.0000
  C   C188      1.0  0.68910  0.86680  0.79520  1.0000
  C   C189      1.0  0.13320  0.82230  0.79520  1.0000
  C   C190      1.0  0.82230  0.68910  0.20480  1.0000
  C   C191      1.0  0.31090  0.13320  0.20480  1.0000
  C   C192      1.0  0.86680  0.17770  0.20480  1.0000
  H   H115      1.0  0.14870  0.33920  0.79700  1.0000
  H   H116      1.0  0.66080  0.80950  0.79700  1.0000
  H   H117      1.0  0.19050  0.85130  0.79700  1.0000
  H   H118      1.0  0.85130  0.66080  0.20300  1.0000
  H   H119      1.0  0.33920  0.19050  0.20300  1.0000
  H   H120      1.0  0.80950  0.14870  0.20300  1.0000
  C   C193      1.0  0.13950  0.23080  0.77850  1.0000
  C   C194      1.0  0.76920  0.90870  0.77850  1.0000
  C   C195      1.0  0.09130  0.86050  0.77850  1.0000
  C   C196      1.0  0.86050  0.76920  0.22150  1.0000
  C   C197      1.0  0.23080  0.09130  0.22150  1.0000
  C   C198      1.0  0.90870  0.13950  0.22150  1.0000
  C   C199      1.0  0.01220  0.22780  0.77310  1.0000
  C   C200      1.0  0.77220  0.78440  0.77310  1.0000
  C   C201      1.0  0.21560  0.98780  0.77310  1.0000
  C   C202      1.0  0.98780  0.77220  0.22690  1.0000
  C   C203      1.0  0.22780  0.21560  0.22690  1.0000
  C   C204      1.0  0.78440  0.01220  0.22690  1.0000
  C   C205      1.0  0.98610  0.23030  0.81940  1.0000
  C   C206      1.0  0.76970  0.75580  0.81940  1.0000
  C   C207      1.0  0.24420  0.01390  0.81940  1.0000
  C   C208      1.0  0.01390  0.76970  0.18060  1.0000
  C   C209      1.0  0.23030  0.24420  0.18060  1.0000
  C   C210      1.0  0.75580  0.98610  0.18060  1.0000
  H   H121      1.0  0.99620  0.20360  0.84470  1.0000
  H   H122      1.0  0.79640  0.79260  0.84470  1.0000
  H   H123      1.0  0.20740  0.00380  0.84470  1.0000
  H   H124      1.0  0.00380  0.79640  0.15530  1.0000
  H   H125      1.0  0.20360  0.20740  0.15530  1.0000
  H   H126      1.0  0.79260  0.99620  0.15530  1.0000
  C   C211      1.0  0.99660  0.26480  0.73560  1.0000
  C   C212      1.0  0.73520  0.73180  0.73560  1.0000
  C   C213      1.0  0.26820  0.00340  0.73560  1.0000
  C   C214      1.0  0.00340  0.73520  0.26440  1.0000
  C   C215      1.0  0.26480  0.26820  0.26440  1.0000
  C   C216      1.0  0.73180  0.99660  0.26440  1.0000
  H   H127      1.0  0.01340  0.26130  0.70440  1.0000
  H   H128      1.0  0.73870  0.75210  0.70440  1.0000
  H   H129      1.0  0.24790  0.98660  0.70440  1.0000
  H   H130      1.0  0.98660  0.73870  0.29560  1.0000
  H   H131      1.0  0.26130  0.24790  0.29560  1.0000
  H   H132      1.0  0.75210  0.01340  0.29560  1.0000
  C   C217      1.0  0.94500  0.27280  0.82770  1.0000
  C   C218      1.0  0.72720  0.67220  0.82770  1.0000
  C   C219      1.0  0.32780  0.05500  0.82770  1.0000
  C   C220      1.0  0.05500  0.72720  0.17230  1.0000
  C   C221      1.0  0.27280  0.32780  0.17230  1.0000
  C   C222      1.0  0.67220  0.94500  0.17230  1.0000
  H   H133      1.0  0.92600  0.27400  0.85860  1.0000
  H   H134      1.0  0.72600  0.65200  0.85860  1.0000
  H   H135      1.0  0.34800  0.07400  0.85860  1.0000
  H   H136      1.0  0.07400  0.72600  0.14140  1.0000
  H   H137      1.0  0.27400  0.34800  0.14140  1.0000
  H   H138      1.0  0.65200  0.92600  0.14140  1.0000
  C   C223      1.0  0.95580  0.30750  0.74410  1.0000
  C   C224      1.0  0.69250  0.64830  0.74410  1.0000
  C   C225      1.0  0.35170  0.04420  0.74410  1.0000
  C   C226      1.0  0.04420  0.69250  0.25590  1.0000
  C   C227      1.0  0.30750  0.35170  0.25590  1.0000
  C   C228      1.0  0.64830  0.95580  0.25590  1.0000
  H   H139      1.0  0.94440  0.33230  0.71840  1.0000
  H   H140      1.0  0.66770  0.61210  0.71840  1.0000
  H   H141      1.0  0.38790  0.05560  0.71840  1.0000
  H   H142      1.0  0.05560  0.66770  0.28160  1.0000
  H   H143      1.0  0.33230  0.38790  0.28160  1.0000
  H   H144      1.0  0.61210  0.94440  0.28160  1.0000
  C   C229      1.0  0.93160  0.31390  0.79007  1.0000
  C   C230      1.0  0.68610  0.61770  0.79007  1.0000
  C   C231      1.0  0.38230  0.06840  0.79007  1.0000
  C   C232      1.0  0.06840  0.68610  0.20993  1.0000
  C   C233      1.0  0.31390  0.38230  0.20993  1.0000
  C   C234      1.0  0.61770  0.93160  0.20993  1.0000
  C   C235      1.0  0.89540  0.36830  0.80010  1.0000
  C   C236      1.0  0.63170  0.52710  0.80010  1.0000
  C   C237      1.0  0.47290  0.10460  0.80010  1.0000
  C   C238      1.0  0.10460  0.63170  0.19990  1.0000
  C   C239      1.0  0.36830  0.47290  0.19990  1.0000
  C   C240      1.0  0.52710  0.89540  0.19990  1.0000
  N   N1        1.0  0.52630  0.35720  0.29394  1.0000
  N   N2        1.0  0.64280  0.16910  0.29394  1.0000
  N   N3        1.0  0.83090  0.47370  0.29394  1.0000
  N   N4        1.0  0.47370  0.64280  0.70606  1.0000
  N   N5        1.0  0.35720  0.83090  0.70606  1.0000
  N   N6        1.0  0.16910  0.52630  0.70606  1.0000
  N   N7        1.0  0.53230  0.36060  0.91376  1.0000
  N   N8        1.0  0.63940  0.17170  0.91376  1.0000
  N   N9        1.0  0.82830  0.46770  0.91376  1.0000
  N   N10       1.0  0.46770  0.63940  0.08624  1.0000
  N   N11       1.0  0.36060  0.82830  0.08624  1.0000
  N   N12       1.0  0.17170  0.53230  0.08624  1.0000
  N   N13       1.0  0.52850  0.24790  0.12859  1.0000
  N   N14       1.0  0.75210  0.28060  0.12859  1.0000
  N   N15       1.0  0.71940  0.47150  0.12859  1.0000
  N   N16       1.0  0.47150  0.75210  0.87141  1.0000
  N   N17       1.0  0.24790  0.71940  0.87141  1.0000
  N   N18       1.0  0.28060  0.52850  0.87141  1.0000
  N   N19       1.0  0.52840  0.24740  0.07899  1.0000
  N   N20       1.0  0.75260  0.28100  0.07899  1.0000
  N   N21       1.0  0.71900  0.47160  0.07899  1.0000
  N   N22       1.0  0.47160  0.75260  0.92101  1.0000
  N   N23       1.0  0.24740  0.71900  0.92101  1.0000
  N   N24       1.0  0.28100  0.52840  0.92101  1.0000
  N   N25       1.0  0.52170  0.43000  0.10092  1.0000
  N   N26       1.0  0.57000  0.09170  0.10092  1.0000
  N   N27       1.0  0.90830  0.47830  0.10092  1.0000
  N   N28       1.0  0.47830  0.57000  0.89908  1.0000
  N   N29       1.0  0.43000  0.90830  0.89908  1.0000
  N   N30       1.0  0.09170  0.52170  0.89908  1.0000
  H   H145      1.0  0.55900  0.47000  0.11600  1.0000
  H   H146      1.0  0.53000  0.08900  0.11600  1.0000
  H   H147      1.0  0.91100  0.44100  0.11600  1.0000
  H   H148      1.0  0.44100  0.53000  0.88400  1.0000
  H   H149      1.0  0.47000  0.91100  0.88400  1.0000
  H   H150      1.0  0.08900  0.55900  0.88400  1.0000
  H   H151      1.0  0.47500  0.40900  0.11400  1.0000
  H   H152      1.0  0.59100  0.06600  0.11400  1.0000
  H   H153      1.0  0.93400  0.52500  0.11400  1.0000
  H   H154      1.0  0.52500  0.59100  0.88600  1.0000
  H   H155      1.0  0.40900  0.93400  0.88600  1.0000
  H   H156      1.0  0.06600  0.47500  0.88600  1.0000
  N   N31       1.0  0.52210  0.35530  0.10367  1.0000
  N   N32       1.0  0.64470  0.16680  0.10367  1.0000
  N   N33       1.0  0.83320  0.47790  0.10367  1.0000
  N   N34       1.0  0.47790  0.64470  0.89633  1.0000
  N   N35       1.0  0.35530  0.83320  0.89633  1.0000
  N   N36       1.0  0.16680  0.52210  0.89633  1.0000
  O   O1        1.0  0.43360  0.31820  0.39803  1.0000
  O   O2        1.0  0.68180  0.11540  0.39803  1.0000
  O   O3        1.0  0.88460  0.56640  0.39803  1.0000
  O   O4        1.0  0.56640  0.68180  0.60197  1.0000
  O   O5        1.0  0.31820  0.88460  0.60197  1.0000
  O   O6        1.0  0.11540  0.43360  0.60197  1.0000
  O   O7        1.0  0.42520  0.42050  0.36717  1.0000
  O   O8        1.0  0.57950  0.00470  0.36717  1.0000
  O   O9        1.0  0.99530  0.57480  0.36717  1.0000
  O   O10       1.0  0.57480  0.57950  0.63283  1.0000
  O   O11       1.0  0.42050  0.99530  0.63283  1.0000
  O   O12       1.0  0.00470  0.42520  0.63283  1.0000
  O   O13       1.0  0.04950  0.17240  0.41950  1.0000
  O   O14       1.0  0.82760  0.87710  0.41950  1.0000
  O   O15       1.0  0.12290  0.95050  0.41950  1.0000
  O   O16       1.0  0.95050  0.82760  0.58050  1.0000
  O   O17       1.0  0.17240  0.12290  0.58050  1.0000
  O   O18       1.0  0.87710  0.04950  0.58050  1.0000
  O   O19       1.0  0.87580  0.38730  0.43829  1.0000
  O   O20       1.0  0.61270  0.48850  0.43829  1.0000
  O   O21       1.0  0.51150  0.12420  0.43829  1.0000
  O   O22       1.0  0.12420  0.61270  0.56171  1.0000
  O   O23       1.0  0.38730  0.51150  0.56171  1.0000
  O   O24       1.0  0.48850  0.87580  0.56171  1.0000
  O   O25       1.0  0.87810  0.37490  0.35921  1.0000
  O   O26       1.0  0.62510  0.50320  0.35921  1.0000
  O   O27       1.0  0.49680  0.12190  0.35921  1.0000
  O   O28       1.0  0.12190  0.62510  0.64079  1.0000
  O   O29       1.0  0.37490  0.49680  0.64079  1.0000
  O   O30       1.0  0.50320  0.87810  0.64079  1.0000
  O   O31       1.0  0.43230  0.31710  0.81271  1.0000
  O   O32       1.0  0.68290  0.11520  0.81271  1.0000
  O   O33       1.0  0.88480  0.56770  0.81271  1.0000
  O   O34       1.0  0.56770  0.68290  0.18729  1.0000
  O   O35       1.0  0.31710  0.88480  0.18729  1.0000
  O   O36       1.0  0.11520  0.43230  0.18729  1.0000
  O   O37       1.0  0.42100  0.41780  0.84359  1.0000
  O   O38       1.0  0.58220  0.00320  0.84359  1.0000
  O   O39       1.0  0.99680  0.57900  0.84359  1.0000
  O   O40       1.0  0.57900  0.58220  0.15641  1.0000
  O   O41       1.0  0.41780  0.99680  0.15641  1.0000
  O   O42       1.0  0.00320  0.42100  0.15641  1.0000
  O   O43       1.0  0.05720  0.18720  0.76540  1.0000
  O   O44       1.0  0.81280  0.87000  0.76540  1.0000
  O   O45       1.0  0.13000  0.94280  0.76540  1.0000
  O   O46       1.0  0.94280  0.81280  0.23460  1.0000
  O   O47       1.0  0.18720  0.13000  0.23460  1.0000
  O   O48       1.0  0.87000  0.05720  0.23460  1.0000
  O   O49       1.0  0.88510  0.38020  0.84419  1.0000
  O   O50       1.0  0.61980  0.50490  0.84419  1.0000
  O   O51       1.0  0.49510  0.11490  0.84419  1.0000
  O   O52       1.0  0.11490  0.61980  0.15581  1.0000
  O   O53       1.0  0.38020  0.49510  0.15581  1.0000
  O   O54       1.0  0.50490  0.88510  0.15581  1.0000
  O   O55       1.0  0.87930  0.40120  0.76635  1.0000
  O   O56       1.0  0.59880  0.47810  0.76635  1.0000
  O   O57       1.0  0.52190  0.12070  0.76635  1.0000
  O   O58       1.0  0.12070  0.59880  0.23365  1.0000
  O   O59       1.0  0.40120  0.52190  0.23365  1.0000
  O   O60       1.0  0.47810  0.87930  0.23365  1.0000
  O   O61       1.0  0.58520  0.31460  0.38750  1.0000
  O   O62       1.0  0.68540  0.27060  0.38750  1.0000
  O   O63       1.0  0.72940  0.41480  0.38750  1.0000
  O   O64       1.0  0.41480  0.68540  0.61250  1.0000
  O   O65       1.0  0.31460  0.72940  0.61250  1.0000
  O   O66       1.0  0.27060  0.58520  0.61250  1.0000
  O   O67       1.0  0.66670  0.33330  0.45434  1.0000
  O   O68       1.0  0.33330  0.66670  0.54566  1.0000
  O   O69       1.0  0.58510  0.31370  0.81886  1.0000
  O   O70       1.0  0.68630  0.27140  0.81886  1.0000
  O   O71       1.0  0.72860  0.41490  0.81886  1.0000
  O   O72       1.0  0.41490  0.68630  0.18114  1.0000
  O   O73       1.0  0.31370  0.72860  0.18114  1.0000
  O   O74       1.0  0.27140  0.58510  0.18114  1.0000
  O   O75       1.0  0.66670  0.33330  0.74880  1.0000
  O   O76       1.0  0.33330  0.66670  0.25120  1.0000
  S   S1        1.0  0.66670  0.33330  0.40488  1.0000
  S   S2        1.0  0.33330  0.66670  0.59512  1.0000
  S   S3        1.0  0.66670  0.33330  0.80078  1.0000
  S   S4        1.0  0.33330  0.66670  0.19922  1.0000
