data_image0
_chemical_formula_structural       Co12C18H6C6H6C18H6C6H6C12H6C6H6C12H6C6H6C6H6C6H6C12H6C6H6C18H6C12H6C6H6C6H6C24H6C6H6C12H6C6H6C18H6C6H6C6H6C6H6N12H12N24O76S4
_chemical_formula_sum              "Co12 C240 H156 N36 O76 S4"
_cell_length_a       18.7648
_cell_length_b       18.7648
_cell_length_c       27.111
_cell_angle_alpha    90
_cell_angle_beta     90
_cell_angle_gamma    120

_space_group_name_H-M_alt    "P 1"
_space_group_IT_number       1

loop_
  _space_group_symop_operation_xyz
  'x, y, z'

loop_
  _atom_site_type_symbol
  _atom_site_label
  _atom_site_symmetry_multiplicity
  _atom_site_fract_x
  _atom_site_fract_y
  _atom_site_fract_z
  _atom_site_occupancy
  Co  Co1       1.0  0.55406  0.40759  0.62853  1.0000
  Co  Co2       1.0  0.59241  0.14647  0.62853  1.0000
  Co  Co3       1.0  0.85353  0.44594  0.62853  1.0000
  Co  Co4       1.0  0.44594  0.59241  0.37147  1.0000
  Co  Co5       1.0  0.40759  0.85353  0.37147  1.0000
  Co  Co6       1.0  0.14647  0.55406  0.37147  1.0000
  Co  Co7       1.0  0.62501  0.46989  0.16107  1.0000
  Co  Co8       1.0  0.53011  0.15512  0.16107  1.0000
  Co  Co9       1.0  0.84488  0.37499  0.16107  1.0000
  Co  Co10      1.0  0.37499  0.53011  0.83893  1.0000
  Co  Co11      1.0  0.46989  0.84488  0.83893  1.0000
  Co  Co12      1.0  0.15512  0.62501  0.83893  1.0000
  C   C1        1.0  0.61530  0.09930  0.19990  1.0000
  C   C2        1.0  0.90070  0.51600  0.19990  1.0000
  C   C3        1.0  0.48400  0.38470  0.19990  1.0000
  C   C4        1.0  0.38470  0.90070  0.80010  1.0000
  C   C5        1.0  0.09930  0.48400  0.80010  1.0000
  C   C6        1.0  0.51600  0.61530  0.80010  1.0000
  C   C7        1.0  0.66820  0.06430  0.21350  1.0000
  C   C8        1.0  0.93570  0.60390  0.21350  1.0000
  C   C9        1.0  0.39610  0.33180  0.21350  1.0000
  C   C10       1.0  0.33180  0.93570  0.78650  1.0000
  C   C11       1.0  0.06430  0.39610  0.78650  1.0000
  C   C12       1.0  0.60390  0.66820  0.78650  1.0000
  C   C13       1.0  0.71900  0.05900  0.17780  1.0000
  C   C14       1.0  0.94100  0.66000  0.17780  1.0000
  C   C15       1.0  0.34000  0.28100  0.17780  1.0000
  C   C16       1.0  0.28100  0.94100  0.82220  1.0000
  C   C17       1.0  0.05900  0.34000  0.82220  1.0000
  C   C18       1.0  0.66000  0.71900  0.82220  1.0000
  H   H1        1.0  0.72190  0.08030  0.14640  1.0000
  H   H2        1.0  0.91970  0.64160  0.14640  1.0000
  H   H3        1.0  0.35840  0.27810  0.14640  1.0000
  H   H4        1.0  0.27810  0.91970  0.85360  1.0000
  H   H5        1.0  0.08030  0.35840  0.85360  1.0000
  H   H6        1.0  0.64160  0.72190  0.85360  1.0000
  C   C19       1.0  0.66570  0.03190  0.25940  1.0000
  C   C20       1.0  0.96810  0.63380  0.25940  1.0000
  C   C21       1.0  0.36620  0.33430  0.25940  1.0000
  C   C22       1.0  0.33430  0.96810  0.74060  1.0000
  C   C23       1.0  0.03190  0.36620  0.74060  1.0000
  C   C24       1.0  0.63380  0.66570  0.74060  1.0000
  H   H7        1.0  0.63450  0.03750  0.28410  1.0000
  H   H8        1.0  0.96250  0.59700  0.28410  1.0000
  H   H9        1.0  0.40300  0.36550  0.28410  1.0000
  H   H10       1.0  0.36550  0.96250  0.71590  1.0000
  H   H11       1.0  0.03750  0.40300  0.71590  1.0000
  H   H12       1.0  0.59700  0.63450  0.71590  1.0000
  C   C25       1.0  0.66630  0.61820  0.18110  1.0000
  C   C26       1.0  0.38180  0.04810  0.18110  1.0000
  C   C27       1.0  0.95190  0.33370  0.18110  1.0000
  C   C28       1.0  0.33370  0.38180  0.81890  1.0000
  C   C29       1.0  0.61820  0.95190  0.81890  1.0000
  C   C30       1.0  0.04810  0.66630  0.81890  1.0000
  C   C31       1.0  0.70170  0.70420  0.19700  1.0000
  C   C32       1.0  0.29580  0.99750  0.19700  1.0000
  C   C33       1.0  0.00250  0.29830  0.19700  1.0000
  C   C34       1.0  0.29830  0.29580  0.80300  1.0000
  C   C35       1.0  0.70420  0.00250  0.80300  1.0000
  C   C36       1.0  0.99750  0.70170  0.80300  1.0000
  C   C37       1.0  0.77870  0.74770  0.21830  1.0000
  C   C38       1.0  0.25230  0.03100  0.21830  1.0000
  C   C39       1.0  0.96900  0.22130  0.21830  1.0000
  C   C40       1.0  0.22130  0.25230  0.78170  1.0000
  C   C41       1.0  0.74770  0.96900  0.78170  1.0000
  C   C42       1.0  0.03100  0.77870  0.78170  1.0000
  H   H13       1.0  0.81000  0.72220  0.22260  1.0000
  H   H14       1.0  0.27780  0.08780  0.22260  1.0000
  H   H15       1.0  0.91220  0.19000  0.22260  1.0000
  H   H16       1.0  0.19000  0.27780  0.77740  1.0000
  H   H17       1.0  0.72220  0.91220  0.77740  1.0000
  H   H18       1.0  0.08780  0.81000  0.77740  1.0000
  C   C43       1.0  0.81050  0.82870  0.23360  1.0000
  C   C44       1.0  0.17130  0.98180  0.23360  1.0000
  C   C45       1.0  0.01820  0.18950  0.23360  1.0000
  C   C46       1.0  0.18950  0.17130  0.76640  1.0000
  C   C47       1.0  0.82870  0.01820  0.76640  1.0000
  C   C48       1.0  0.98180  0.81050  0.76640  1.0000
  H   H19       1.0  0.86250  0.85690  0.24780  1.0000
  H   H20       1.0  0.14310  0.00560  0.24780  1.0000
  H   H21       1.0  0.99440  0.13750  0.24780  1.0000
  H   H22       1.0  0.13750  0.14310  0.75220  1.0000
  H   H23       1.0  0.85690  0.99440  0.75220  1.0000
  H   H24       1.0  0.00560  0.86250  0.75220  1.0000
  C   C49       1.0  0.76540  0.86710  0.22760  1.0000
  C   C50       1.0  0.13290  0.89830  0.22760  1.0000
  C   C51       1.0  0.10170  0.23460  0.22760  1.0000
  C   C52       1.0  0.23460  0.13290  0.77240  1.0000
  C   C53       1.0  0.86710  0.10170  0.77240  1.0000
  C   C54       1.0  0.89830  0.76540  0.77240  1.0000
  C   C55       1.0  0.68720  0.82380  0.20730  1.0000
  C   C56       1.0  0.17620  0.86340  0.20730  1.0000
  C   C57       1.0  0.13660  0.31280  0.20730  1.0000
  C   C58       1.0  0.31280  0.17620  0.79270  1.0000
  C   C59       1.0  0.82380  0.13660  0.79270  1.0000
  C   C60       1.0  0.86340  0.68720  0.79270  1.0000
  H   H25       1.0  0.65520  0.84860  0.20490  1.0000
  H   H26       1.0  0.15140  0.80660  0.20490  1.0000
  H   H27       1.0  0.19340  0.34480  0.20490  1.0000
  H   H28       1.0  0.34480  0.15140  0.79510  1.0000
  H   H29       1.0  0.84860  0.19340  0.79510  1.0000
  H   H30       1.0  0.80660  0.65520  0.79510  1.0000
  C   C61       1.0  0.65650  0.74450  0.19070  1.0000
  C   C62       1.0  0.25550  0.91200  0.19070  1.0000
  C   C63       1.0  0.08800  0.34350  0.19070  1.0000
  C   C64       1.0  0.34350  0.25550  0.80930  1.0000
  C   C65       1.0  0.74450  0.08800  0.80930  1.0000
  C   C66       1.0  0.91200  0.65650  0.80930  1.0000
  H   H31       1.0  0.60550  0.71750  0.17530  1.0000
  H   H32       1.0  0.28250  0.88800  0.17530  1.0000
  H   H33       1.0  0.11200  0.39450  0.17530  1.0000
  H   H34       1.0  0.39450  0.28250  0.82470  1.0000
  H   H35       1.0  0.71750  0.11200  0.82470  1.0000
  H   H36       1.0  0.88800  0.60550  0.82470  1.0000
  C   C67       1.0  0.75730  0.98720  0.23510  1.0000
  C   C68       1.0  0.01280  0.77010  0.23510  1.0000
  C   C69       1.0  0.22990  0.24270  0.23510  1.0000
  C   C70       1.0  0.24270  0.01280  0.76490  1.0000
  C   C71       1.0  0.98720  0.22990  0.76490  1.0000
  C   C72       1.0  0.77010  0.75730  0.76490  1.0000
  C   C73       1.0  0.76530  0.02190  0.18900  1.0000
  C   C74       1.0  0.97810  0.74340  0.18900  1.0000
  C   C75       1.0  0.25660  0.23470  0.18900  1.0000
  C   C76       1.0  0.23470  0.97810  0.81100  1.0000
  C   C77       1.0  0.02190  0.25660  0.81100  1.0000
  C   C78       1.0  0.74340  0.76530  0.81100  1.0000
  H   H37       1.0  0.80110  0.02050  0.16580  1.0000
  H   H38       1.0  0.97950  0.78060  0.16580  1.0000
  H   H39       1.0  0.21940  0.19890  0.16580  1.0000
  H   H40       1.0  0.19890  0.97950  0.83420  1.0000
  H   H41       1.0  0.02050  0.21940  0.83420  1.0000
  H   H42       1.0  0.78060  0.80110  0.83420  1.0000
  C   C79       1.0  0.70700  0.99230  0.26960  1.0000
  C   C80       1.0  0.00770  0.71470  0.26960  1.0000
  C   C81       1.0  0.28530  0.29300  0.26960  1.0000
  C   C82       1.0  0.29300  0.00770  0.73040  1.0000
  C   C83       1.0  0.99230  0.28530  0.73040  1.0000
  C   C84       1.0  0.71470  0.70700  0.73040  1.0000
  H   H43       1.0  0.70130  0.96820  0.30040  1.0000
  H   H44       1.0  0.03180  0.73310  0.30040  1.0000
  H   H45       1.0  0.26690  0.29870  0.30040  1.0000
  H   H46       1.0  0.29870  0.03180  0.69960  1.0000
  H   H47       1.0  0.96820  0.26690  0.69960  1.0000
  H   H48       1.0  0.73310  0.70130  0.69960  1.0000
  C   C85       1.0  0.59590  0.47730  0.05500  1.0000
  C   C86       1.0  0.52270  0.11860  0.05500  1.0000
  C   C87       1.0  0.88140  0.40410  0.05500  1.0000
  C   C88       1.0  0.40410  0.52270  0.94500  1.0000
  C   C89       1.0  0.47730  0.88140  0.94500  1.0000
  C   C90       1.0  0.11860  0.59590  0.94500  1.0000
  H   H49       1.0  0.54990  0.47730  0.06790  1.0000
  H   H50       1.0  0.52270  0.07260  0.06790  1.0000
  H   H51       1.0  0.92740  0.45010  0.06790  1.0000
  H   H52       1.0  0.45010  0.52270  0.93210  1.0000
  H   H53       1.0  0.47730  0.92740  0.93210  1.0000
  H   H54       1.0  0.07260  0.54990  0.93210  1.0000
  C   C91       1.0  0.60420  0.47760  0.00390  1.0000
  C   C92       1.0  0.52240  0.12660  0.00390  1.0000
  C   C93       1.0  0.87340  0.39580  0.00390  1.0000
  C   C94       1.0  0.39580  0.52240  0.99610  1.0000
  C   C95       1.0  0.47760  0.87340  0.99610  1.0000
  C   C96       1.0  0.12660  0.60420  0.99610  1.0000
  H   H55       1.0  0.56420  0.47780  0.98360  1.0000
  H   H56       1.0  0.52220  0.08640  0.98360  1.0000
  H   H57       1.0  0.91360  0.43580  0.98360  1.0000
  H   H58       1.0  0.43580  0.52220  0.01640  1.0000
  H   H59       1.0  0.47780  0.91360  0.01640  1.0000
  H   H60       1.0  0.08640  0.56420  0.01640  1.0000
  C   C97       1.0  0.66980  0.47770  0.98370  1.0000
  C   C98       1.0  0.52230  0.19210  0.98370  1.0000
  C   C99       1.0  0.80790  0.33020  0.98370  1.0000
  C   C100      1.0  0.33020  0.52230  0.01630  1.0000
  C   C101      1.0  0.47770  0.80790  0.01630  1.0000
  C   C102      1.0  0.19210  0.66980  0.01630  1.0000
  C   C103      1.0  0.72730  0.47940  0.01710  1.0000
  C   C104      1.0  0.52060  0.24790  0.01710  1.0000
  C   C105      1.0  0.75210  0.27270  0.01710  1.0000
  C   C106      1.0  0.27270  0.52060  0.98290  1.0000
  C   C107      1.0  0.47940  0.75210  0.98290  1.0000
  C   C108      1.0  0.24790  0.72730  0.98290  1.0000
  H   H61       1.0  0.77530  0.48260  0.00530  1.0000
  H   H62       1.0  0.51740  0.29270  0.00530  1.0000
  H   H63       1.0  0.70730  0.22470  0.00530  1.0000
  H   H64       1.0  0.22470  0.51740  0.99470  1.0000
  H   H65       1.0  0.48260  0.70730  0.99470  1.0000
  H   H66       1.0  0.29270  0.77530  0.99470  1.0000
  C   C109      1.0  0.71410  0.47660  0.06700  1.0000
  C   C110      1.0  0.52340  0.23750  0.06700  1.0000
  C   C111      1.0  0.76250  0.28590  0.06700  1.0000
  C   C112      1.0  0.28590  0.52340  0.93300  1.0000
  C   C113      1.0  0.47660  0.76250  0.93300  1.0000
  C   C114      1.0  0.23750  0.71410  0.93300  1.0000
  H   H67       1.0  0.75190  0.47430  0.08810  1.0000
  H   H68       1.0  0.52570  0.27760  0.08810  1.0000
  H   H69       1.0  0.72240  0.24810  0.08810  1.0000
  H   H70       1.0  0.24810  0.52570  0.91190  1.0000
  H   H71       1.0  0.47430  0.72240  0.91190  1.0000
  H   H72       1.0  0.27760  0.75190  0.91190  1.0000
  C   C115      1.0  0.68490  0.47740  0.93110  1.0000
  C   C116      1.0  0.52260  0.20750  0.93110  1.0000
  C   C117      1.0  0.79250  0.31510  0.93110  1.0000
  C   C118      1.0  0.31510  0.52260  0.06890  1.0000
  C   C119      1.0  0.47740  0.79250  0.06890  1.0000
  C   C120      1.0  0.20750  0.68490  0.06890  1.0000
  C   C121      1.0  0.67360  0.47080  0.85140  1.0000
  C   C122      1.0  0.52920  0.20280  0.85140  1.0000
  C   C123      1.0  0.79720  0.32640  0.85140  1.0000
  C   C124      1.0  0.32640  0.52920  0.14860  1.0000
  C   C125      1.0  0.47080  0.79720  0.14860  1.0000
  C   C126      1.0  0.20280  0.67360  0.14860  1.0000
  C   C127      1.0  0.56640  0.44570  0.78490  1.0000
  C   C128      1.0  0.55430  0.12070  0.78490  1.0000
  C   C129      1.0  0.87930  0.43360  0.78490  1.0000
  C   C130      1.0  0.43360  0.55430  0.21510  1.0000
  C   C131      1.0  0.44570  0.87930  0.21510  1.0000
  C   C132      1.0  0.12070  0.56640  0.21510  1.0000
  H   H73       1.0  0.52790  0.44070  0.80830  1.0000
  H   H74       1.0  0.55930  0.08720  0.80830  1.0000
  H   H75       1.0  0.91280  0.47210  0.80830  1.0000
  H   H76       1.0  0.47210  0.55930  0.19170  1.0000
  H   H77       1.0  0.44070  0.91280  0.19170  1.0000
  H   H78       1.0  0.08720  0.52790  0.19170  1.0000
  C   C133      1.0  0.64500  0.46520  0.80000  1.0000
  C   C134      1.0  0.53480  0.17980  0.80000  1.0000
  C   C135      1.0  0.82020  0.35500  0.80000  1.0000
  C   C136      1.0  0.35500  0.53480  0.20000  1.0000
  C   C137      1.0  0.46520  0.82020  0.20000  1.0000
  C   C138      1.0  0.17980  0.64500  0.20000  1.0000
  C   C139      1.0  0.70070  0.47460  0.76290  1.0000
  C   C140      1.0  0.52540  0.22610  0.76290  1.0000
  C   C141      1.0  0.77390  0.29930  0.76290  1.0000
  C   C142      1.0  0.29930  0.52540  0.23710  1.0000
  C   C143      1.0  0.47460  0.77390  0.23710  1.0000
  C   C144      1.0  0.22610  0.70070  0.23710  1.0000
  H   H79       1.0  0.75420  0.48730  0.77040  1.0000
  H   H80       1.0  0.51270  0.26690  0.77040  1.0000
  H   H81       1.0  0.73310  0.24580  0.77040  1.0000
  H   H82       1.0  0.24580  0.51270  0.22960  1.0000
  H   H83       1.0  0.48730  0.73310  0.22960  1.0000
  H   H84       1.0  0.26690  0.75420  0.22960  1.0000
  C   C145      1.0  0.67270  0.46400  0.71390  1.0000
  C   C146      1.0  0.53600  0.20870  0.71390  1.0000
  C   C147      1.0  0.79130  0.32730  0.71390  1.0000
  C   C148      1.0  0.32730  0.53600  0.28610  1.0000
  C   C149      1.0  0.46400  0.79130  0.28610  1.0000
  C   C150      1.0  0.20870  0.67270  0.28610  1.0000
  H   H85       1.0  0.71080  0.47420  0.68900  1.0000
  H   H86       1.0  0.52580  0.23660  0.68900  1.0000
  H   H87       1.0  0.76340  0.28920  0.68900  1.0000
  H   H88       1.0  0.28920  0.52580  0.31100  1.0000
  H   H89       1.0  0.47420  0.76340  0.31100  1.0000
  H   H90       1.0  0.23660  0.71080  0.31100  1.0000
  C   C151      1.0  0.54490  0.43380  0.73640  1.0000
  C   C152      1.0  0.56620  0.11110  0.73640  1.0000
  C   C153      1.0  0.88890  0.45510  0.73640  1.0000
  C   C154      1.0  0.45510  0.56620  0.26360  1.0000
  C   C155      1.0  0.43380  0.88890  0.26360  1.0000
  C   C156      1.0  0.11110  0.54490  0.26360  1.0000
  H   H91       1.0  0.49150  0.42000  0.72780  1.0000
  H   H92       1.0  0.58000  0.07150  0.72780  1.0000
  H   H93       1.0  0.92850  0.50850  0.72780  1.0000
  H   H94       1.0  0.50850  0.58000  0.27220  1.0000
  H   H95       1.0  0.42000  0.92850  0.27220  1.0000
  H   H96       1.0  0.07150  0.49150  0.27220  1.0000
  C   C157      1.0  0.80050  0.94730  0.58760  1.0000
  C   C158      1.0  0.05270  0.85320  0.58760  1.0000
  C   C159      1.0  0.14680  0.19950  0.58760  1.0000
  C   C160      1.0  0.19950  0.05270  0.41240  1.0000
  C   C161      1.0  0.94730  0.14680  0.41240  1.0000
  C   C162      1.0  0.85320  0.80050  0.41240  1.0000
  C   C163      1.0  0.61640  0.55620  0.60530  1.0000
  C   C164      1.0  0.44380  0.06020  0.60530  1.0000
  C   C165      1.0  0.93980  0.38360  0.60530  1.0000
  C   C166      1.0  0.38360  0.44380  0.39470  1.0000
  C   C167      1.0  0.55620  0.93980  0.39470  1.0000
  C   C168      1.0  0.06020  0.61640  0.39470  1.0000
  C   C169      1.0  0.67190  0.64510  0.59810  1.0000
  C   C170      1.0  0.35490  0.02680  0.59810  1.0000
  C   C171      1.0  0.97320  0.32810  0.59810  1.0000
  C   C172      1.0  0.32810  0.35490  0.40190  1.0000
  C   C173      1.0  0.64510  0.97320  0.40190  1.0000
  C   C174      1.0  0.02680  0.67190  0.40190  1.0000
  C   C175      1.0  0.64080  0.69880  0.60030  1.0000
  C   C176      1.0  0.30120  0.94200  0.60030  1.0000
  C   C177      1.0  0.05800  0.35920  0.60030  1.0000
  C   C178      1.0  0.35920  0.30120  0.39970  1.0000
  C   C179      1.0  0.69880  0.05800  0.39970  1.0000
  C   C180      1.0  0.94200  0.64080  0.39970  1.0000
  H   H97       1.0  0.58490  0.67800  0.60610  1.0000
  H   H98       1.0  0.32200  0.90690  0.60610  1.0000
  H   H99       1.0  0.09310  0.41510  0.60610  1.0000
  H   H100      1.0  0.41510  0.32200  0.39390  1.0000
  H   H101      1.0  0.67800  0.09310  0.39390  1.0000
  H   H102      1.0  0.90690  0.58490  0.39390  1.0000
  C   C181      1.0  0.69170  0.78200  0.59420  1.0000
  C   C182      1.0  0.21800  0.90970  0.59420  1.0000
  C   C183      1.0  0.09030  0.30830  0.59420  1.0000
  C   C184      1.0  0.30830  0.21800  0.40580  1.0000
  C   C185      1.0  0.78200  0.09030  0.40580  1.0000
  C   C186      1.0  0.90970  0.69170  0.40580  1.0000
  H   H103      1.0  0.67010  0.81710  0.59360  1.0000
  H   H104      1.0  0.18290  0.85300  0.59360  1.0000
  H   H105      1.0  0.14700  0.32990  0.59360  1.0000
  H   H106      1.0  0.32990  0.18290  0.40640  1.0000
  H   H107      1.0  0.81710  0.14700  0.40640  1.0000
  H   H108      1.0  0.85300  0.67010  0.40640  1.0000
  C   C187      1.0  0.77610  0.81330  0.58880  1.0000
  C   C188      1.0  0.18670  0.96280  0.58880  1.0000
  C   C189      1.0  0.03720  0.22390  0.58880  1.0000
  C   C190      1.0  0.22390  0.18670  0.41120  1.0000
  C   C191      1.0  0.81330  0.03720  0.41120  1.0000
  C   C192      1.0  0.96280  0.77610  0.41120  1.0000
  C   C193      1.0  0.80680  0.76040  0.58750  1.0000
  C   C194      1.0  0.23960  0.04640  0.58750  1.0000
  C   C195      1.0  0.95360  0.19320  0.58750  1.0000
  C   C196      1.0  0.19320  0.23960  0.41250  1.0000
  C   C197      1.0  0.76040  0.95360  0.41250  1.0000
  C   C198      1.0  0.04640  0.80680  0.41250  1.0000
  H   H109      1.0  0.86320  0.78160  0.58460  1.0000
  H   H110      1.0  0.21840  0.08160  0.58460  1.0000
  H   H111      1.0  0.91840  0.13680  0.58460  1.0000
  H   H112      1.0  0.13680  0.21840  0.41540  1.0000
  H   H113      1.0  0.78160  0.91840  0.41540  1.0000
  H   H114      1.0  0.08160  0.86320  0.41540  1.0000
  C   C199      1.0  0.75560  0.67720  0.59050  1.0000
  C   C200      1.0  0.32280  0.07840  0.59050  1.0000
  C   C201      1.0  0.92160  0.24440  0.59050  1.0000
  C   C202      1.0  0.24440  0.32280  0.40950  1.0000
  C   C203      1.0  0.67720  0.92160  0.40950  1.0000
  C   C204      1.0  0.07840  0.75560  0.40950  1.0000
  H   H115      1.0  0.77690  0.64200  0.58750  1.0000
  H   H116      1.0  0.35800  0.13490  0.58750  1.0000
  H   H117      1.0  0.86510  0.22310  0.58750  1.0000
  H   H118      1.0  0.22310  0.35800  0.41250  1.0000
  H   H119      1.0  0.64200  0.86510  0.41250  1.0000
  H   H120      1.0  0.13490  0.77690  0.41250  1.0000
  C   C205      1.0  0.67900  0.08550  0.60130  1.0000
  C   C206      1.0  0.91450  0.59350  0.60130  1.0000
  C   C207      1.0  0.40650  0.32100  0.60130  1.0000
  C   C208      1.0  0.32100  0.91450  0.39870  1.0000
  C   C209      1.0  0.08550  0.40650  0.39870  1.0000
  C   C210      1.0  0.59350  0.67900  0.39870  1.0000
  C   C211      1.0  0.72710  0.04310  0.59680  1.0000
  C   C212      1.0  0.95690  0.68400  0.59680  1.0000
  C   C213      1.0  0.31600  0.27290  0.59680  1.0000
  C   C214      1.0  0.27290  0.95690  0.40320  1.0000
  C   C215      1.0  0.04310  0.31600  0.40320  1.0000
  C   C216      1.0  0.68400  0.72710  0.40320  1.0000
  C   C217      1.0  0.75460  0.02030  0.63750  1.0000
  C   C218      1.0  0.97970  0.73430  0.63750  1.0000
  C   C219      1.0  0.26570  0.24540  0.63750  1.0000
  C   C220      1.0  0.24540  0.97970  0.36250  1.0000
  C   C221      1.0  0.02030  0.26570  0.36250  1.0000
  C   C222      1.0  0.73430  0.75460  0.36250  1.0000
  H   H121      1.0  0.74860  0.03800  0.66850  1.0000
  H   H122      1.0  0.96200  0.71060  0.66850  1.0000
  H   H123      1.0  0.28940  0.25140  0.66850  1.0000
  H   H124      1.0  0.25140  0.96200  0.33150  1.0000
  H   H125      1.0  0.03800  0.28940  0.33150  1.0000
  H   H126      1.0  0.71060  0.74860  0.33150  1.0000
  C   C223      1.0  0.74060  0.02030  0.54980  1.0000
  C   C224      1.0  0.97970  0.72030  0.54980  1.0000
  C   C225      1.0  0.27970  0.25940  0.54980  1.0000
  C   C226      1.0  0.25940  0.97970  0.45020  1.0000
  C   C227      1.0  0.02030  0.27970  0.45020  1.0000
  C   C228      1.0  0.72030  0.74060  0.45020  1.0000
  H   H127      1.0  0.72590  0.03800  0.52150  1.0000
  H   H128      1.0  0.96200  0.68790  0.52150  1.0000
  H   H129      1.0  0.31210  0.27410  0.52150  1.0000
  H   H130      1.0  0.27410  0.96200  0.47850  1.0000
  H   H131      1.0  0.03800  0.31210  0.47850  1.0000
  H   H132      1.0  0.68790  0.72590  0.47850  1.0000
  C   C229      1.0  0.77550  0.97210  0.54620  1.0000
  C   C230      1.0  0.02790  0.80340  0.54620  1.0000
  C   C231      1.0  0.19660  0.22450  0.54620  1.0000
  C   C232      1.0  0.22450  0.02790  0.45380  1.0000
  C   C233      1.0  0.97210  0.19660  0.45380  1.0000
  C   C234      1.0  0.80340  0.77550  0.45380  1.0000
  H   H133      1.0  0.78280  0.95550  0.51520  1.0000
  H   H134      1.0  0.04450  0.82730  0.51520  1.0000
  H   H135      1.0  0.17270  0.21720  0.51520  1.0000
  H   H136      1.0  0.21720  0.04450  0.48480  1.0000
  H   H137      1.0  0.95550  0.17270  0.48480  1.0000
  H   H138      1.0  0.82730  0.78280  0.48480  1.0000
  C   C235      1.0  0.79020  0.97320  0.63400  1.0000
  C   C236      1.0  0.02680  0.81700  0.63400  1.0000
  C   C237      1.0  0.18300  0.20980  0.63400  1.0000
  C   C238      1.0  0.20980  0.02680  0.36600  1.0000
  C   C239      1.0  0.97320  0.18300  0.36600  1.0000
  C   C240      1.0  0.81700  0.79020  0.36600  1.0000
  H   H139      1.0  0.80770  0.95820  0.66230  1.0000
  H   H140      1.0  0.04180  0.84950  0.66230  1.0000
  H   H141      1.0  0.15050  0.19230  0.66230  1.0000
  H   H142      1.0  0.19230  0.04180  0.33770  1.0000
  H   H143      1.0  0.95820  0.15050  0.33770  1.0000
  H   H144      1.0  0.84950  0.80770  0.33770  1.0000
  N   N1        1.0  0.64950  0.47710  0.08610  1.0000
  N   N2        1.0  0.52290  0.17240  0.08610  1.0000
  N   N3        1.0  0.82760  0.35050  0.08610  1.0000
  N   N4        1.0  0.35050  0.52290  0.91390  1.0000
  N   N5        1.0  0.47710  0.82760  0.91390  1.0000
  N   N6        1.0  0.17240  0.64950  0.91390  1.0000
  N   N7        1.0  0.55650  0.46900  0.89780  1.0000
  N   N8        1.0  0.53100  0.08750  0.89780  1.0000
  N   N9        1.0  0.91250  0.44350  0.89780  1.0000
  N   N10       1.0  0.44350  0.53100  0.10220  1.0000
  N   N11       1.0  0.46900  0.91250  0.10220  1.0000
  N   N12       1.0  0.08750  0.55650  0.10220  1.0000
  H   H145      1.0  0.58700  0.51900  0.90400  1.0000
  H   H146      1.0  0.48100  0.06800  0.90400  1.0000
  H   H147      1.0  0.93200  0.41300  0.90400  1.0000
  H   H148      1.0  0.41300  0.48100  0.09600  1.0000
  H   H149      1.0  0.51900  0.93200  0.09600  1.0000
  H   H150      1.0  0.06800  0.58700  0.09600  1.0000
  H   H151      1.0  0.51000  0.44200  0.90970  1.0000
  H   H152      1.0  0.55800  0.06800  0.90970  1.0000
  H   H153      1.0  0.93200  0.49000  0.90970  1.0000
  H   H154      1.0  0.49000  0.55800  0.09030  1.0000
  H   H155      1.0  0.44200  0.93200  0.09030  1.0000
  H   H156      1.0  0.06800  0.51000  0.09030  1.0000
  N   N13       1.0  0.63420  0.47190  0.89360  1.0000
  N   N14       1.0  0.52810  0.16230  0.89360  1.0000
  N   N15       1.0  0.83770  0.36580  0.89360  1.0000
  N   N16       1.0  0.36580  0.52810  0.10640  1.0000
  N   N17       1.0  0.47190  0.83770  0.10640  1.0000
  N   N18       1.0  0.16230  0.63420  0.10640  1.0000
  N   N19       1.0  0.74990  0.47890  0.91400  1.0000
  N   N20       1.0  0.52110  0.27100  0.91400  1.0000
  N   N21       1.0  0.72900  0.25010  0.91400  1.0000
  N   N22       1.0  0.25010  0.52110  0.08600  1.0000
  N   N23       1.0  0.47890  0.72900  0.08600  1.0000
  N   N24       1.0  0.27100  0.74990  0.08600  1.0000
  N   N25       1.0  0.74390  0.47580  0.86310  1.0000
  N   N26       1.0  0.52420  0.26810  0.86310  1.0000
  N   N27       1.0  0.73190  0.25610  0.86310  1.0000
  N   N28       1.0  0.25610  0.52420  0.13690  1.0000
  N   N29       1.0  0.47580  0.73190  0.13690  1.0000
  N   N30       1.0  0.26810  0.74390  0.13690  1.0000
  N   N31       1.0  0.59720  0.44110  0.70050  1.0000
  N   N32       1.0  0.55890  0.15610  0.70050  1.0000
  N   N33       1.0  0.84390  0.40280  0.70050  1.0000
  N   N34       1.0  0.40280  0.55890  0.29950  1.0000
  N   N35       1.0  0.44110  0.84390  0.29950  1.0000
  N   N36       1.0  0.15610  0.59720  0.29950  1.0000
  O   O1        1.0  0.68830  0.41450  0.18170  1.0000
  O   O2        1.0  0.58550  0.27380  0.18170  1.0000
  O   O3        1.0  0.72620  0.31170  0.18170  1.0000
  O   O4        1.0  0.31170  0.58550  0.81830  1.0000
  O   O5        1.0  0.41450  0.72620  0.81830  1.0000
  O   O6        1.0  0.27380  0.68830  0.81830  1.0000
  O   O7        1.0  0.60210  0.58370  0.15560  1.0000
  O   O8        1.0  0.41630  0.01840  0.15560  1.0000
  O   O9        1.0  0.98160  0.39790  0.15560  1.0000
  O   O10       1.0  0.39790  0.41630  0.84440  1.0000
  O   O11       1.0  0.58370  0.98160  0.84440  1.0000
  O   O12       1.0  0.01840  0.60210  0.84440  1.0000
  O   O13       1.0  0.70300  0.57950  0.19340  1.0000
  O   O14       1.0  0.42050  0.12350  0.19340  1.0000
  O   O15       1.0  0.87650  0.29700  0.19340  1.0000
  O   O16       1.0  0.29700  0.42050  0.80660  1.0000
  O   O17       1.0  0.57950  0.87650  0.80660  1.0000
  O   O18       1.0  0.12350  0.70300  0.80660  1.0000
  O   O19       1.0  0.60610  0.11060  0.15440  1.0000
  O   O20       1.0  0.88940  0.49550  0.15440  1.0000
  O   O21       1.0  0.50450  0.39390  0.15440  1.0000
  O   O22       1.0  0.39390  0.88940  0.84560  1.0000
  O   O23       1.0  0.11060  0.50450  0.84560  1.0000
  O   O24       1.0  0.49550  0.60610  0.84560  1.0000
  O   O25       1.0  0.57980  0.11700  0.23240  1.0000
  O   O26       1.0  0.88300  0.46280  0.23240  1.0000
  O   O27       1.0  0.53720  0.42020  0.23240  1.0000
  O   O28       1.0  0.42020  0.88300  0.76760  1.0000
  O   O29       1.0  0.11700  0.53720  0.76760  1.0000
  O   O30       1.0  0.46280  0.57980  0.76760  1.0000
  O   O31       1.0  0.66590  0.10190  0.64580  1.0000
  O   O32       1.0  0.89810  0.56400  0.64580  1.0000
  O   O33       1.0  0.43600  0.33410  0.64580  1.0000
  O   O34       1.0  0.33410  0.89810  0.35420  1.0000
  O   O35       1.0  0.10190  0.43600  0.35420  1.0000
  O   O36       1.0  0.56400  0.66590  0.35420  1.0000
  O   O37       1.0  0.65140  0.10600  0.56580  1.0000
  O   O38       1.0  0.89400  0.54540  0.56580  1.0000
  O   O39       1.0  0.45460  0.34860  0.56580  1.0000
  O   O40       1.0  0.34860  0.89400  0.43420  1.0000
  O   O41       1.0  0.10600  0.45460  0.43420  1.0000
  O   O42       1.0  0.54540  0.65140  0.43420  1.0000
  O   O43       1.0  0.64360  0.50830  0.59310  1.0000
  O   O44       1.0  0.49170  0.13530  0.59310  1.0000
  O   O45       1.0  0.86470  0.35640  0.59310  1.0000
  O   O46       1.0  0.35640  0.49170  0.40690  1.0000
  O   O47       1.0  0.50830  0.86470  0.40690  1.0000
  O   O48       1.0  0.13530  0.64360  0.40690  1.0000
  O   O49       1.0  0.54850  0.52900  0.62550  1.0000
  O   O50       1.0  0.47100  0.01950  0.62550  1.0000
  O   O51       1.0  0.98050  0.45150  0.62550  1.0000
  O   O52       1.0  0.45150  0.47100  0.37450  1.0000
  O   O53       1.0  0.52900  0.98050  0.37450  1.0000
  O   O54       1.0  0.01950  0.54850  0.37450  1.0000
  O   O55       1.0  0.59120  0.32670  0.61650  1.0000
  O   O56       1.0  0.67330  0.26450  0.61650  1.0000
  O   O57       1.0  0.73550  0.40880  0.61650  1.0000
  O   O58       1.0  0.40880  0.67330  0.38350  1.0000
  O   O59       1.0  0.32670  0.73550  0.38350  1.0000
  O   O60       1.0  0.26450  0.59120  0.38350  1.0000
  O   O61       1.0  0.83160  0.89510  0.58390  1.0000
  O   O62       1.0  0.10490  0.93650  0.58390  1.0000
  O   O63       1.0  0.06350  0.16840  0.58390  1.0000
  O   O64       1.0  0.16840  0.10490  0.41610  1.0000
  O   O65       1.0  0.89510  0.06350  0.41610  1.0000
  O   O66       1.0  0.93650  0.83160  0.41610  1.0000
  O   O67       1.0  0.66670  0.33330  0.55010  1.0000
  O   O68       1.0  0.33330  0.66670  0.44990  1.0000
  O   O69       1.0  0.66670  0.33330  0.25190  1.0000
  O   O70       1.0  0.33330  0.66670  0.74810  1.0000
  O   O71       1.0  0.80020  0.94610  0.24400  1.0000
  O   O72       1.0  0.05390  0.85410  0.24400  1.0000
  O   O73       1.0  0.14590  0.19980  0.24400  1.0000
  O   O74       1.0  0.19980  0.05390  0.75600  1.0000
  O   O75       1.0  0.94610  0.14590  0.75600  1.0000
  O   O76       1.0  0.85410  0.80020  0.75600  1.0000
  S   S1        1.0  0.66670  0.33330  0.59708  1.0000
  S   S2        1.0  0.33330  0.66670  0.40292  1.0000
  S   S3        1.0  0.66670  0.33330  0.19926  1.0000
  S   S4        1.0  0.33330  0.66670  0.80074  1.0000
