data_image0
_chemical_formula_structural       Mn4O24C4H4C8H8
_chemical_formula_sum              "Mn4 O24 C12 H12"
_cell_length_a       8.8464
_cell_length_b       11.8827
_cell_length_c       7.9423
_cell_angle_alpha    90
_cell_angle_beta     90
_cell_angle_gamma    90

_space_group_name_H-M_alt    "P 1"
_space_group_IT_number       1

loop_
  _space_group_symop_operation_xyz
  'x, y, z'

loop_
  _atom_site_type_symbol
  _atom_site_label
  _atom_site_symmetry_multiplicity
  _atom_site_fract_x
  _atom_site_fract_y
  _atom_site_fract_z
  _atom_site_occupancy
  Mn  Mn1       1.0  0.50000  0.00000  0.50000  1.0000
  Mn  Mn2       1.0  0.00000  0.00000  0.00000  1.0000
  Mn  Mn3       1.0  0.00000  0.50000  0.00000  1.0000
  Mn  Mn4       1.0  0.50000  0.50000  0.50000  1.0000
  O   O1        1.0  0.46310  0.15725  0.36340  1.0000
  O   O2        1.0  0.03690  0.84275  0.86340  1.0000
  O   O3        1.0  0.96310  0.34275  0.13660  1.0000
  O   O4        1.0  0.53690  0.65725  0.63660  1.0000
  O   O5        1.0  0.53690  0.84275  0.63660  1.0000
  O   O6        1.0  0.96310  0.15725  0.13660  1.0000
  O   O7        1.0  0.03690  0.65725  0.86340  1.0000
  O   O8        1.0  0.46310  0.34275  0.36340  1.0000
  O   O9        1.0  0.40200  0.06905  0.72990  1.0000
  O   O10       1.0  0.09800  0.93095  0.22990  1.0000
  O   O11       1.0  0.90200  0.43095  0.77010  1.0000
  O   O12       1.0  0.59800  0.56905  0.27010  1.0000
  O   O13       1.0  0.59800  0.93095  0.27010  1.0000
  O   O14       1.0  0.90200  0.06905  0.77010  1.0000
  O   O15       1.0  0.09800  0.56905  0.22990  1.0000
  O   O16       1.0  0.40200  0.43095  0.72990  1.0000
  O   O17       1.0  0.21800  0.06783  0.91870  1.0000
  O   O18       1.0  0.28200  0.93217  0.41870  1.0000
  O   O19       1.0  0.71800  0.43217  0.58130  1.0000
  O   O20       1.0  0.78200  0.56783  0.08130  1.0000
  O   O21       1.0  0.78200  0.93217  0.08130  1.0000
  O   O22       1.0  0.71800  0.06783  0.58130  1.0000
  O   O23       1.0  0.28200  0.56783  0.41870  1.0000
  O   O24       1.0  0.21800  0.43217  0.91870  1.0000
  C   C1        1.0  0.47130  0.25000  0.43380  1.0000
  C   C2        1.0  0.02870  0.75000  0.93380  1.0000
  C   C3        1.0  0.97130  0.25000  0.06620  1.0000
  C   C4        1.0  0.52870  0.75000  0.56620  1.0000
  H   H1        1.0  0.48480  0.25000  0.55000  1.0000
  H   H2        1.0  0.01520  0.75000  0.05000  1.0000
  H   H3        1.0  0.98480  0.25000  0.95000  1.0000
  H   H4        1.0  0.51520  0.75000  0.45000  1.0000
  C   C5        1.0  0.28180  0.03420  0.78850  1.0000
  C   C6        1.0  0.21820  0.96580  0.28850  1.0000
  C   C7        1.0  0.78180  0.46580  0.71150  1.0000
  C   C8        1.0  0.71820  0.53420  0.21150  1.0000
  C   C9        1.0  0.71820  0.96580  0.21150  1.0000
  C   C10       1.0  0.78180  0.03420  0.71150  1.0000
  C   C11       1.0  0.21820  0.53420  0.28850  1.0000
  C   C12       1.0  0.28180  0.46580  0.78850  1.0000
  H   H5        1.0  0.23390  0.97690  0.72930  1.0000
  H   H6        1.0  0.26610  0.02310  0.22930  1.0000
  H   H7        1.0  0.73390  0.52310  0.77070  1.0000
  H   H8        1.0  0.76610  0.47690  0.27070  1.0000
  H   H9        1.0  0.76610  0.02310  0.27070  1.0000
  H   H10       1.0  0.73390  0.97690  0.77070  1.0000
  H   H11       1.0  0.26610  0.47690  0.22930  1.0000
  H   H12       1.0  0.23390  0.52310  0.72930  1.0000
