data_image0
_chemical_formula_structural       Zn4O32C28H4C12H4
_chemical_formula_sum              "Zn4 O32 C40 H8"
_cell_length_a       5.9277
_cell_length_b       24.5218
_cell_length_c       11.9096
_cell_angle_alpha    90
_cell_angle_beta     93.681
_cell_angle_gamma    90

_space_group_name_H-M_alt    "P 1"
_space_group_IT_number       1

loop_
  _space_group_symop_operation_xyz
  'x, y, z'

loop_
  _atom_site_type_symbol
  _atom_site_label
  _atom_site_symmetry_multiplicity
  _atom_site_fract_x
  _atom_site_fract_y
  _atom_site_fract_z
  _atom_site_occupancy
  Zn  Zn1       1.0  0.45101  0.32940  0.98347  1.0000
  Zn  Zn2       1.0  0.95101  0.17060  0.48347  1.0000
  Zn  Zn3       1.0  0.54899  0.67060  0.01653  1.0000
  Zn  Zn4       1.0  0.04899  0.82940  0.51653  1.0000
  O   O1        1.0  0.69410  0.28342  0.05550  1.0000
  O   O2        1.0  0.19410  0.21658  0.55550  1.0000
  O   O3        1.0  0.30590  0.71658  0.94450  1.0000
  O   O4        1.0  0.80590  0.78342  0.44450  1.0000
  O   O5        1.0  0.09260  0.12300  0.37310  1.0000
  O   O6        1.0  0.59260  0.37700  0.87310  1.0000
  O   O7        1.0  0.90740  0.87700  0.62690  1.0000
  O   O8        1.0  0.40740  0.62300  0.12690  1.0000
  O   O9        1.0  0.31760  0.38139  0.08920  1.0000
  O   O10       1.0  0.81760  0.11861  0.58920  1.0000
  O   O11       1.0  0.68240  0.61861  0.91080  1.0000
  O   O12       1.0  0.18240  0.88139  0.41080  1.0000
  O   O13       1.0  0.71840  0.22116  0.41450  1.0000
  O   O14       1.0  0.21840  0.27884  0.91450  1.0000
  O   O15       1.0  0.28160  0.77884  0.58550  1.0000
  O   O16       1.0  0.78160  0.72116  0.08550  1.0000
  O   O17       1.0  0.57930  0.14356  0.34420  1.0000
  O   O18       1.0  0.07930  0.35644  0.84420  1.0000
  O   O19       1.0  0.42070  0.85644  0.65580  1.0000
  O   O20       1.0  0.92070  0.64356  0.15580  1.0000
  O   O21       1.0  0.26030  0.40163  0.26560  1.0000
  O   O22       1.0  0.76030  0.09837  0.76560  1.0000
  O   O23       1.0  0.73970  0.59837  0.73440  1.0000
  O   O24       1.0  0.23970  0.90163  0.23440  1.0000
  O   O25       1.0  0.16170  0.10384  0.19670  1.0000
  O   O26       1.0  0.66170  0.39616  0.69670  1.0000
  O   O27       1.0  0.83830  0.89616  0.80330  1.0000
  O   O28       1.0  0.33830  0.60384  0.30330  1.0000
  O   O29       1.0  0.83250  0.36209  0.12230  1.0000
  O   O30       1.0  0.33250  0.13791  0.62230  1.0000
  O   O31       1.0  0.16750  0.63791  0.87770  1.0000
  O   O32       1.0  0.66750  0.86209  0.37770  1.0000
  C   C1        1.0  0.26980  0.36838  0.18900  1.0000
  C   C2        1.0  0.76980  0.13162  0.68900  1.0000
  C   C3        1.0  0.73020  0.63162  0.81100  1.0000
  C   C4        1.0  0.23020  0.86838  0.31100  1.0000
  C   C5        1.0  0.14720  0.13679  0.27500  1.0000
  C   C6        1.0  0.64720  0.36321  0.77500  1.0000
  C   C7        1.0  0.85280  0.86321  0.72500  1.0000
  C   C8        1.0  0.35280  0.63679  0.22500  1.0000
  C   C9        1.0  0.57270  0.19370  0.35690  1.0000
  C   C10       1.0  0.07270  0.30630  0.85690  1.0000
  C   C11       1.0  0.42730  0.80630  0.64310  1.0000
  C   C12       1.0  0.92730  0.69370  0.14310  1.0000
  C   C13       1.0  0.84220  0.31120  0.11260  1.0000
  C   C14       1.0  0.34220  0.18880  0.61260  1.0000
  C   C15       1.0  0.15780  0.68880  0.88740  1.0000
  C   C16       1.0  0.65780  0.81120  0.38740  1.0000
  C   C17       1.0  0.03640  0.28110  0.17170  1.0000
  C   C18       1.0  0.53640  0.21890  0.67170  1.0000
  C   C19       1.0  0.96360  0.71890  0.82830  1.0000
  C   C20       1.0  0.46360  0.78110  0.32830  1.0000
  C   C21       1.0  0.23130  0.30859  0.21290  1.0000
  C   C22       1.0  0.73130  0.19141  0.71290  1.0000
  C   C23       1.0  0.76870  0.69141  0.78710  1.0000
  C   C24       1.0  0.26870  0.80859  0.28710  1.0000
  C   C25       1.0  0.39880  0.27991  0.27450  1.0000
  C   C26       1.0  0.89880  0.22009  0.77450  1.0000
  C   C27       1.0  0.60120  0.72009  0.72550  1.0000
  C   C28       1.0  0.10120  0.77991  0.22550  1.0000
  H   H1        1.0  0.52730  0.29840  0.30260  1.0000
  H   H2        1.0  0.02730  0.20160  0.80260  1.0000
  H   H3        1.0  0.47270  0.70160  0.69740  1.0000
  H   H4        1.0  0.97270  0.79840  0.19740  1.0000
  C   C29       1.0  0.38060  0.22487  0.29550  1.0000
  C   C30       1.0  0.88060  0.27513  0.79550  1.0000
  C   C31       1.0  0.61940  0.77513  0.70450  1.0000
  C   C32       1.0  0.11940  0.72487  0.20450  1.0000
  C   C33       1.0  0.18560  0.19708  0.25380  1.0000
  C   C34       1.0  0.68560  0.30292  0.75380  1.0000
  C   C35       1.0  0.81440  0.80292  0.74620  1.0000
  C   C36       1.0  0.31440  0.69708  0.24620  1.0000
  C   C37       1.0  0.01690  0.22574  0.19260  1.0000
  C   C38       1.0  0.51690  0.27426  0.69260  1.0000
  C   C39       1.0  0.98310  0.77426  0.80740  1.0000
  C   C40       1.0  0.48310  0.72574  0.30740  1.0000
  H   H5        1.0  0.88790  0.20730  0.16490  1.0000
  H   H6        1.0  0.38790  0.29270  0.66490  1.0000
  H   H7        1.0  0.11210  0.79270  0.83510  1.0000
  H   H8        1.0  0.61210  0.70730  0.33510  1.0000
