data_image0
_chemical_formula_structural       Nd12O112N20C140H124
_chemical_formula_sum              "Nd12 O112 N20 C140 H124"
_cell_length_a       22.205
_cell_length_b       13.774
_cell_length_c       17.783
_cell_angle_alpha    90
_cell_angle_beta     114.55
_cell_angle_gamma    90

_space_group_name_H-M_alt    "P 1"
_space_group_IT_number       1

loop_
  _space_group_symop_operation_xyz
  'x, y, z'

loop_
  _atom_site_type_symbol
  _atom_site_label
  _atom_site_symmetry_multiplicity
  _atom_site_fract_x
  _atom_site_fract_y
  _atom_site_fract_z
  _atom_site_occupancy
  Nd  Nd1       1.0  0.25634  0.18589  0.27559  1.0000
  Nd  Nd2       1.0  0.74366  0.18589  0.22441  1.0000
  Nd  Nd3       1.0  0.75634  0.68589  0.27559  1.0000
  Nd  Nd4       1.0  0.24366  0.68589  0.22441  1.0000
  Nd  Nd5       1.0  0.74366  0.81411  0.72441  1.0000
  Nd  Nd6       1.0  0.25634  0.81411  0.77559  1.0000
  Nd  Nd7       1.0  0.24366  0.31411  0.72441  1.0000
  Nd  Nd8       1.0  0.75634  0.31411  0.77559  1.0000
  Nd  Nd9       1.0  0.00000  0.98201  0.25000  1.0000
  Nd  Nd10      1.0  0.50000  0.48201  0.25000  1.0000
  Nd  Nd11      1.0  0.00000  0.01799  0.75000  1.0000
  Nd  Nd12      1.0  0.50000  0.51799  0.75000  1.0000
  O   O1        1.0  0.24830  0.30820  0.36840  1.0000
  O   O2        1.0  0.75170  0.30820  0.13160  1.0000
  O   O3        1.0  0.74830  0.80820  0.36840  1.0000
  O   O4        1.0  0.25170  0.80820  0.13160  1.0000
  O   O5        1.0  0.75170  0.69180  0.63160  1.0000
  O   O6        1.0  0.24830  0.69180  0.86840  1.0000
  O   O7        1.0  0.25170  0.19180  0.63160  1.0000
  O   O8        1.0  0.74830  0.19180  0.86840  1.0000
  O   O9        1.0  0.27260  0.37560  0.49030  1.0000
  O   O10       1.0  0.72740  0.37560  0.00970  1.0000
  O   O11       1.0  0.77260  0.87560  0.49030  1.0000
  O   O12       1.0  0.22740  0.87560  0.00970  1.0000
  O   O13       1.0  0.72740  0.62440  0.50970  1.0000
  O   O14       1.0  0.27260  0.62440  0.99030  1.0000
  O   O15       1.0  0.22740  0.12440  0.50970  1.0000
  O   O16       1.0  0.77260  0.12440  0.99030  1.0000
  O   O17       1.0  0.33590  0.05250  0.31400  1.0000
  O   O18       1.0  0.66410  0.05250  0.18600  1.0000
  O   O19       1.0  0.83590  0.55250  0.31400  1.0000
  O   O20       1.0  0.16410  0.55250  0.18600  1.0000
  O   O21       1.0  0.66410  0.94750  0.68600  1.0000
  O   O22       1.0  0.33590  0.94750  0.81400  1.0000
  O   O23       1.0  0.16410  0.44750  0.68600  1.0000
  O   O24       1.0  0.83590  0.44750  0.81400  1.0000
  O   O25       1.0  0.41040  0.95880  0.40480  1.0000
  O   O26       1.0  0.58960  0.95880  0.09520  1.0000
  O   O27       1.0  0.91040  0.45880  0.40480  1.0000
  O   O28       1.0  0.08960  0.45880  0.09520  1.0000
  O   O29       1.0  0.58960  0.04120  0.59520  1.0000
  O   O30       1.0  0.41040  0.04120  0.90480  1.0000
  O   O31       1.0  0.08960  0.54120  0.59520  1.0000
  O   O32       1.0  0.91040  0.54120  0.90480  1.0000
  O   O33       1.0  0.08210  0.11120  0.27020  1.0000
  O   O34       1.0  0.91790  0.11120  0.22980  1.0000
  O   O35       1.0  0.58210  0.61120  0.27020  1.0000
  O   O36       1.0  0.41790  0.61120  0.22980  1.0000
  O   O37       1.0  0.91790  0.88880  0.72980  1.0000
  O   O38       1.0  0.08210  0.88880  0.77020  1.0000
  O   O39       1.0  0.41790  0.38880  0.72980  1.0000
  O   O40       1.0  0.58210  0.38880  0.77020  1.0000
  O   O41       1.0  0.13710  0.21330  0.22520  1.0000
  O   O42       1.0  0.86290  0.21330  0.27480  1.0000
  O   O43       1.0  0.63710  0.71330  0.22520  1.0000
  O   O44       1.0  0.36290  0.71330  0.27480  1.0000
  O   O45       1.0  0.86290  0.78670  0.77480  1.0000
  O   O46       1.0  0.13710  0.78670  0.72520  1.0000
  O   O47       1.0  0.36290  0.28670  0.77480  1.0000
  O   O48       1.0  0.63710  0.28670  0.72520  1.0000
  O   O49       1.0  0.91120  0.93710  0.11190  1.0000
  O   O50       1.0  0.08880  0.93710  0.38810  1.0000
  O   O51       1.0  0.41120  0.43710  0.11190  1.0000
  O   O52       1.0  0.58880  0.43710  0.38810  1.0000
  O   O53       1.0  0.08880  0.06290  0.88810  1.0000
  O   O54       1.0  0.91120  0.06290  0.61190  1.0000
  O   O55       1.0  0.58880  0.56290  0.88810  1.0000
  O   O56       1.0  0.41120  0.56290  0.61190  1.0000
  O   O57       1.0  0.85830  0.94770  0.97490  1.0000
  O   O58       1.0  0.14170  0.94770  0.52510  1.0000
  O   O59       1.0  0.35830  0.44770  0.97490  1.0000
  O   O60       1.0  0.64170  0.44770  0.52510  1.0000
  O   O61       1.0  0.14170  0.05230  0.02510  1.0000
  O   O62       1.0  0.85830  0.05230  0.47490  1.0000
  O   O63       1.0  0.64170  0.55230  0.02510  1.0000
  O   O64       1.0  0.35830  0.55230  0.47490  1.0000
  O   O65       1.0  0.08880  0.90100  0.22210  1.0000
  O   O66       1.0  0.91120  0.90100  0.27790  1.0000
  O   O67       1.0  0.58880  0.40100  0.22210  1.0000
  O   O68       1.0  0.41120  0.40100  0.27790  1.0000
  O   O69       1.0  0.91120  0.09900  0.77790  1.0000
  O   O70       1.0  0.08880  0.09900  0.72210  1.0000
  O   O71       1.0  0.41120  0.59900  0.77790  1.0000
  O   O72       1.0  0.58880  0.59900  0.72210  1.0000
  O   O73       1.0  0.85680  0.76890  0.28600  1.0000
  O   O74       1.0  0.14320  0.76890  0.21400  1.0000
  O   O75       1.0  0.35680  0.26890  0.28600  1.0000
  O   O76       1.0  0.64320  0.26890  0.21400  1.0000
  O   O77       1.0  0.14320  0.23110  0.71400  1.0000
  O   O78       1.0  0.85680  0.23110  0.78600  1.0000
  O   O79       1.0  0.64320  0.73110  0.71400  1.0000
  O   O80       1.0  0.35680  0.73110  0.78600  1.0000
  O   O81       1.0  0.21600  0.07450  0.35840  1.0000
  O   O82       1.0  0.78400  0.07450  0.14160  1.0000
  O   O83       1.0  0.71600  0.57450  0.35840  1.0000
  O   O84       1.0  0.28400  0.57450  0.14160  1.0000
  O   O85       1.0  0.78400  0.92550  0.64160  1.0000
  O   O86       1.0  0.21600  0.92550  0.85840  1.0000
  O   O87       1.0  0.28400  0.42550  0.64160  1.0000
  O   O88       1.0  0.71600  0.42550  0.85840  1.0000
  O   O89       1.0  0.19400  0.03100  0.19480  1.0000
  O   O90       1.0  0.80600  0.03100  0.30520  1.0000
  O   O91       1.0  0.69400  0.53100  0.19480  1.0000
  O   O92       1.0  0.30600  0.53100  0.30520  1.0000
  O   O93       1.0  0.80600  0.96900  0.80520  1.0000
  O   O94       1.0  0.19400  0.96900  0.69480  1.0000
  O   O95       1.0  0.30600  0.46900  0.80520  1.0000
  O   O96       1.0  0.69400  0.46900  0.69480  1.0000
  O   O97       1.0  0.25810  0.17030  0.13720  1.0000
  O   O98       1.0  0.74190  0.17030  0.36280  1.0000
  O   O99       1.0  0.75810  0.67030  0.13720  1.0000
  O   O100      1.0  0.24190  0.67030  0.36280  1.0000
  O   O101      1.0  0.74190  0.82970  0.86280  1.0000
  O   O102      1.0  0.25810  0.82970  0.63720  1.0000
  O   O103      1.0  0.24190  0.32970  0.86280  1.0000
  O   O104      1.0  0.75810  0.32970  0.63720  1.0000
  O   O105      1.0  0.22500  0.34720  0.19780  1.0000
  O   O106      1.0  0.77500  0.34720  0.30220  1.0000
  O   O107      1.0  0.72500  0.84720  0.19780  1.0000
  O   O108      1.0  0.27500  0.84720  0.30220  1.0000
  O   O109      1.0  0.77500  0.65280  0.80220  1.0000
  O   O110      1.0  0.22500  0.65280  0.69780  1.0000
  O   O111      1.0  0.27500  0.15280  0.80220  1.0000
  O   O112      1.0  0.72500  0.15280  0.69780  1.0000
  N   N1        1.0  0.33830  0.17520  0.42620  1.0000
  N   N2        1.0  0.66170  0.17520  0.07380  1.0000
  N   N3        1.0  0.83830  0.67520  0.42620  1.0000
  N   N4        1.0  0.16170  0.67520  0.07380  1.0000
  N   N5        1.0  0.66170  0.82480  0.57380  1.0000
  N   N6        1.0  0.33830  0.82480  0.92620  1.0000
  N   N7        1.0  0.16170  0.32480  0.57380  1.0000
  N   N8        1.0  0.83830  0.32480  0.92620  1.0000
  N   N9        1.0  0.99450  0.07390  0.11980  1.0000
  N   N10       1.0  0.00550  0.07390  0.38020  1.0000
  N   N11       1.0  0.49450  0.57390  0.11980  1.0000
  N   N12       1.0  0.50550  0.57390  0.38020  1.0000
  N   N13       1.0  0.00550  0.92610  0.88020  1.0000
  N   N14       1.0  0.99450  0.92610  0.61980  1.0000
  N   N15       1.0  0.50550  0.42610  0.88020  1.0000
  N   N16       1.0  0.49450  0.42610  0.61980  1.0000
  N   N17       1.0  0.00000  0.79870  0.25000  1.0000
  N   N18       1.0  0.50000  0.29870  0.25000  1.0000
  N   N19       1.0  0.00000  0.20130  0.75000  1.0000
  N   N20       1.0  0.50000  0.70130  0.75000  1.0000
  C   C1        1.0  0.33530  0.24160  0.48180  1.0000
  C   C2        1.0  0.66470  0.24160  0.01820  1.0000
  C   C3        1.0  0.83530  0.74160  0.48180  1.0000
  C   C4        1.0  0.16470  0.74160  0.01820  1.0000
  C   C5        1.0  0.66470  0.75840  0.51820  1.0000
  C   C6        1.0  0.33530  0.75840  0.98180  1.0000
  C   C7        1.0  0.16470  0.25840  0.51820  1.0000
  C   C8        1.0  0.83530  0.25840  0.98180  1.0000
  C   C9        1.0  0.37920  0.23590  0.56480  1.0000
  C   C10       1.0  0.62080  0.23590  0.93520  1.0000
  C   C11       1.0  0.87920  0.73590  0.56480  1.0000
  C   C12       1.0  0.12080  0.73590  0.93520  1.0000
  C   C13       1.0  0.62080  0.76410  0.43520  1.0000
  C   C14       1.0  0.37920  0.76410  0.06480  1.0000
  C   C15       1.0  0.12080  0.26410  0.43520  1.0000
  C   C16       1.0  0.87920  0.26410  0.06480  1.0000
  C   C17       1.0  0.42590  0.16590  0.58940  1.0000
  C   C18       1.0  0.57410  0.16590  0.91060  1.0000
  C   C19       1.0  0.92590  0.66590  0.58940  1.0000
  C   C20       1.0  0.07410  0.66590  0.91060  1.0000
  C   C21       1.0  0.57410  0.83410  0.41060  1.0000
  C   C22       1.0  0.42590  0.83410  0.08940  1.0000
  C   C23       1.0  0.07410  0.33410  0.41060  1.0000
  C   C24       1.0  0.92590  0.33410  0.08940  1.0000
  C   C25       1.0  0.42900  0.09670  0.53420  1.0000
  C   C26       1.0  0.57100  0.09670  0.96580  1.0000
  C   C27       1.0  0.92900  0.59670  0.53420  1.0000
  C   C28       1.0  0.07100  0.59670  0.96580  1.0000
  C   C29       1.0  0.57100  0.90330  0.46580  1.0000
  C   C30       1.0  0.42900  0.90330  0.03420  1.0000
  C   C31       1.0  0.07100  0.40330  0.46580  1.0000
  C   C32       1.0  0.92900  0.40330  0.03420  1.0000
  C   C33       1.0  0.38240  0.10450  0.45190  1.0000
  C   C34       1.0  0.61760  0.10450  0.04810  1.0000
  C   C35       1.0  0.88240  0.60450  0.45190  1.0000
  C   C36       1.0  0.11760  0.60450  0.04810  1.0000
  C   C37       1.0  0.61760  0.89550  0.54810  1.0000
  C   C38       1.0  0.38240  0.89550  0.95190  1.0000
  C   C39       1.0  0.11760  0.39550  0.54810  1.0000
  C   C40       1.0  0.88240  0.39550  0.95190  1.0000
  C   C41       1.0  0.28160  0.31370  0.44400  1.0000
  C   C42       1.0  0.71840  0.31370  0.05600  1.0000
  C   C43       1.0  0.78160  0.81370  0.44400  1.0000
  C   C44       1.0  0.21840  0.81370  0.05600  1.0000
  C   C45       1.0  0.71840  0.68630  0.55600  1.0000
  C   C46       1.0  0.28160  0.68630  0.94400  1.0000
  C   C47       1.0  0.21840  0.18630  0.55600  1.0000
  C   C48       1.0  0.78160  0.18630  0.94400  1.0000
  C   C49       1.0  0.37650  0.03270  0.38520  1.0000
  C   C50       1.0  0.62350  0.03270  0.11480  1.0000
  C   C51       1.0  0.87650  0.53270  0.38520  1.0000
  C   C52       1.0  0.12350  0.53270  0.11480  1.0000
  C   C53       1.0  0.62350  0.96730  0.61480  1.0000
  C   C54       1.0  0.37650  0.96730  0.88520  1.0000
  C   C55       1.0  0.12350  0.46730  0.61480  1.0000
  C   C56       1.0  0.87650  0.46730  0.88520  1.0000
  C   C57       1.0  0.03900  0.14220  0.12750  1.0000
  C   C58       1.0  0.96100  0.14220  0.37250  1.0000
  C   C59       1.0  0.53900  0.64220  0.12750  1.0000
  C   C60       1.0  0.46100  0.64220  0.37250  1.0000
  C   C61       1.0  0.96100  0.85780  0.87250  1.0000
  C   C62       1.0  0.03900  0.85780  0.62750  1.0000
  C   C63       1.0  0.46100  0.35780  0.87250  1.0000
  C   C64       1.0  0.53900  0.35780  0.62750  1.0000
  C   C65       1.0  0.03870  0.19560  0.06140  1.0000
  C   C66       1.0  0.96130  0.19560  0.43860  1.0000
  C   C67       1.0  0.53870  0.69560  0.06140  1.0000
  C   C68       1.0  0.46130  0.69560  0.43860  1.0000
  C   C69       1.0  0.96130  0.80440  0.93860  1.0000
  C   C70       1.0  0.03870  0.80440  0.56140  1.0000
  C   C71       1.0  0.46130  0.30440  0.93860  1.0000
  C   C72       1.0  0.53870  0.30440  0.56140  1.0000
  C   C73       1.0  0.99010  0.17480  0.98420  1.0000
  C   C74       1.0  0.00990  0.17480  0.51580  1.0000
  C   C75       1.0  0.49010  0.67480  0.98420  1.0000
  C   C76       1.0  0.50990  0.67480  0.51580  1.0000
  C   C77       1.0  0.00990  0.82520  0.01580  1.0000
  C   C78       1.0  0.99010  0.82520  0.48420  1.0000
  C   C79       1.0  0.50990  0.32520  0.01580  1.0000
  C   C80       1.0  0.49010  0.32520  0.48420  1.0000
  C   C81       1.0  0.94450  0.10400  0.97500  1.0000
  C   C82       1.0  0.05550  0.10400  0.52500  1.0000
  C   C83       1.0  0.44450  0.60400  0.97500  1.0000
  C   C84       1.0  0.55550  0.60400  0.52500  1.0000
  C   C85       1.0  0.05550  0.89600  0.02500  1.0000
  C   C86       1.0  0.94450  0.89600  0.47500  1.0000
  C   C87       1.0  0.55550  0.39600  0.02500  1.0000
  C   C88       1.0  0.44450  0.39600  0.47500  1.0000
  C   C89       1.0  0.94810  0.05480  0.04470  1.0000
  C   C90       1.0  0.05190  0.05480  0.45530  1.0000
  C   C91       1.0  0.44810  0.55480  0.04470  1.0000
  C   C92       1.0  0.55190  0.55480  0.45530  1.0000
  C   C93       1.0  0.05190  0.94520  0.95530  1.0000
  C   C94       1.0  0.94810  0.94520  0.54470  1.0000
  C   C95       1.0  0.55190  0.44520  0.95530  1.0000
  C   C96       1.0  0.44810  0.44520  0.54470  1.0000
  C   C97       1.0  0.09000  0.15780  0.21510  1.0000
  C   C98       1.0  0.91000  0.15780  0.28490  1.0000
  C   C99       1.0  0.59000  0.65780  0.21510  1.0000
  C   C100      1.0  0.41000  0.65780  0.28490  1.0000
  C   C101      1.0  0.91000  0.84220  0.78490  1.0000
  C   C102      1.0  0.09000  0.84220  0.71510  1.0000
  C   C103      1.0  0.41000  0.34220  0.78490  1.0000
  C   C104      1.0  0.59000  0.34220  0.71510  1.0000
  C   C105      1.0  0.90140  0.97380  0.04200  1.0000
  C   C106      1.0  0.09860  0.97380  0.45800  1.0000
  C   C107      1.0  0.40140  0.47380  0.04200  1.0000
  C   C108      1.0  0.59860  0.47380  0.45800  1.0000
  C   C109      1.0  0.09860  0.02620  0.95800  1.0000
  C   C110      1.0  0.90140  0.02620  0.54200  1.0000
  C   C111      1.0  0.59860  0.52620  0.95800  1.0000
  C   C112      1.0  0.40140  0.52620  0.54200  1.0000
  C   C113      1.0  0.04740  0.74800  0.23850  1.0000
  C   C114      1.0  0.95260  0.74800  0.26150  1.0000
  C   C115      1.0  0.54740  0.24800  0.23850  1.0000
  C   C116      1.0  0.45260  0.24800  0.26150  1.0000
  C   C117      1.0  0.95260  0.25200  0.76150  1.0000
  C   C118      1.0  0.04740  0.25200  0.73850  1.0000
  C   C119      1.0  0.45260  0.75200  0.76150  1.0000
  C   C120      1.0  0.54740  0.75200  0.73850  1.0000
  C   C121      1.0  0.04900  0.64860  0.23870  1.0000
  C   C122      1.0  0.95100  0.64860  0.26130  1.0000
  C   C123      1.0  0.54900  0.14860  0.23870  1.0000
  C   C124      1.0  0.45100  0.14860  0.26130  1.0000
  C   C125      1.0  0.95100  0.35140  0.76130  1.0000
  C   C126      1.0  0.04900  0.35140  0.73870  1.0000
  C   C127      1.0  0.45100  0.85140  0.76130  1.0000
  C   C128      1.0  0.54900  0.85140  0.73870  1.0000
  C   C129      1.0  0.00000  0.59510  0.25000  1.0000
  C   C130      1.0  0.50000  0.09510  0.25000  1.0000
  C   C131      1.0  0.00000  0.40490  0.75000  1.0000
  C   C132      1.0  0.50000  0.90490  0.75000  1.0000
  C   C133      1.0  0.09830  0.81140  0.22540  1.0000
  C   C134      1.0  0.90170  0.81140  0.27460  1.0000
  C   C135      1.0  0.59830  0.31140  0.22540  1.0000
  C   C136      1.0  0.40170  0.31140  0.27460  1.0000
  C   C137      1.0  0.90170  0.18860  0.77460  1.0000
  C   C138      1.0  0.09830  0.18860  0.72540  1.0000
  C   C139      1.0  0.40170  0.68860  0.77460  1.0000
  C   C140      1.0  0.59830  0.68860  0.72540  1.0000
  H   H1        1.0  0.16600  0.09130  0.33150  1.0000
  H   H2        1.0  0.83400  0.09130  0.16850  1.0000
  H   H3        1.0  0.66600  0.59130  0.33150  1.0000
  H   H4        1.0  0.33400  0.59130  0.16850  1.0000
  H   H5        1.0  0.83400  0.90870  0.66850  1.0000
  H   H6        1.0  0.16600  0.90870  0.83150  1.0000
  H   H7        1.0  0.33400  0.40870  0.66850  1.0000
  H   H8        1.0  0.66600  0.40870  0.83150  1.0000
  H   H9        1.0  0.22380  0.09820  0.41210  1.0000
  H   H10       1.0  0.77620  0.09820  0.08790  1.0000
  H   H11       1.0  0.72380  0.59820  0.41210  1.0000
  H   H12       1.0  0.27620  0.59820  0.08790  1.0000
  H   H13       1.0  0.77620  0.90180  0.58790  1.0000
  H   H14       1.0  0.22380  0.90180  0.91210  1.0000
  H   H15       1.0  0.27620  0.40180  0.58790  1.0000
  H   H16       1.0  0.72380  0.40180  0.91210  1.0000
  H   H17       1.0  0.18330  0.03470  0.14140  1.0000
  H   H18       1.0  0.81670  0.03470  0.35860  1.0000
  H   H19       1.0  0.68330  0.53470  0.14140  1.0000
  H   H20       1.0  0.31670  0.53470  0.35860  1.0000
  H   H21       1.0  0.81670  0.96530  0.85860  1.0000
  H   H22       1.0  0.18330  0.96530  0.64140  1.0000
  H   H23       1.0  0.31670  0.46530  0.85860  1.0000
  H   H24       1.0  0.68330  0.46530  0.64140  1.0000
  H   H25       1.0  0.14540  0.99360  0.18140  1.0000
  H   H26       1.0  0.85460  0.99360  0.31860  1.0000
  H   H27       1.0  0.64540  0.49360  0.18140  1.0000
  H   H28       1.0  0.35460  0.49360  0.31860  1.0000
  H   H29       1.0  0.85460  0.00640  0.81860  1.0000
  H   H30       1.0  0.14540  0.00640  0.68140  1.0000
  H   H31       1.0  0.35460  0.50640  0.81860  1.0000
  H   H32       1.0  0.64540  0.50640  0.68140  1.0000
  H   H33       1.0  0.24110  0.19590  0.09160  1.0000
  H   H34       1.0  0.75890  0.19590  0.40840  1.0000
  H   H35       1.0  0.74110  0.69590  0.09160  1.0000
  H   H36       1.0  0.25890  0.69590  0.40840  1.0000
  H   H37       1.0  0.75890  0.80410  0.90840  1.0000
  H   H38       1.0  0.24110  0.80410  0.59160  1.0000
  H   H39       1.0  0.25890  0.30410  0.90840  1.0000
  H   H40       1.0  0.74110  0.30410  0.59160  1.0000
  H   H41       1.0  0.24730  0.11040  0.12590  1.0000
  H   H42       1.0  0.75270  0.11040  0.37410  1.0000
  H   H43       1.0  0.74730  0.61040  0.12590  1.0000
  H   H44       1.0  0.25270  0.61040  0.37410  1.0000
  H   H45       1.0  0.75270  0.88960  0.87410  1.0000
  H   H46       1.0  0.24730  0.88960  0.62590  1.0000
  H   H47       1.0  0.25270  0.38960  0.87410  1.0000
  H   H48       1.0  0.74730  0.38960  0.62590  1.0000
  H   H49       1.0  0.23100  0.40640  0.21160  1.0000
  H   H50       1.0  0.76900  0.40640  0.28840  1.0000
  H   H51       1.0  0.73100  0.90640  0.21160  1.0000
  H   H52       1.0  0.26900  0.90640  0.28840  1.0000
  H   H53       1.0  0.76900  0.59360  0.78840  1.0000
  H   H54       1.0  0.23100  0.59360  0.71160  1.0000
  H   H55       1.0  0.26900  0.09360  0.78840  1.0000
  H   H56       1.0  0.73100  0.09360  0.71160  1.0000
  H   H57       1.0  0.18600  0.36110  0.16190  1.0000
  H   H58       1.0  0.81400  0.36110  0.33810  1.0000
  H   H59       1.0  0.68600  0.86110  0.16190  1.0000
  H   H60       1.0  0.31400  0.86110  0.33810  1.0000
  H   H61       1.0  0.81400  0.63890  0.83810  1.0000
  H   H62       1.0  0.18600  0.63890  0.66190  1.0000
  H   H63       1.0  0.31400  0.13890  0.83810  1.0000
  H   H64       1.0  0.68600  0.13890  0.66190  1.0000
  H   H65       1.0  0.37640  0.27990  0.60290  1.0000
  H   H66       1.0  0.62360  0.27990  0.89710  1.0000
  H   H67       1.0  0.87640  0.77990  0.60290  1.0000
  H   H68       1.0  0.12360  0.77990  0.89710  1.0000
  H   H69       1.0  0.62360  0.72010  0.39710  1.0000
  H   H70       1.0  0.37640  0.72010  0.10290  1.0000
  H   H71       1.0  0.12360  0.22010  0.39710  1.0000
  H   H72       1.0  0.87640  0.22010  0.10290  1.0000
  H   H73       1.0  0.45650  0.16380  0.64430  1.0000
  H   H74       1.0  0.54350  0.16380  0.85570  1.0000
  H   H75       1.0  0.95650  0.66380  0.64430  1.0000
  H   H76       1.0  0.04350  0.66380  0.85570  1.0000
  H   H77       1.0  0.54350  0.83620  0.35570  1.0000
  H   H78       1.0  0.45650  0.83620  0.14430  1.0000
  H   H79       1.0  0.04350  0.33620  0.35570  1.0000
  H   H80       1.0  0.95650  0.33620  0.14430  1.0000
  H   H81       1.0  0.46060  0.04760  0.55110  1.0000
  H   H82       1.0  0.53940  0.04760  0.94890  1.0000
  H   H83       1.0  0.96060  0.54760  0.55110  1.0000
  H   H84       1.0  0.03940  0.54760  0.94890  1.0000
  H   H85       1.0  0.53940  0.95240  0.44890  1.0000
  H   H86       1.0  0.46060  0.95240  0.05110  1.0000
  H   H87       1.0  0.03940  0.45240  0.44890  1.0000
  H   H88       1.0  0.96060  0.45240  0.05110  1.0000
  H   H89       1.0  0.07010  0.24370  0.06880  1.0000
  H   H90       1.0  0.92990  0.24370  0.43120  1.0000
  H   H91       1.0  0.57010  0.74370  0.06880  1.0000
  H   H92       1.0  0.42990  0.74370  0.43120  1.0000
  H   H93       1.0  0.92990  0.75630  0.93120  1.0000
  H   H94       1.0  0.07010  0.75630  0.56880  1.0000
  H   H95       1.0  0.42990  0.25630  0.93120  1.0000
  H   H96       1.0  0.57010  0.25630  0.56880  1.0000
  H   H97       1.0  0.98840  0.20900  0.93830  1.0000
  H   H98       1.0  0.01160  0.20900  0.56170  1.0000
  H   H99       1.0  0.48840  0.70900  0.93830  1.0000
  H   H100      1.0  0.51160  0.70900  0.56170  1.0000
  H   H101      1.0  0.01160  0.79100  0.06170  1.0000
  H   H102      1.0  0.98840  0.79100  0.43830  1.0000
  H   H103      1.0  0.51160  0.29100  0.06170  1.0000
  H   H104      1.0  0.48840  0.29100  0.43830  1.0000
  H   H105      1.0  0.91190  0.08900  0.92310  1.0000
  H   H106      1.0  0.08810  0.08900  0.57690  1.0000
  H   H107      1.0  0.41190  0.58900  0.92310  1.0000
  H   H108      1.0  0.58810  0.58900  0.57690  1.0000
  H   H109      1.0  0.08810  0.91100  0.07690  1.0000
  H   H110      1.0  0.91190  0.91100  0.42310  1.0000
  H   H111      1.0  0.58810  0.41100  0.07690  1.0000
  H   H112      1.0  0.41190  0.41100  0.42310  1.0000
  H   H113      1.0  0.08300  0.61660  0.23120  1.0000
  H   H114      1.0  0.91700  0.61660  0.26880  1.0000
  H   H115      1.0  0.58300  0.11660  0.23120  1.0000
  H   H116      1.0  0.41700  0.11660  0.26880  1.0000
  H   H117      1.0  0.91700  0.38340  0.76880  1.0000
  H   H118      1.0  0.08300  0.38340  0.73120  1.0000
  H   H119      1.0  0.41700  0.88340  0.76880  1.0000
  H   H120      1.0  0.58300  0.88340  0.73120  1.0000
  H   H121      1.0  0.00000  0.52810  0.25000  1.0000
  H   H122      1.0  0.50000  0.02810  0.25000  1.0000
  H   H123      1.0  0.00000  0.47190  0.75000  1.0000
  H   H124      1.0  0.50000  0.97190  0.75000  1.0000
