data_image0
_chemical_formula_structural       Al8P8O24C8H16F24
_chemical_formula_sum              "Al8 P8 O24 C8 H16 F24"
_cell_length_a       16.9697
_cell_length_b       8.0273
_cell_length_c       16.3797
_cell_angle_alpha    90
_cell_angle_beta     117.762
_cell_angle_gamma    90

_space_group_name_H-M_alt    "P 1"
_space_group_IT_number       1

loop_
  _space_group_symop_operation_xyz
  'x, y, z'

loop_
  _atom_site_type_symbol
  _atom_site_label
  _atom_site_symmetry_multiplicity
  _atom_site_fract_x
  _atom_site_fract_y
  _atom_site_fract_z
  _atom_site_occupancy
  Al  Al1       1.0  0.17208  0.28123  0.91239  1.0000
  Al  Al2       1.0  0.67208  0.78123  0.91239  1.0000
  Al  Al3       1.0  0.17208  0.71877  0.41239  1.0000
  Al  Al4       1.0  0.67208  0.21877  0.41239  1.0000
  Al  Al5       1.0  0.82792  0.71877  0.08761  1.0000
  Al  Al6       1.0  0.32792  0.21877  0.08761  1.0000
  Al  Al7       1.0  0.82792  0.28123  0.58761  1.0000
  Al  Al8       1.0  0.32792  0.78123  0.58761  1.0000
  P   P1        1.0  0.22021  0.53834  0.06690  1.0000
  P   P2        1.0  0.72021  0.03834  0.06690  1.0000
  P   P3        1.0  0.22021  0.46166  0.56690  1.0000
  P   P4        1.0  0.72021  0.96166  0.56690  1.0000
  P   P5        1.0  0.77979  0.46166  0.93310  1.0000
  P   P6        1.0  0.27979  0.96166  0.93310  1.0000
  P   P7        1.0  0.77979  0.53834  0.43310  1.0000
  P   P8        1.0  0.27979  0.03834  0.43310  1.0000
  O   O1        1.0  0.15123  0.45970  0.97677  1.0000
  O   O2        1.0  0.65123  0.95970  0.97677  1.0000
  O   O3        1.0  0.15123  0.54030  0.47677  1.0000
  O   O4        1.0  0.65123  0.04030  0.47677  1.0000
  O   O5        1.0  0.84877  0.54030  0.02323  1.0000
  O   O6        1.0  0.34877  0.04030  0.02323  1.0000
  O   O7        1.0  0.84877  0.45970  0.52323  1.0000
  O   O8        1.0  0.34877  0.95970  0.52323  1.0000
  O   O9        1.0  0.28867  0.40910  0.13013  1.0000
  O   O10       1.0  0.78867  0.90910  0.13013  1.0000
  O   O11       1.0  0.28867  0.59090  0.63013  1.0000
  O   O12       1.0  0.78867  0.09090  0.63013  1.0000
  O   O13       1.0  0.71133  0.59090  0.86987  1.0000
  O   O14       1.0  0.21133  0.09090  0.86987  1.0000
  O   O15       1.0  0.71133  0.40910  0.36987  1.0000
  O   O16       1.0  0.21133  0.90910  0.36987  1.0000
  O   O17       1.0  0.17532  0.62460  0.11707  1.0000
  O   O18       1.0  0.67532  0.12460  0.11707  1.0000
  O   O19       1.0  0.17532  0.37540  0.61707  1.0000
  O   O20       1.0  0.67532  0.87540  0.61707  1.0000
  O   O21       1.0  0.82468  0.37540  0.88293  1.0000
  O   O22       1.0  0.32468  0.87540  0.88293  1.0000
  O   O23       1.0  0.82468  0.62460  0.38293  1.0000
  O   O24       1.0  0.32468  0.12460  0.38293  1.0000
  C   C1        1.0  0.28071  0.69220  0.03922  1.0000
  C   C2        1.0  0.78071  0.19220  0.03922  1.0000
  C   C3        1.0  0.28071  0.30780  0.53922  1.0000
  C   C4        1.0  0.78071  0.80780  0.53922  1.0000
  C   C5        1.0  0.71929  0.30780  0.96078  1.0000
  C   C6        1.0  0.21929  0.80780  0.96078  1.0000
  C   C7        1.0  0.71929  0.69220  0.46078  1.0000
  C   C8        1.0  0.21929  0.19220  0.46078  1.0000
  H   H1        1.0  0.32120  0.63660  0.02150  1.0000
  H   H2        1.0  0.82120  0.13660  0.02150  1.0000
  H   H3        1.0  0.32120  0.36340  0.52150  1.0000
  H   H4        1.0  0.82120  0.86340  0.52150  1.0000
  H   H5        1.0  0.67880  0.36340  0.97850  1.0000
  H   H6        1.0  0.17880  0.86340  0.97850  1.0000
  H   H7        1.0  0.67880  0.63660  0.47850  1.0000
  H   H8        1.0  0.17880  0.13660  0.47850  1.0000
  H   H9        1.0  0.31610  0.75840  0.09370  1.0000
  H   H10       1.0  0.81610  0.25840  0.09370  1.0000
  H   H11       1.0  0.31610  0.24160  0.59370  1.0000
  H   H12       1.0  0.81610  0.74160  0.59370  1.0000
  H   H13       1.0  0.68390  0.24160  0.90630  1.0000
  H   H14       1.0  0.18390  0.74160  0.90630  1.0000
  H   H15       1.0  0.68390  0.75840  0.40630  1.0000
  H   H16       1.0  0.18390  0.25840  0.40630  1.0000
  F   F1        1.0  0.29237  0.33941  0.97713  1.0000
  F   F2        1.0  0.79237  0.83941  0.97713  1.0000
  F   F3        1.0  0.29237  0.66059  0.47713  1.0000
  F   F4        1.0  0.79237  0.16059  0.47713  1.0000
  F   F5        1.0  0.70763  0.66059  0.02287  1.0000
  F   F6        1.0  0.20763  0.16059  0.02287  1.0000
  F   F7        1.0  0.70763  0.33941  0.52287  1.0000
  F   F8        1.0  0.20763  0.83941  0.52287  1.0000
  F   F9        1.0  0.15922  0.40690  0.81881  1.0000
  F   F10       1.0  0.65922  0.90690  0.81881  1.0000
  F   F11       1.0  0.15922  0.59310  0.31881  1.0000
  F   F12       1.0  0.65922  0.09310  0.31881  1.0000
  F   F13       1.0  0.84078  0.59310  0.18119  1.0000
  F   F14       1.0  0.34078  0.09310  0.18119  1.0000
  F   F15       1.0  0.84078  0.40690  0.68119  1.0000
  F   F16       1.0  0.34078  0.90690  0.68119  1.0000
  F   F17       1.0  0.06272  0.21690  0.86847  1.0000
  F   F18       1.0  0.56272  0.71690  0.86847  1.0000
  F   F19       1.0  0.06272  0.78310  0.36847  1.0000
  F   F20       1.0  0.56272  0.28310  0.36847  1.0000
  F   F21       1.0  0.93728  0.78310  0.13153  1.0000
  F   F22       1.0  0.43728  0.28310  0.13153  1.0000
  F   F23       1.0  0.93728  0.21690  0.63153  1.0000
  F   F24       1.0  0.43728  0.71690  0.63153  1.0000
