data_image0
_chemical_formula_structural       Ru8N32C8H4C4H4C16H4C4H4C16H4C4H4C16H4C4H4C12H12C4H12C4H12C4H12C4H12C4H12C4H12C4H12C8H4C4H4C16H4C4H4C16H4C4H4C16H4C4H4C12H12C4H12C4H12C4H12C4H12C4H12C4H12C4H12C8H4C4H4C4Na8O12C4H12C4H8C4H8C4H12C4H8C4H8Na4O8C4H8C4H8C4H8C4H8C4H8C4H8
_chemical_formula_sum              "Ru8 N32 C288 H368 Na12 O20"
_cell_length_a       18.547
_cell_length_b       26.947
_cell_length_c       21.668
_cell_angle_alpha    90
_cell_angle_beta     114.19
_cell_angle_gamma    90

_space_group_name_H-M_alt    "P 1"
_space_group_IT_number       1

loop_
  _space_group_symop_operation_xyz
  'x, y, z'

loop_
  _atom_site_type_symbol
  _atom_site_label
  _atom_site_symmetry_multiplicity
  _atom_site_fract_x
  _atom_site_fract_y
  _atom_site_fract_z
  _atom_site_occupancy
  Ru  Ru1       1.0  0.23231  0.96741  0.40654  1.0000
  Ru  Ru2       1.0  0.23231  0.53259  0.90654  1.0000
  Ru  Ru3       1.0  0.76769  0.03259  0.59346  1.0000
  Ru  Ru4       1.0  0.76769  0.46741  0.09346  1.0000
  Ru  Ru5       1.0  0.94229  0.84743  0.15299  1.0000
  Ru  Ru6       1.0  0.94229  0.65257  0.65299  1.0000
  Ru  Ru7       1.0  0.05771  0.15257  0.84701  1.0000
  Ru  Ru8       1.0  0.05771  0.34743  0.34701  1.0000
  N   N1        1.0  0.25520  0.98300  0.32390  1.0000
  N   N2        1.0  0.25520  0.51700  0.82390  1.0000
  N   N3        1.0  0.74480  0.01700  0.67610  1.0000
  N   N4        1.0  0.74480  0.48300  0.17610  1.0000
  N   N5        1.0  0.22090  0.04320  0.41460  1.0000
  N   N6        1.0  0.22090  0.45680  0.91460  1.0000
  N   N7        1.0  0.77910  0.95680  0.58540  1.0000
  N   N8        1.0  0.77910  0.54320  0.08540  1.0000
  N   N9        1.0  0.24580  0.95740  0.50320  1.0000
  N   N10       1.0  0.24580  0.54260  0.00320  1.0000
  N   N11       1.0  0.75420  0.04260  0.49680  1.0000
  N   N12       1.0  0.75420  0.45740  0.99680  1.0000
  N   N13       1.0  0.26920  0.89540  0.41010  1.0000
  N   N14       1.0  0.26920  0.60460  0.91010  1.0000
  N   N15       1.0  0.73080  0.10460  0.58990  1.0000
  N   N16       1.0  0.73080  0.39540  0.08990  1.0000
  N   N17       1.0  0.95330  0.84110  0.06430  1.0000
  N   N18       1.0  0.95330  0.65890  0.56430  1.0000
  N   N19       1.0  0.04670  0.15890  0.93570  1.0000
  N   N20       1.0  0.04670  0.34110  0.43570  1.0000
  N   N21       1.0  0.03340  0.79770  0.19160  1.0000
  N   N22       1.0  0.03340  0.70230  0.69160  1.0000
  N   N23       1.0  0.96660  0.20230  0.80840  1.0000
  N   N24       1.0  0.96660  0.29770  0.30840  1.0000
  N   N25       1.0  0.90960  0.83530  0.23030  1.0000
  N   N26       1.0  0.90960  0.66470  0.73030  1.0000
  N   N27       1.0  0.09040  0.16470  0.76970  1.0000
  N   N28       1.0  0.09040  0.33530  0.26970  1.0000
  N   N29       1.0  0.83980  0.88640  0.10810  1.0000
  N   N30       1.0  0.83980  0.61360  0.60810  1.0000
  N   N31       1.0  0.16020  0.11360  0.89190  1.0000
  N   N32       1.0  0.16020  0.38640  0.39190  1.0000
  C   C1        1.0  0.28870  0.95010  0.29470  1.0000
  C   C2        1.0  0.28870  0.54990  0.79470  1.0000
  C   C3        1.0  0.71130  0.04990  0.70530  1.0000
  C   C4        1.0  0.71130  0.45010  0.20530  1.0000
  C   C5        1.0  0.27060  0.96580  0.22950  1.0000
  C   C6        1.0  0.27060  0.53420  0.72950  1.0000
  C   C7        1.0  0.72940  0.03420  0.77050  1.0000
  C   C8        1.0  0.72940  0.46580  0.27050  1.0000
  H   H1        1.0  0.28560  0.94990  0.19730  1.0000
  H   H2        1.0  0.28560  0.55010  0.69730  1.0000
  H   H3        1.0  0.71440  0.05010  0.80270  1.0000
  H   H4        1.0  0.71440  0.44990  0.30270  1.0000
  C   C9        1.0  0.22680  0.00890  0.21940  1.0000
  C   C10       1.0  0.22680  0.49110  0.71940  1.0000
  C   C11       1.0  0.77320  0.99110  0.78060  1.0000
  C   C12       1.0  0.77320  0.50890  0.28060  1.0000
  H   H5        1.0  0.20660  0.02810  0.17910  1.0000
  H   H6        1.0  0.20660  0.47190  0.67910  1.0000
  H   H7        1.0  0.79340  0.97190  0.82090  1.0000
  H   H8        1.0  0.79340  0.52810  0.32090  1.0000
  C   C13       1.0  0.21760  0.01880  0.27720  1.0000
  C   C14       1.0  0.21760  0.48120  0.77720  1.0000
  C   C15       1.0  0.78240  0.98120  0.72280  1.0000
  C   C16       1.0  0.78240  0.51880  0.22280  1.0000
  C   C17       1.0  0.16990  0.06250  0.28850  1.0000
  C   C18       1.0  0.16990  0.43750  0.78850  1.0000
  C   C19       1.0  0.83010  0.93750  0.71150  1.0000
  C   C20       1.0  0.83010  0.56250  0.21150  1.0000
  C   C21       1.0  0.20140  0.07760  0.36100  1.0000
  C   C22       1.0  0.20140  0.42240  0.86100  1.0000
  C   C23       1.0  0.79860  0.92240  0.63900  1.0000
  C   C24       1.0  0.79860  0.57760  0.13900  1.0000
  C   C25       1.0  0.21320  0.12460  0.38900  1.0000
  C   C26       1.0  0.21320  0.37540  0.88900  1.0000
  C   C27       1.0  0.78680  0.87540  0.61100  1.0000
  C   C28       1.0  0.78680  0.62460  0.11100  1.0000
  H   H9        1.0  0.20370  0.15480  0.36450  1.0000
  H   H10       1.0  0.20370  0.34520  0.86450  1.0000
  H   H11       1.0  0.79630  0.84520  0.63550  1.0000
  H   H12       1.0  0.79630  0.65480  0.13550  1.0000
  C   C29       1.0  0.24160  0.12020  0.45970  1.0000
  C   C30       1.0  0.24160  0.37980  0.95970  1.0000
  C   C31       1.0  0.75840  0.87980  0.54030  1.0000
  C   C32       1.0  0.75840  0.62020  0.04030  1.0000
  H   H13       1.0  0.25550  0.14680  0.49120  1.0000
  H   H14       1.0  0.25550  0.35320  0.99120  1.0000
  H   H15       1.0  0.74450  0.85320  0.50880  1.0000
  H   H16       1.0  0.74450  0.64680  0.00880  1.0000
  C   C33       1.0  0.24580  0.06960  0.47520  1.0000
  C   C34       1.0  0.24580  0.43040  0.97520  1.0000
  C   C35       1.0  0.75420  0.93040  0.52480  1.0000
  C   C36       1.0  0.75420  0.56960  0.02480  1.0000
  C   C37       1.0  0.28810  0.04600  0.54340  1.0000
  C   C38       1.0  0.28810  0.45400  0.04340  1.0000
  C   C39       1.0  0.71190  0.95400  0.45660  1.0000
  C   C40       1.0  0.71190  0.54600  0.95660  1.0000
  C   C41       1.0  0.25610  0.99490  0.55020  1.0000
  C   C42       1.0  0.25610  0.50510  0.05020  1.0000
  C   C43       1.0  0.74390  0.00510  0.44980  1.0000
  C   C44       1.0  0.74390  0.49490  0.94980  1.0000
  C   C45       1.0  0.25400  0.97520  0.60960  1.0000
  C   C46       1.0  0.25400  0.52480  0.10960  1.0000
  C   C47       1.0  0.74600  0.02480  0.39040  1.0000
  C   C48       1.0  0.74600  0.47520  0.89040  1.0000
  H   H17       1.0  0.26130  0.99250  0.64990  1.0000
  H   H18       1.0  0.26130  0.50750  0.14990  1.0000
  H   H19       1.0  0.73870  0.00750  0.35010  1.0000
  H   H20       1.0  0.73870  0.49250  0.85010  1.0000
  C   C49       1.0  0.23850  0.92360  0.59600  1.0000
  C   C50       1.0  0.23850  0.57640  0.09600  1.0000
  C   C51       1.0  0.76150  0.07640  0.40400  1.0000
  C   C52       1.0  0.76150  0.42360  0.90400  1.0000
  H   H21       1.0  0.23210  0.90010  0.62600  1.0000
  H   H22       1.0  0.23210  0.59990  0.12600  1.0000
  H   H23       1.0  0.76790  0.09990  0.37400  1.0000
  H   H24       1.0  0.76790  0.40010  0.87400  1.0000
  C   C53       1.0  0.23410  0.91340  0.53150  1.0000
  C   C54       1.0  0.23410  0.58660  0.03150  1.0000
  C   C55       1.0  0.76590  0.08660  0.46850  1.0000
  C   C56       1.0  0.76590  0.41340  0.96850  1.0000
  C   C57       1.0  0.21570  0.86250  0.49380  1.0000
  C   C58       1.0  0.21570  0.63750  0.99380  1.0000
  C   C59       1.0  0.78430  0.13750  0.50620  1.0000
  C   C60       1.0  0.78430  0.36250  0.00620  1.0000
  C   C61       1.0  0.25360  0.85690  0.44480  1.0000
  C   C62       1.0  0.25360  0.64310  0.94480  1.0000
  C   C63       1.0  0.74640  0.14310  0.55520  1.0000
  C   C64       1.0  0.74640  0.35690  0.05520  1.0000
  C   C65       1.0  0.27760  0.81310  0.42620  1.0000
  C   C66       1.0  0.27760  0.68690  0.92620  1.0000
  C   C67       1.0  0.72240  0.18690  0.57380  1.0000
  C   C68       1.0  0.72240  0.31310  0.07380  1.0000
  H   H25       1.0  0.27240  0.78100  0.44210  1.0000
  H   H26       1.0  0.27240  0.71900  0.94210  1.0000
  H   H27       1.0  0.72760  0.21900  0.55790  1.0000
  H   H28       1.0  0.72760  0.28100  0.05790  1.0000
  C   C69       1.0  0.31210  0.82410  0.37840  1.0000
  C   C70       1.0  0.31210  0.67590  0.87840  1.0000
  C   C71       1.0  0.68790  0.17590  0.62160  1.0000
  C   C72       1.0  0.68790  0.32410  0.12160  1.0000
  H   H29       1.0  0.33330  0.80160  0.35650  1.0000
  H   H30       1.0  0.33330  0.69840  0.85650  1.0000
  H   H31       1.0  0.66670  0.19840  0.64350  1.0000
  H   H32       1.0  0.66670  0.30160  0.14350  1.0000
  C   C73       1.0  0.30640  0.87720  0.37240  1.0000
  C   C74       1.0  0.30640  0.62280  0.87240  1.0000
  C   C75       1.0  0.69360  0.12280  0.62760  1.0000
  C   C76       1.0  0.69360  0.37720  0.12760  1.0000
  C   C77       1.0  0.34450  0.91100  0.33700  1.0000
  C   C78       1.0  0.34450  0.58900  0.83700  1.0000
  C   C79       1.0  0.65550  0.08900  0.66300  1.0000
  C   C80       1.0  0.65550  0.41100  0.16300  1.0000
  C   C81       1.0  0.17740  0.10700  0.24570  1.0000
  C   C82       1.0  0.17740  0.39300  0.74570  1.0000
  C   C83       1.0  0.82260  0.89300  0.75430  1.0000
  C   C84       1.0  0.82260  0.60700  0.25430  1.0000
  H   H33       1.0  0.14730  0.13530  0.25120  1.0000
  H   H34       1.0  0.14730  0.36470  0.75120  1.0000
  H   H35       1.0  0.85270  0.86470  0.74880  1.0000
  H   H36       1.0  0.85270  0.63530  0.24880  1.0000
  H   H37       1.0  0.15640  0.09740  0.19790  1.0000
  H   H38       1.0  0.15640  0.40260  0.69790  1.0000
  H   H39       1.0  0.84360  0.90260  0.80210  1.0000
  H   H40       1.0  0.84360  0.59740  0.30210  1.0000
  H   H41       1.0  0.23310  0.11630  0.26110  1.0000
  H   H42       1.0  0.23310  0.38370  0.76110  1.0000
  H   H43       1.0  0.76690  0.88370  0.73890  1.0000
  H   H44       1.0  0.76690  0.61630  0.23890  1.0000
  C   C85       1.0  0.08140  0.05200  0.26140  1.0000
  C   C86       1.0  0.08140  0.44800  0.76140  1.0000
  C   C87       1.0  0.91860  0.94800  0.73860  1.0000
  C   C88       1.0  0.91860  0.55200  0.23860  1.0000
  H   H45       1.0  0.07200  0.02510  0.28770  1.0000
  H   H46       1.0  0.07200  0.47490  0.78770  1.0000
  H   H47       1.0  0.92800  0.97490  0.71230  1.0000
  H   H48       1.0  0.92800  0.52510  0.21230  1.0000
  H   H49       1.0  0.06160  0.04210  0.21380  1.0000
  H   H50       1.0  0.06160  0.45790  0.71380  1.0000
  H   H51       1.0  0.93840  0.95790  0.78620  1.0000
  H   H52       1.0  0.93840  0.54210  0.28620  1.0000
  H   H53       1.0  0.05370  0.08200  0.26540  1.0000
  H   H54       1.0  0.05370  0.41800  0.76540  1.0000
  H   H55       1.0  0.94630  0.91800  0.73460  1.0000
  H   H56       1.0  0.94630  0.58200  0.23460  1.0000
  C   C89       1.0  0.28370  0.08060  0.59930  1.0000
  C   C90       1.0  0.28370  0.41940  0.09930  1.0000
  C   C91       1.0  0.71630  0.91940  0.40070  1.0000
  C   C92       1.0  0.71630  0.58060  0.90070  1.0000
  H   H57       1.0  0.30850  0.06410  0.64340  1.0000
  H   H58       1.0  0.30850  0.43590  0.14340  1.0000
  H   H59       1.0  0.69150  0.93590  0.35660  1.0000
  H   H60       1.0  0.69150  0.56410  0.85660  1.0000
  H   H61       1.0  0.22820  0.08770  0.58950  1.0000
  H   H62       1.0  0.22820  0.41230  0.08950  1.0000
  H   H63       1.0  0.77180  0.91230  0.41050  1.0000
  H   H64       1.0  0.77180  0.58770  0.91050  1.0000
  H   H65       1.0  0.31150  0.11170  0.60030  1.0000
  H   H66       1.0  0.31150  0.38830  0.10030  1.0000
  H   H67       1.0  0.68850  0.88830  0.39970  1.0000
  H   H68       1.0  0.68850  0.61170  0.89970  1.0000
  C   C93       1.0  0.37580  0.03930  0.55790  1.0000
  C   C94       1.0  0.37580  0.46070  0.05790  1.0000
  C   C95       1.0  0.62420  0.96070  0.44210  1.0000
  C   C96       1.0  0.62420  0.53930  0.94210  1.0000
  H   H69       1.0  0.38040  0.01940  0.52190  1.0000
  H   H70       1.0  0.38040  0.48060  0.02190  1.0000
  H   H71       1.0  0.61960  0.98060  0.47810  1.0000
  H   H72       1.0  0.61960  0.51940  0.97810  1.0000
  H   H73       1.0  0.40280  0.02230  0.60140  1.0000
  H   H74       1.0  0.40280  0.47770  0.10140  1.0000
  H   H75       1.0  0.59720  0.97770  0.39860  1.0000
  H   H76       1.0  0.59720  0.52230  0.89860  1.0000
  H   H77       1.0  0.40010  0.07180  0.55980  1.0000
  H   H78       1.0  0.40010  0.42820  0.05980  1.0000
  H   H79       1.0  0.59990  0.92820  0.44020  1.0000
  H   H80       1.0  0.59990  0.57180  0.94020  1.0000
  C   C97       1.0  0.12620  0.85680  0.45750  1.0000
  C   C98       1.0  0.12620  0.64320  0.95750  1.0000
  C   C99       1.0  0.87380  0.14320  0.54250  1.0000
  C   C100      1.0  0.87380  0.35680  0.04250  1.0000
  H   H81       1.0  0.10450  0.88420  0.42550  1.0000
  H   H82       1.0  0.10450  0.61580  0.92550  1.0000
  H   H83       1.0  0.89550  0.11580  0.57450  1.0000
  H   H84       1.0  0.89550  0.38420  0.07450  1.0000
  H   H85       1.0  0.10290  0.85740  0.49080  1.0000
  H   H86       1.0  0.10290  0.64260  0.99080  1.0000
  H   H87       1.0  0.89710  0.14260  0.50920  1.0000
  H   H88       1.0  0.89710  0.35740  0.00920  1.0000
  H   H89       1.0  0.11360  0.82520  0.43300  1.0000
  H   H90       1.0  0.11360  0.67480  0.93300  1.0000
  H   H91       1.0  0.88640  0.17480  0.56700  1.0000
  H   H92       1.0  0.88640  0.32520  0.06700  1.0000
  C   C101      1.0  0.24560  0.82220  0.54840  1.0000
  C   C102      1.0  0.24560  0.67780  0.04840  1.0000
  C   C103      1.0  0.75440  0.17780  0.45160  1.0000
  C   C104      1.0  0.75440  0.32220  0.95160  1.0000
  H   H93       1.0  0.23280  0.78940  0.52710  1.0000
  H   H94       1.0  0.23280  0.71060  0.02710  1.0000
  H   H95       1.0  0.76720  0.21060  0.47290  1.0000
  H   H96       1.0  0.76720  0.28940  0.97290  1.0000
  H   H97       1.0  0.22010  0.82620  0.57980  1.0000
  H   H98       1.0  0.22010  0.67380  0.07980  1.0000
  H   H99       1.0  0.77990  0.17380  0.42020  1.0000
  H   H100      1.0  0.77990  0.32620  0.92020  1.0000
  H   H101      1.0  0.30300  0.82520  0.57330  1.0000
  H   H102      1.0  0.30300  0.67480  0.07330  1.0000
  H   H103      1.0  0.69700  0.17480  0.42670  1.0000
  H   H104      1.0  0.69700  0.32520  0.92670  1.0000
  C   C105      1.0  0.37220  0.87750  0.29120  1.0000
  C   C106      1.0  0.37220  0.62250  0.79120  1.0000
  C   C107      1.0  0.62780  0.12250  0.70880  1.0000
  C   C108      1.0  0.62780  0.37750  0.20880  1.0000
  H   H105      1.0  0.39630  0.89840  0.26780  1.0000
  H   H106      1.0  0.39630  0.60160  0.76780  1.0000
  H   H107      1.0  0.60370  0.10160  0.73220  1.0000
  H   H108      1.0  0.60370  0.39840  0.23220  1.0000
  H   H109      1.0  0.32650  0.86010  0.25780  1.0000
  H   H110      1.0  0.32650  0.63990  0.75780  1.0000
  H   H111      1.0  0.67350  0.13990  0.74220  1.0000
  H   H112      1.0  0.67350  0.36010  0.24220  1.0000
  H   H113      1.0  0.41100  0.85330  0.31950  1.0000
  H   H114      1.0  0.41100  0.64670  0.81950  1.0000
  H   H115      1.0  0.58900  0.14670  0.68050  1.0000
  H   H116      1.0  0.58900  0.35330  0.18050  1.0000
  C   C109      1.0  0.41640  0.93480  0.39090  1.0000
  C   C110      1.0  0.41640  0.56520  0.89090  1.0000
  C   C111      1.0  0.58360  0.06520  0.60910  1.0000
  C   C112      1.0  0.58360  0.43480  0.10910  1.0000
  H   H117      1.0  0.44000  0.95820  0.36970  1.0000
  H   H118      1.0  0.44000  0.54180  0.86970  1.0000
  H   H119      1.0  0.56000  0.04180  0.63030  1.0000
  H   H120      1.0  0.56000  0.45820  0.13030  1.0000
  H   H121      1.0  0.45510  0.90910  0.41500  1.0000
  H   H122      1.0  0.45510  0.59090  0.91500  1.0000
  H   H123      1.0  0.54490  0.09090  0.58500  1.0000
  H   H124      1.0  0.54490  0.40910  0.08500  1.0000
  H   H125      1.0  0.40080  0.95270  0.42290  1.0000
  H   H126      1.0  0.40080  0.54730  0.92290  1.0000
  H   H127      1.0  0.59920  0.04730  0.57710  1.0000
  H   H128      1.0  0.59920  0.45270  0.07710  1.0000
  C   C113      1.0  0.89560  0.84920  0.00030  1.0000
  C   C114      1.0  0.89560  0.65080  0.50030  1.0000
  C   C115      1.0  0.10440  0.15080  0.99970  1.0000
  C   C116      1.0  0.10440  0.34920  0.49970  1.0000
  C   C117      1.0  0.92580  0.83890  0.95300  1.0000
  C   C118      1.0  0.92580  0.66110  0.45300  1.0000
  C   C119      1.0  0.07420  0.16110  0.04700  1.0000
  C   C120      1.0  0.07420  0.33890  0.54700  1.0000
  H   H129      1.0  0.89780  0.84080  0.90520  1.0000
  H   H130      1.0  0.89780  0.65920  0.40520  1.0000
  H   H131      1.0  0.10220  0.15920  0.09480  1.0000
  H   H132      1.0  0.10220  0.34080  0.59480  1.0000
  C   C121      1.0  0.00540  0.82510  0.98810  1.0000
  C   C122      1.0  0.00540  0.67490  0.48810  1.0000
  C   C123      1.0  0.99460  0.17490  0.01190  1.0000
  C   C124      1.0  0.99460  0.32510  0.51190  1.0000
  H   H133      1.0  0.04150  0.81670  0.96890  1.0000
  H   H134      1.0  0.04150  0.68330  0.46890  1.0000
  H   H135      1.0  0.95850  0.18330  0.03110  1.0000
  H   H136      1.0  0.95850  0.31670  0.53110  1.0000
  C   C125      1.0  0.02080  0.82600  0.05660  1.0000
  C   C126      1.0  0.02080  0.67400  0.55660  1.0000
  C   C127      1.0  0.97920  0.17400  0.94340  1.0000
  C   C128      1.0  0.97920  0.32600  0.44340  1.0000
  C   C129      1.0  0.10290  0.81870  0.11520  1.0000
  C   C130      1.0  0.10290  0.68130  0.61520  1.0000
  C   C131      1.0  0.89710  0.18130  0.88480  1.0000
  C   C132      1.0  0.89710  0.31870  0.38480  1.0000
  C   C133      1.0  0.10060  0.79300  0.17760  1.0000
  C   C134      1.0  0.10060  0.70700  0.67760  1.0000
  C   C135      1.0  0.89940  0.20700  0.82240  1.0000
  C   C136      1.0  0.89940  0.29300  0.32240  1.0000
  C   C137      1.0  0.15470  0.76110  0.22480  1.0000
  C   C138      1.0  0.15470  0.73890  0.72480  1.0000
  C   C139      1.0  0.84530  0.23890  0.77520  1.0000
  C   C140      1.0  0.84530  0.26110  0.27520  1.0000
  H   H137      1.0  0.20520  0.75180  0.22740  1.0000
  H   H138      1.0  0.20520  0.74820  0.72740  1.0000
  H   H139      1.0  0.79480  0.24820  0.77260  1.0000
  H   H140      1.0  0.79480  0.25180  0.27260  1.0000
  C   C141      1.0  0.11960  0.74560  0.26740  1.0000
  C   C142      1.0  0.11960  0.75440  0.76740  1.0000
  C   C143      1.0  0.88040  0.25440  0.73260  1.0000
  C   C144      1.0  0.88040  0.24560  0.23260  1.0000
  H   H141      1.0  0.14220  0.72330  0.30430  1.0000
  H   H142      1.0  0.14220  0.77670  0.80430  1.0000
  H   H143      1.0  0.85780  0.27670  0.69570  1.0000
  H   H144      1.0  0.85780  0.22330  0.19570  1.0000
  C   C145      1.0  0.04480  0.76860  0.24660  1.0000
  C   C146      1.0  0.04480  0.73140  0.74660  1.0000
  C   C147      1.0  0.95520  0.23140  0.75340  1.0000
  C   C148      1.0  0.95520  0.26860  0.25340  1.0000
  C   C149      1.0  0.98220  0.75740  0.27180  1.0000
  C   C150      1.0  0.98220  0.74260  0.77180  1.0000
  C   C151      1.0  0.01780  0.24260  0.72820  1.0000
  C   C152      1.0  0.01780  0.25740  0.22820  1.0000
  C   C153      1.0  0.94460  0.80160  0.28280  1.0000
  C   C154      1.0  0.94460  0.69840  0.78280  1.0000
  C   C155      1.0  0.05540  0.19840  0.71720  1.0000
  C   C156      1.0  0.05540  0.30160  0.21720  1.0000
  C   C157      1.0  0.92700  0.81560  0.33550  1.0000
  C   C158      1.0  0.92700  0.68440  0.83550  1.0000
  C   C159      1.0  0.07300  0.18440  0.66450  1.0000
  C   C160      1.0  0.07300  0.31560  0.16450  1.0000
  H   H145      1.0  0.94330  0.79890  0.37770  1.0000
  H   H146      1.0  0.94330  0.70110  0.87770  1.0000
  H   H147      1.0  0.05670  0.20110  0.62230  1.0000
  H   H148      1.0  0.05670  0.29890  0.12230  1.0000
  C   C161      1.0  0.88150  0.85810  0.31730  1.0000
  C   C162      1.0  0.88150  0.64190  0.81730  1.0000
  C   C163      1.0  0.11850  0.14190  0.68270  1.0000
  C   C164      1.0  0.11850  0.35810  0.18270  1.0000
  H   H149      1.0  0.86150  0.87650  0.34430  1.0000
  H   H150      1.0  0.86150  0.62350  0.84430  1.0000
  H   H151      1.0  0.13850  0.12350  0.65570  1.0000
  H   H152      1.0  0.13850  0.37650  0.15570  1.0000
  C   C165      1.0  0.87090  0.86830  0.25230  1.0000
  C   C166      1.0  0.87090  0.63170  0.75230  1.0000
  C   C167      1.0  0.12910  0.13170  0.74770  1.0000
  C   C168      1.0  0.12910  0.36830  0.24770  1.0000
  C   C169      1.0  0.82230  0.91480  0.21360  1.0000
  C   C170      1.0  0.82230  0.58520  0.71360  1.0000
  C   C171      1.0  0.17770  0.08520  0.78640  1.0000
  C   C172      1.0  0.17770  0.41480  0.28640  1.0000
  C   C173      1.0  0.79920  0.91260  0.13930  1.0000
  C   C174      1.0  0.79920  0.58740  0.63930  1.0000
  C   C175      1.0  0.20080  0.08740  0.86070  1.0000
  C   C176      1.0  0.20080  0.41260  0.36070  1.0000
  C   C177      1.0  0.73680  0.93710  0.09050  1.0000
  C   C178      1.0  0.73680  0.56290  0.59050  1.0000
  C   C179      1.0  0.26320  0.06290  0.90950  1.0000
  C   C180      1.0  0.26320  0.43710  0.40950  1.0000
  H   H153      1.0  0.69980  0.95820  0.09770  1.0000
  H   H154      1.0  0.69980  0.54180  0.59770  1.0000
  H   H155      1.0  0.30020  0.04180  0.90230  1.0000
  H   H156      1.0  0.30020  0.45820  0.40230  1.0000
  C   C181      1.0  0.73820  0.92490  0.02710  1.0000
  C   C182      1.0  0.73820  0.57510  0.52710  1.0000
  C   C183      1.0  0.26180  0.07510  0.97290  1.0000
  C   C184      1.0  0.26180  0.42490  0.47290  1.0000
  H   H157      1.0  0.70260  0.93720  0.98440  1.0000
  H   H158      1.0  0.70260  0.56280  0.48440  1.0000
  H   H159      1.0  0.29740  0.06280  0.01560  1.0000
  H   H160      1.0  0.29740  0.43720  0.51560  1.0000
  C   C185      1.0  0.79860  0.89290  0.03730  1.0000
  C   C186      1.0  0.79860  0.60710  0.53730  1.0000
  C   C187      1.0  0.20140  0.10710  0.96270  1.0000
  C   C188      1.0  0.20140  0.39290  0.46270  1.0000
  C   C189      1.0  0.81180  0.85880  0.98690  1.0000
  C   C190      1.0  0.81180  0.64120  0.48690  1.0000
  C   C191      1.0  0.18820  0.14120  0.01310  1.0000
  C   C192      1.0  0.18820  0.35880  0.51310  1.0000
  C   C193      1.0  0.14550  0.86980  0.13730  1.0000
  C   C194      1.0  0.14550  0.63020  0.63730  1.0000
  C   C195      1.0  0.85450  0.13020  0.86270  1.0000
  C   C196      1.0  0.85450  0.36980  0.36270  1.0000
  H   H161      1.0  0.15630  0.88370  0.10020  1.0000
  H   H162      1.0  0.15630  0.61630  0.60020  1.0000
  H   H163      1.0  0.84370  0.11630  0.89980  1.0000
  H   H164      1.0  0.84370  0.38370  0.39980  1.0000
  H   H165      1.0  0.19540  0.86510  0.17710  1.0000
  H   H166      1.0  0.19540  0.63490  0.67710  1.0000
  H   H167      1.0  0.80460  0.13490  0.82290  1.0000
  H   H168      1.0  0.80460  0.36510  0.32290  1.0000
  H   H169      1.0  0.11150  0.89260  0.14850  1.0000
  H   H170      1.0  0.11150  0.60740  0.64850  1.0000
  H   H171      1.0  0.88850  0.10740  0.85150  1.0000
  H   H172      1.0  0.88850  0.39260  0.35150  1.0000
  C   C197      1.0  0.15550  0.78580  0.09130  1.0000
  C   C198      1.0  0.15550  0.71420  0.59130  1.0000
  C   C199      1.0  0.84450  0.21420  0.90870  1.0000
  C   C200      1.0  0.84450  0.28580  0.40870  1.0000
  H   H173      1.0  0.13510  0.75180  0.08390  1.0000
  H   H174      1.0  0.13510  0.74820  0.58390  1.0000
  H   H175      1.0  0.86490  0.24820  0.91610  1.0000
  H   H176      1.0  0.86490  0.25180  0.41610  1.0000
  H   H177      1.0  0.20990  0.78580  0.12600  1.0000
  H   H178      1.0  0.20990  0.71420  0.62600  1.0000
  H   H179      1.0  0.79010  0.21420  0.87400  1.0000
  H   H180      1.0  0.79010  0.28580  0.37400  1.0000
  H   H181      1.0  0.15470  0.79910  0.04890  1.0000
  H   H182      1.0  0.15470  0.70090  0.54890  1.0000
  H   H183      1.0  0.84530  0.20090  0.95110  1.0000
  H   H184      1.0  0.84530  0.29910  0.45110  1.0000
  C   C201      1.0  0.92430  0.72430  0.21720  1.0000
  C   C202      1.0  0.92430  0.77570  0.71720  1.0000
  C   C203      1.0  0.07570  0.27570  0.78280  1.0000
  C   C204      1.0  0.07570  0.22430  0.28280  1.0000
  H   H185      1.0  0.87840  0.71770  0.22740  1.0000
  H   H186      1.0  0.87840  0.78230  0.72740  1.0000
  H   H187      1.0  0.12160  0.28230  0.77260  1.0000
  H   H188      1.0  0.12160  0.21770  0.27260  1.0000
  H   H189      1.0  0.95020  0.69290  0.21560  1.0000
  H   H190      1.0  0.95020  0.80710  0.71560  1.0000
  H   H191      1.0  0.04980  0.30710  0.78440  1.0000
  H   H192      1.0  0.04980  0.19290  0.28440  1.0000
  H   H193      1.0  0.90690  0.74100  0.17320  1.0000
  H   H194      1.0  0.90690  0.75900  0.67320  1.0000
  H   H195      1.0  0.09310  0.25900  0.82680  1.0000
  H   H196      1.0  0.09310  0.24100  0.32680  1.0000
  C   C205      1.0  0.01690  0.72480  0.33460  1.0000
  C   C206      1.0  0.01690  0.77520  0.83460  1.0000
  C   C207      1.0  0.98310  0.27520  0.66540  1.0000
  C   C208      1.0  0.98310  0.22480  0.16540  1.0000
  H   H197      1.0  0.05880  0.74290  0.37080  1.0000
  H   H198      1.0  0.05880  0.75710  0.87080  1.0000
  H   H199      1.0  0.94120  0.25710  0.62920  1.0000
  H   H200      1.0  0.94120  0.24290  0.12920  1.0000
  H   H201      1.0  0.03900  0.69460  0.32390  1.0000
  H   H202      1.0  0.03900  0.80540  0.82390  1.0000
  H   H203      1.0  0.96100  0.30540  0.67610  1.0000
  H   H204      1.0  0.96100  0.19460  0.17610  1.0000
  H   H205      1.0  0.97530  0.71580  0.34930  1.0000
  H   H206      1.0  0.97530  0.78420  0.84930  1.0000
  H   H207      1.0  0.02470  0.28420  0.65070  1.0000
  H   H208      1.0  0.02470  0.21580  0.15070  1.0000
  C   C209      1.0  0.74880  0.92100  0.22770  1.0000
  C   C210      1.0  0.74880  0.57900  0.72770  1.0000
  C   C211      1.0  0.25120  0.07900  0.77230  1.0000
  C   C212      1.0  0.25120  0.42100  0.27230  1.0000
  H   H209      1.0  0.71510  0.89160  0.21170  1.0000
  H   H210      1.0  0.71510  0.60840  0.71170  1.0000
  H   H211      1.0  0.28490  0.10840  0.78830  1.0000
  H   H212      1.0  0.28490  0.39160  0.28830  1.0000
  H   H213      1.0  0.71950  0.95050  0.20390  1.0000
  H   H214      1.0  0.71950  0.54950  0.70390  1.0000
  H   H215      1.0  0.28050  0.04950  0.79610  1.0000
  H   H216      1.0  0.28050  0.45050  0.29610  1.0000
  H   H217      1.0  0.76450  0.92490  0.27640  1.0000
  H   H218      1.0  0.76450  0.57510  0.77640  1.0000
  H   H219      1.0  0.23550  0.07510  0.72360  1.0000
  H   H220      1.0  0.23550  0.42490  0.22360  1.0000
  C   C213      1.0  0.87000  0.96100  0.24010  1.0000
  C   C214      1.0  0.87000  0.53900  0.74010  1.0000
  C   C215      1.0  0.13000  0.03900  0.75990  1.0000
  C   C216      1.0  0.13000  0.46100  0.25990  1.0000
  H   H221      1.0  0.88030  0.96530  0.28790  1.0000
  H   H222      1.0  0.88030  0.53470  0.78790  1.0000
  H   H223      1.0  0.11970  0.03470  0.71210  1.0000
  H   H224      1.0  0.11970  0.46530  0.21210  1.0000
  H   H225      1.0  0.84060  0.98970  0.21420  1.0000
  H   H226      1.0  0.84060  0.51030  0.71420  1.0000
  H   H227      1.0  0.15940  0.01030  0.78580  1.0000
  H   H228      1.0  0.15940  0.48970  0.28580  1.0000
  H   H229      1.0  0.92030  0.95810  0.23570  1.0000
  H   H230      1.0  0.92030  0.54190  0.73570  1.0000
  H   H231      1.0  0.07970  0.04190  0.76430  1.0000
  H   H232      1.0  0.07970  0.45810  0.26430  1.0000
  C   C217      1.0  0.76930  0.80900  0.98590  1.0000
  C   C218      1.0  0.76930  0.69100  0.48590  1.0000
  C   C219      1.0  0.23070  0.19100  0.01410  1.0000
  C   C220      1.0  0.23070  0.30900  0.51410  1.0000
  H   H233      1.0  0.78640  0.79650  0.03230  1.0000
  H   H234      1.0  0.78640  0.70350  0.53230  1.0000
  H   H235      1.0  0.21360  0.20350  0.96770  1.0000
  H   H236      1.0  0.21360  0.29650  0.46770  1.0000
  H   H237      1.0  0.78260  0.78470  0.95870  1.0000
  H   H238      1.0  0.78260  0.71530  0.45870  1.0000
  H   H239      1.0  0.21740  0.21530  0.04130  1.0000
  H   H240      1.0  0.21740  0.28470  0.54130  1.0000
  H   H241      1.0  0.71200  0.81430  0.96630  1.0000
  H   H242      1.0  0.71200  0.68570  0.46630  1.0000
  H   H243      1.0  0.28800  0.18570  0.03370  1.0000
  H   H244      1.0  0.28800  0.31430  0.53370  1.0000
  C   C221      1.0  0.77080  0.88440  0.91740  1.0000
  C   C222      1.0  0.77080  0.61560  0.41740  1.0000
  C   C223      1.0  0.22920  0.11560  0.08260  1.0000
  C   C224      1.0  0.22920  0.38440  0.58260  1.0000
  H   H245      1.0  0.71350  0.88470  0.90410  1.0000
  H   H246      1.0  0.71350  0.61530  0.40410  1.0000
  H   H247      1.0  0.28650  0.11530  0.09590  1.0000
  H   H248      1.0  0.28650  0.38470  0.59590  1.0000
  H   H249      1.0  0.78270  0.86610  0.88360  1.0000
  H   H250      1.0  0.78270  0.63390  0.38360  1.0000
  H   H251      1.0  0.21730  0.13390  0.11640  1.0000
  H   H252      1.0  0.21730  0.36610  0.61640  1.0000
  H   H253      1.0  0.79010  0.91850  0.92050  1.0000
  H   H254      1.0  0.79010  0.58150  0.42050  1.0000
  H   H255      1.0  0.20990  0.08150  0.07950  1.0000
  H   H256      1.0  0.20990  0.41850  0.57950  1.0000
  C   C225      1.0  0.13640  0.94860  0.35670  1.0000
  C   C226      1.0  0.13640  0.55140  0.85670  1.0000
  C   C227      1.0  0.86360  0.05140  0.64330  1.0000
  C   C228      1.0  0.86360  0.44860  0.14330  1.0000
  C   C229      1.0  0.07210  0.92790  0.30920  1.0000
  C   C230      1.0  0.07210  0.57210  0.80920  1.0000
  C   C231      1.0  0.92790  0.07210  0.69080  1.0000
  C   C232      1.0  0.92790  0.42790  0.19080  1.0000
  H   H257      1.0  0.03270  0.91470  0.32190  1.0000
  H   H258      1.0  0.03270  0.58530  0.82190  1.0000
  H   H259      1.0  0.96730  0.08530  0.67810  1.0000
  H   H260      1.0  0.96730  0.41470  0.17810  1.0000
  C   C233      1.0  0.06030  0.92490  0.23780  1.0000
  C   C234      1.0  0.06030  0.57510  0.73780  1.0000
  C   C235      1.0  0.93970  0.07510  0.76220  1.0000
  C   C236      1.0  0.93970  0.42490  0.26220  1.0000
  H   H261      1.0  0.09200  0.94510  0.22280  1.0000
  H   H262      1.0  0.09200  0.55490  0.72280  1.0000
  H   H263      1.0  0.90800  0.05490  0.77720  1.0000
  H   H264      1.0  0.90800  0.44510  0.27720  1.0000
  C   C237      1.0  0.00720  0.89510  0.19360  1.0000
  C   C238      1.0  0.00720  0.60490  0.69360  1.0000
  C   C239      1.0  0.99280  0.10490  0.80640  1.0000
  C   C240      1.0  0.99280  0.39510  0.30640  1.0000
  Na  Na1       1.0  0.15440  0.84377  0.30360  1.0000
  Na  Na2       1.0  0.15440  0.65623  0.80360  1.0000
  Na  Na3       1.0  0.84560  0.15623  0.69640  1.0000
  Na  Na4       1.0  0.84560  0.34377  0.19640  1.0000
  Na  Na5       1.0  0.09400  0.08959  0.42490  1.0000
  Na  Na6       1.0  0.09400  0.41041  0.92490  1.0000
  Na  Na7       1.0  0.90600  0.91041  0.57510  1.0000
  Na  Na8       1.0  0.90600  0.58959  0.07510  1.0000
  O   O1        1.0  0.96910  0.11610  0.34740  1.0000
  O   O2        1.0  0.96910  0.38390  0.84740  1.0000
  O   O3        1.0  0.03090  0.88390  0.65260  1.0000
  O   O4        1.0  0.03090  0.61610  0.15260  1.0000
  O   O5        1.0  0.06200  0.16340  0.46970  1.0000
  O   O6        1.0  0.06200  0.33660  0.96970  1.0000
  O   O7        1.0  0.93800  0.83660  0.53030  1.0000
  O   O8        1.0  0.93800  0.66340  0.03030  1.0000
  O   O9        1.0  0.03920  0.03320  0.47300  1.0000
  O   O10       1.0  0.03920  0.46680  0.97300  1.0000
  O   O11       1.0  0.96080  0.96680  0.52700  1.0000
  O   O12       1.0  0.96080  0.53320  0.02700  1.0000
  C   C241      1.0  0.91150  0.07940  0.30860  1.0000
  C   C242      1.0  0.91150  0.42060  0.80860  1.0000
  C   C243      1.0  0.08850  0.92060  0.69140  1.0000
  C   C244      1.0  0.08850  0.57940  0.19140  1.0000
  H   H265      1.0  0.89170  0.06200  0.33820  1.0000
  H   H266      1.0  0.89170  0.43800  0.83820  1.0000
  H   H267      1.0  0.10830  0.93800  0.66180  1.0000
  H   H268      1.0  0.10830  0.56200  0.16180  1.0000
  H   H269      1.0  0.93620  0.05560  0.28920  1.0000
  H   H270      1.0  0.93620  0.44440  0.78920  1.0000
  H   H271      1.0  0.06380  0.94440  0.71080  1.0000
  H   H272      1.0  0.06380  0.55560  0.21080  1.0000
  H   H273      1.0  0.86740  0.09590  0.27210  1.0000
  H   H274      1.0  0.86740  0.40410  0.77210  1.0000
  H   H275      1.0  0.13260  0.90410  0.72790  1.0000
  H   H276      1.0  0.13260  0.59590  0.22790  1.0000
  C   C245      1.0  0.93390  0.14740  0.37730  1.0000
  C   C246      1.0  0.93390  0.35260  0.87730  1.0000
  C   C247      1.0  0.06610  0.85260  0.62270  1.0000
  C   C248      1.0  0.06610  0.64740  0.12270  1.0000
  H   H277      1.0  0.91870  0.12900  0.40970  1.0000
  H   H278      1.0  0.91870  0.37100  0.90970  1.0000
  H   H279      1.0  0.08130  0.87100  0.59030  1.0000
  H   H280      1.0  0.08130  0.62900  0.09030  1.0000
  H   H281      1.0  0.88610  0.16310  0.34270  1.0000
  H   H282      1.0  0.88610  0.33690  0.84270  1.0000
  H   H283      1.0  0.11390  0.83690  0.65730  1.0000
  H   H284      1.0  0.11390  0.66310  0.15730  1.0000
  C   C249      1.0  0.99690  0.18660  0.41410  1.0000
  C   C250      1.0  0.99690  0.31340  0.91410  1.0000
  C   C251      1.0  0.00310  0.81340  0.58590  1.0000
  C   C252      1.0  0.00310  0.68660  0.08590  1.0000
  H   H285      1.0  0.01640  0.20170  0.38220  1.0000
  H   H286      1.0  0.01640  0.29830  0.88220  1.0000
  H   H287      1.0  0.98360  0.79830  0.61780  1.0000
  H   H288      1.0  0.98360  0.70170  0.11780  1.0000
  H   H289      1.0  0.97350  0.21320  0.43160  1.0000
  H   H290      1.0  0.97350  0.28680  0.93160  1.0000
  H   H291      1.0  0.02650  0.78680  0.56840  1.0000
  H   H292      1.0  0.02650  0.71320  0.06840  1.0000
  C   C253      1.0  0.12180  0.19870  0.51040  1.0000
  C   C254      1.0  0.12180  0.30130  0.01040  1.0000
  C   C255      1.0  0.87820  0.80130  0.48960  1.0000
  C   C256      1.0  0.87820  0.69870  0.98960  1.0000
  H   H293      1.0  0.15440  0.20820  0.48650  1.0000
  H   H294      1.0  0.15440  0.29180  0.98650  1.0000
  H   H295      1.0  0.84560  0.79180  0.51350  1.0000
  H   H296      1.0  0.84560  0.70820  0.01350  1.0000
  H   H297      1.0  0.15530  0.18340  0.55380  1.0000
  H   H298      1.0  0.15530  0.31660  0.05380  1.0000
  H   H299      1.0  0.84470  0.81660  0.44620  1.0000
  H   H300      1.0  0.84470  0.68340  0.94620  1.0000
  H   H301      1.0  0.09600  0.22820  0.51850  1.0000
  H   H302      1.0  0.09600  0.27180  0.01850  1.0000
  H   H303      1.0  0.90400  0.77180  0.48150  1.0000
  H   H304      1.0  0.90400  0.72820  0.98150  1.0000
  C   C257      1.0  0.04420  0.98050  0.46690  1.0000
  C   C258      1.0  0.04420  0.51950  0.96690  1.0000
  C   C259      1.0  0.95580  0.01950  0.53310  1.0000
  C   C260      1.0  0.95580  0.48050  0.03310  1.0000
  H   H305      1.0  0.09040  0.96750  0.50590  1.0000
  H   H306      1.0  0.09040  0.53250  0.00590  1.0000
  H   H307      1.0  0.90960  0.03250  0.49410  1.0000
  H   H308      1.0  0.90960  0.46750  0.99410  1.0000
  H   H309      1.0  0.05130  0.97260  0.42510  1.0000
  H   H310      1.0  0.05130  0.52740  0.92510  1.0000
  H   H311      1.0  0.94870  0.02740  0.57490  1.0000
  H   H312      1.0  0.94870  0.47260  0.07490  1.0000
  C   C261      1.0  0.03010  0.04360  0.53560  1.0000
  C   C262      1.0  0.03010  0.45640  0.03560  1.0000
  C   C263      1.0  0.96990  0.95640  0.46440  1.0000
  C   C264      1.0  0.96990  0.54360  0.96440  1.0000
  H   H313      1.0  0.02740  0.07990  0.54130  1.0000
  H   H314      1.0  0.02740  0.42010  0.04130  1.0000
  H   H315      1.0  0.97260  0.92010  0.45870  1.0000
  H   H316      1.0  0.97260  0.57990  0.95870  1.0000
  H   H317      1.0  0.07630  0.03060  0.57470  1.0000
  H   H318      1.0  0.07630  0.46940  0.07470  1.0000
  H   H319      1.0  0.92370  0.96940  0.42530  1.0000
  H   H320      1.0  0.92370  0.53060  0.92530  1.0000
  Na  Na9       1.0  0.89820  0.96940  0.10410  1.0000
  Na  Na10      1.0  0.89820  0.53060  0.60410  1.0000
  Na  Na11      1.0  0.10180  0.03060  0.89590  1.0000
  Na  Na12      1.0  0.10180  0.46940  0.39590  1.0000
  O   O13       1.0  0.84470  0.04920  0.08450  1.0000
  O   O14       1.0  0.84470  0.45080  0.58450  1.0000
  O   O15       1.0  0.15530  0.95080  0.91550  1.0000
  O   O16       1.0  0.15530  0.54920  0.41550  1.0000
  O   O17       1.0  0.97580  0.99290  0.05290  1.0000
  O   O18       1.0  0.97580  0.50710  0.55290  1.0000
  O   O19       1.0  0.02420  0.00710  0.94710  1.0000
  O   O20       1.0  0.02420  0.49290  0.44710  1.0000
  C   C265      1.0  0.78300  0.05860  0.02140  1.0000
  C   C266      1.0  0.78300  0.44140  0.52140  1.0000
  C   C267      1.0  0.21700  0.94140  0.97860  1.0000
  C   C268      1.0  0.21700  0.55860  0.47860  1.0000
  H   H321      1.0  0.73910  0.03480  0.01350  1.0000
  H   H322      1.0  0.73910  0.46520  0.51350  1.0000
  H   H323      1.0  0.26090  0.96520  0.98650  1.0000
  H   H324      1.0  0.26090  0.53480  0.48650  1.0000
  H   H325      1.0  0.80150  0.05420  0.98510  1.0000
  H   H326      1.0  0.80150  0.44580  0.48510  1.0000
  H   H327      1.0  0.19850  0.94580  0.01490  1.0000
  H   H328      1.0  0.19850  0.55420  0.51490  1.0000
  C   C269      1.0  0.75210  0.11200  0.01940  1.0000
  C   C270      1.0  0.75210  0.38800  0.51940  1.0000
  C   C271      1.0  0.24790  0.88800  0.98060  1.0000
  C   C272      1.0  0.24790  0.61200  0.48060  1.0000
  H   H329      1.0  0.74140  0.12820  0.97550  1.0000
  H   H330      1.0  0.74140  0.37180  0.47550  1.0000
  H   H331      1.0  0.25860  0.87180  0.02450  1.0000
  H   H332      1.0  0.25860  0.62820  0.52450  1.0000
  H   H333      1.0  0.70360  0.11280  0.02790  1.0000
  H   H334      1.0  0.70360  0.38720  0.52790  1.0000
  H   H335      1.0  0.29640  0.88720  0.97210  1.0000
  H   H336      1.0  0.29640  0.61280  0.47210  1.0000
  C   C273      1.0  0.81420  0.13350  0.07070  1.0000
  C   C274      1.0  0.81420  0.36650  0.57070  1.0000
  C   C275      1.0  0.18580  0.86650  0.92930  1.0000
  C   C276      1.0  0.18580  0.63350  0.42930  1.0000
  H   H337      1.0  0.79460  0.15650  0.09600  1.0000
  H   H338      1.0  0.79460  0.34350  0.59600  1.0000
  H   H339      1.0  0.20540  0.84350  0.90400  1.0000
  H   H340      1.0  0.20540  0.65650  0.40400  1.0000
  H   H341      1.0  0.84620  0.15280  0.05220  1.0000
  H   H342      1.0  0.84620  0.34720  0.55220  1.0000
  H   H343      1.0  0.15380  0.84720  0.94780  1.0000
  H   H344      1.0  0.15380  0.65280  0.44780  1.0000
  C   C277      1.0  0.86230  0.09540  0.11550  1.0000
  C   C278      1.0  0.86230  0.40460  0.61550  1.0000
  C   C279      1.0  0.13770  0.90460  0.88450  1.0000
  C   C280      1.0  0.13770  0.59540  0.38450  1.0000
  H   H345      1.0  0.91890  0.10300  0.12820  1.0000
  H   H346      1.0  0.91890  0.39700  0.62820  1.0000
  H   H347      1.0  0.08110  0.89700  0.87180  1.0000
  H   H348      1.0  0.08110  0.60300  0.37180  1.0000
  H   H349      1.0  0.85300  0.09490  0.15730  1.0000
  H   H350      1.0  0.85300  0.40510  0.65730  1.0000
  H   H351      1.0  0.14700  0.90510  0.84270  1.0000
  H   H352      1.0  0.14700  0.59490  0.34270  1.0000
  C   C281      1.0  0.00820  0.03780  0.04530  1.0000
  C   C282      1.0  0.00820  0.46220  0.54530  1.0000
  C   C283      1.0  0.99180  0.96220  0.95470  1.0000
  C   C284      1.0  0.99180  0.53780  0.45470  1.0000
  H   H353      1.0  0.06650  0.03680  0.06960  1.0000
  H   H354      1.0  0.06650  0.46320  0.56960  1.0000
  H   H355      1.0  0.93350  0.96320  0.93040  1.0000
  H   H356      1.0  0.93350  0.53680  0.43040  1.0000
  H   H357      1.0  0.98790  0.06530  0.06390  1.0000
  H   H358      1.0  0.98790  0.43470  0.56390  1.0000
  H   H359      1.0  0.01210  0.93470  0.93610  1.0000
  H   H360      1.0  0.01210  0.56530  0.43610  1.0000
  C   C285      1.0  0.01540  0.95440  0.03030  1.0000
  C   C286      1.0  0.01540  0.54560  0.53030  1.0000
  C   C287      1.0  0.98460  0.04560  0.96970  1.0000
  C   C288      1.0  0.98460  0.45440  0.46970  1.0000
  H   H361      1.0  0.99880  0.92110  0.03860  1.0000
  H   H362      1.0  0.99880  0.57890  0.53860  1.0000
  H   H363      1.0  0.00120  0.07890  0.96140  1.0000
  H   H364      1.0  0.00120  0.42110  0.46140  1.0000
  H   H365      1.0  0.07340  0.95720  0.05530  1.0000
  H   H366      1.0  0.07340  0.54280  0.55530  1.0000
  H   H367      1.0  0.92660  0.04280  0.94470  1.0000
  H   H368      1.0  0.92660  0.45720  0.44470  1.0000
