data_image0
_chemical_formula_structural       Tb8O16C16H16C16H16C16H16C32O16C16O16C16O16C16H16C16H16N8H8C48H16C32
_chemical_formula_sum              "Tb8 O64 C224 H104 N8"
_cell_length_a       13.799
_cell_length_b       13.799
_cell_length_c       31.702
_cell_angle_alpha    90
_cell_angle_beta     90
_cell_angle_gamma    90

_space_group_name_H-M_alt    "P 1"
_space_group_IT_number       1

loop_
  _space_group_symop_operation_xyz
  'x, y, z'

loop_
  _atom_site_type_symbol
  _atom_site_label
  _atom_site_symmetry_multiplicity
  _atom_site_fract_x
  _atom_site_fract_y
  _atom_site_fract_z
  _atom_site_occupancy
  Tb  Tb1       1.0  0.50000  0.00000  0.18229  1.0000
  Tb  Tb2       1.0  0.00000  0.50000  0.81771  1.0000
  Tb  Tb3       1.0  0.50000  0.50000  0.06771  1.0000
  Tb  Tb4       1.0  0.00000  0.00000  0.43229  1.0000
  Tb  Tb5       1.0  0.00000  0.50000  0.68229  1.0000
  Tb  Tb6       1.0  0.50000  0.00000  0.31771  1.0000
  Tb  Tb7       1.0  0.00000  0.00000  0.56771  1.0000
  Tb  Tb8       1.0  0.50000  0.50000  0.93229  1.0000
  O   O1        1.0  0.60730  0.99970  0.12074  1.0000
  O   O2        1.0  0.99970  0.39270  0.87926  1.0000
  O   O3        1.0  0.39270  0.00030  0.12074  1.0000
  O   O4        1.0  0.00030  0.60730  0.87926  1.0000
  O   O5        1.0  0.60730  0.50030  0.12926  1.0000
  O   O6        1.0  0.39270  0.49970  0.12926  1.0000
  O   O7        1.0  0.00030  0.89270  0.37074  1.0000
  O   O8        1.0  0.99970  0.10730  0.37074  1.0000
  O   O9        1.0  0.10730  0.49970  0.62074  1.0000
  O   O10       1.0  0.49970  0.89270  0.37926  1.0000
  O   O11       1.0  0.89270  0.50030  0.62074  1.0000
  O   O12       1.0  0.50030  0.10730  0.37926  1.0000
  O   O13       1.0  0.10730  0.00030  0.62926  1.0000
  O   O14       1.0  0.89270  0.99970  0.62926  1.0000
  O   O15       1.0  0.50030  0.39270  0.87074  1.0000
  O   O16       1.0  0.49970  0.60730  0.87074  1.0000
  C   C1        1.0  0.69750  0.00330  0.92174  1.0000
  C   C2        1.0  0.00330  0.30250  0.07826  1.0000
  C   C3        1.0  0.30250  0.99670  0.92174  1.0000
  C   C4        1.0  0.99670  0.69750  0.07826  1.0000
  C   C5        1.0  0.69750  0.49670  0.32826  1.0000
  C   C6        1.0  0.30250  0.50330  0.32826  1.0000
  C   C7        1.0  0.99670  0.80250  0.17174  1.0000
  C   C8        1.0  0.00330  0.19750  0.17174  1.0000
  C   C9        1.0  0.19750  0.50330  0.42174  1.0000
  C   C10       1.0  0.50330  0.80250  0.57826  1.0000
  C   C11       1.0  0.80250  0.49670  0.42174  1.0000
  C   C12       1.0  0.49670  0.19750  0.57826  1.0000
  C   C13       1.0  0.19750  0.99670  0.82826  1.0000
  C   C14       1.0  0.80250  0.00330  0.82826  1.0000
  C   C15       1.0  0.49670  0.30250  0.67174  1.0000
  C   C16       1.0  0.50330  0.69750  0.67174  1.0000
  H   H1        1.0  0.70670  0.06780  0.91430  1.0000
  H   H2        1.0  0.06780  0.29330  0.08570  1.0000
  H   H3        1.0  0.29330  0.93220  0.91430  1.0000
  H   H4        1.0  0.93220  0.70670  0.08570  1.0000
  H   H5        1.0  0.70670  0.43220  0.33570  1.0000
  H   H6        1.0  0.29330  0.56780  0.33570  1.0000
  H   H7        1.0  0.93220  0.79330  0.16430  1.0000
  H   H8        1.0  0.06780  0.20670  0.16430  1.0000
  H   H9        1.0  0.20670  0.56780  0.41430  1.0000
  H   H10       1.0  0.56780  0.79330  0.58570  1.0000
  H   H11       1.0  0.79330  0.43220  0.41430  1.0000
  H   H12       1.0  0.43220  0.20670  0.58570  1.0000
  H   H13       1.0  0.20670  0.93220  0.83570  1.0000
  H   H14       1.0  0.79330  0.06780  0.83570  1.0000
  H   H15       1.0  0.43220  0.29330  0.66430  1.0000
  H   H16       1.0  0.56780  0.70670  0.66430  1.0000
  C   C17       1.0  0.63450  0.88160  0.96900  1.0000
  C   C18       1.0  0.88160  0.36550  0.03100  1.0000
  C   C19       1.0  0.36550  0.11840  0.96900  1.0000
  C   C20       1.0  0.11840  0.63450  0.03100  1.0000
  C   C21       1.0  0.63450  0.61840  0.28100  1.0000
  C   C22       1.0  0.36550  0.38160  0.28100  1.0000
  C   C23       1.0  0.11840  0.86550  0.21900  1.0000
  C   C24       1.0  0.88160  0.13450  0.21900  1.0000
  C   C25       1.0  0.13450  0.38160  0.46900  1.0000
  C   C26       1.0  0.38160  0.86550  0.53100  1.0000
  C   C27       1.0  0.86550  0.61840  0.46900  1.0000
  C   C28       1.0  0.61840  0.13450  0.53100  1.0000
  C   C29       1.0  0.13450  0.11840  0.78100  1.0000
  C   C30       1.0  0.86550  0.88160  0.78100  1.0000
  C   C31       1.0  0.61840  0.36550  0.71900  1.0000
  C   C32       1.0  0.38160  0.63450  0.71900  1.0000
  H   H17       1.0  0.60230  0.86520  0.99370  1.0000
  H   H18       1.0  0.86520  0.39770  0.00630  1.0000
  H   H19       1.0  0.39770  0.13480  0.99370  1.0000
  H   H20       1.0  0.13480  0.60230  0.00630  1.0000
  H   H21       1.0  0.60230  0.63480  0.25630  1.0000
  H   H22       1.0  0.39770  0.36520  0.25630  1.0000
  H   H23       1.0  0.13480  0.89770  0.24370  1.0000
  H   H24       1.0  0.86520  0.10230  0.24370  1.0000
  H   H25       1.0  0.10230  0.36520  0.49370  1.0000
  H   H26       1.0  0.36520  0.89770  0.50630  1.0000
  H   H27       1.0  0.89770  0.63480  0.49370  1.0000
  H   H28       1.0  0.63480  0.10230  0.50630  1.0000
  H   H29       1.0  0.10230  0.13480  0.75630  1.0000
  H   H30       1.0  0.89770  0.86520  0.75630  1.0000
  H   H31       1.0  0.63480  0.39770  0.74370  1.0000
  H   H32       1.0  0.36520  0.60230  0.74370  1.0000
  C   C33       1.0  0.60930  0.15100  0.97750  1.0000
  C   C34       1.0  0.15100  0.39070  0.02250  1.0000
  C   C35       1.0  0.39070  0.84900  0.97750  1.0000
  C   C36       1.0  0.84900  0.60930  0.02250  1.0000
  C   C37       1.0  0.60930  0.34900  0.27250  1.0000
  C   C38       1.0  0.39070  0.65100  0.27250  1.0000
  C   C39       1.0  0.84900  0.89070  0.22750  1.0000
  C   C40       1.0  0.15100  0.10930  0.22750  1.0000
  C   C41       1.0  0.10930  0.65100  0.47750  1.0000
  C   C42       1.0  0.65100  0.89070  0.52250  1.0000
  C   C43       1.0  0.89070  0.34900  0.47750  1.0000
  C   C44       1.0  0.34900  0.10930  0.52250  1.0000
  C   C45       1.0  0.10930  0.84900  0.77250  1.0000
  C   C46       1.0  0.89070  0.15100  0.77250  1.0000
  C   C47       1.0  0.34900  0.39070  0.72750  1.0000
  C   C48       1.0  0.65100  0.60930  0.72750  1.0000
  H   H33       1.0  0.61150  0.16660  0.94900  1.0000
  H   H34       1.0  0.16660  0.38850  0.05100  1.0000
  H   H35       1.0  0.38850  0.83340  0.94900  1.0000
  H   H36       1.0  0.83340  0.61150  0.05100  1.0000
  H   H37       1.0  0.61150  0.33340  0.30100  1.0000
  H   H38       1.0  0.38850  0.66660  0.30100  1.0000
  H   H39       1.0  0.83340  0.88850  0.19900  1.0000
  H   H40       1.0  0.16660  0.11150  0.19900  1.0000
  H   H41       1.0  0.11150  0.66660  0.44900  1.0000
  H   H42       1.0  0.66660  0.88850  0.55100  1.0000
  H   H43       1.0  0.88850  0.33340  0.44900  1.0000
  H   H44       1.0  0.33340  0.11150  0.55100  1.0000
  H   H45       1.0  0.11150  0.83340  0.80100  1.0000
  H   H46       1.0  0.88850  0.16660  0.80100  1.0000
  H   H47       1.0  0.33340  0.38850  0.69900  1.0000
  H   H48       1.0  0.66660  0.61150  0.69900  1.0000
  C   C49       1.0  0.59530  0.10530  0.06260  1.0000
  C   C50       1.0  0.10530  0.40470  0.93740  1.0000
  C   C51       1.0  0.40470  0.89470  0.06260  1.0000
  C   C52       1.0  0.89470  0.59530  0.93740  1.0000
  C   C53       1.0  0.59530  0.39470  0.18740  1.0000
  C   C54       1.0  0.40470  0.60530  0.18740  1.0000
  C   C55       1.0  0.89470  0.90470  0.31260  1.0000
  C   C56       1.0  0.10530  0.09530  0.31260  1.0000
  C   C57       1.0  0.09530  0.60530  0.56260  1.0000
  C   C58       1.0  0.60530  0.90470  0.43740  1.0000
  C   C59       1.0  0.90470  0.39470  0.56260  1.0000
  C   C60       1.0  0.39470  0.09530  0.43740  1.0000
  C   C61       1.0  0.09530  0.89470  0.68740  1.0000
  C   C62       1.0  0.90470  0.10530  0.68740  1.0000
  C   C63       1.0  0.39470  0.40470  0.81260  1.0000
  C   C64       1.0  0.60530  0.59530  0.81260  1.0000
  C   C65       1.0  0.65200  0.98040  0.96007  1.0000
  C   C66       1.0  0.98040  0.34800  0.03993  1.0000
  C   C67       1.0  0.34800  0.01960  0.96007  1.0000
  C   C68       1.0  0.01960  0.65200  0.03993  1.0000
  C   C69       1.0  0.65200  0.51960  0.28993  1.0000
  C   C70       1.0  0.34800  0.48040  0.28993  1.0000
  C   C71       1.0  0.01960  0.84800  0.21007  1.0000
  C   C72       1.0  0.98040  0.15200  0.21007  1.0000
  C   C73       1.0  0.15200  0.48040  0.46007  1.0000
  C   C74       1.0  0.48040  0.84800  0.53993  1.0000
  C   C75       1.0  0.84800  0.51960  0.46007  1.0000
  C   C76       1.0  0.51960  0.15200  0.53993  1.0000
  C   C77       1.0  0.15200  0.01960  0.78993  1.0000
  C   C78       1.0  0.84800  0.98040  0.78993  1.0000
  C   C79       1.0  0.51960  0.34800  0.71007  1.0000
  C   C80       1.0  0.48040  0.65200  0.71007  1.0000
  O   O17       1.0  0.55910  0.38500  0.02395  1.0000
  O   O18       1.0  0.38500  0.44090  0.97605  1.0000
  O   O19       1.0  0.44090  0.61500  0.02395  1.0000
  O   O20       1.0  0.61500  0.55910  0.97605  1.0000
  O   O21       1.0  0.55910  0.11500  0.22605  1.0000
  O   O22       1.0  0.44090  0.88500  0.22605  1.0000
  O   O23       1.0  0.61500  0.94090  0.27395  1.0000
  O   O24       1.0  0.38500  0.05910  0.27395  1.0000
  O   O25       1.0  0.05910  0.88500  0.52395  1.0000
  O   O26       1.0  0.88500  0.94090  0.47605  1.0000
  O   O27       1.0  0.94090  0.11500  0.52395  1.0000
  O   O28       1.0  0.11500  0.05910  0.47605  1.0000
  O   O29       1.0  0.05910  0.61500  0.72605  1.0000
  O   O30       1.0  0.94090  0.38500  0.72605  1.0000
  O   O31       1.0  0.11500  0.44090  0.77395  1.0000
  O   O32       1.0  0.88500  0.55910  0.77395  1.0000
  C   C81       1.0  0.58790  0.22360  0.00752  1.0000
  C   C82       1.0  0.22360  0.41210  0.99248  1.0000
  C   C83       1.0  0.41210  0.77640  0.00752  1.0000
  C   C84       1.0  0.77640  0.58790  0.99248  1.0000
  C   C85       1.0  0.58790  0.27640  0.24248  1.0000
  C   C86       1.0  0.41210  0.72360  0.24248  1.0000
  C   C87       1.0  0.77640  0.91210  0.25752  1.0000
  C   C88       1.0  0.22360  0.08790  0.25752  1.0000
  C   C89       1.0  0.08790  0.72360  0.50752  1.0000
  C   C90       1.0  0.72360  0.91210  0.49248  1.0000
  C   C91       1.0  0.91210  0.27640  0.50752  1.0000
  C   C92       1.0  0.27640  0.08790  0.49248  1.0000
  C   C93       1.0  0.08790  0.77640  0.74248  1.0000
  C   C94       1.0  0.91210  0.22360  0.74248  1.0000
  C   C95       1.0  0.27640  0.41210  0.75752  1.0000
  C   C96       1.0  0.72360  0.58790  0.75752  1.0000
  O   O33       1.0  0.53990  0.13490  0.13258  1.0000
  O   O34       1.0  0.13490  0.46010  0.86742  1.0000
  O   O35       1.0  0.46010  0.86510  0.13258  1.0000
  O   O36       1.0  0.86510  0.53990  0.86742  1.0000
  O   O37       1.0  0.53990  0.36510  0.11742  1.0000
  O   O38       1.0  0.46010  0.63490  0.11742  1.0000
  O   O39       1.0  0.86510  0.96010  0.38258  1.0000
  O   O40       1.0  0.13490  0.03990  0.38258  1.0000
  O   O41       1.0  0.03990  0.63490  0.63258  1.0000
  O   O42       1.0  0.63490  0.96010  0.36742  1.0000
  O   O43       1.0  0.96010  0.36510  0.63258  1.0000
  O   O44       1.0  0.36510  0.03990  0.36742  1.0000
  O   O45       1.0  0.03990  0.86510  0.61742  1.0000
  O   O46       1.0  0.96010  0.13490  0.61742  1.0000
  O   O47       1.0  0.36510  0.46010  0.88258  1.0000
  O   O48       1.0  0.63490  0.53990  0.88258  1.0000
  C   C97       1.0  0.58320  0.07310  0.10920  1.0000
  C   C98       1.0  0.07310  0.41680  0.89080  1.0000
  C   C99       1.0  0.41680  0.92690  0.10920  1.0000
  C   C100      1.0  0.92690  0.58320  0.89080  1.0000
  C   C101      1.0  0.58320  0.42690  0.14080  1.0000
  C   C102      1.0  0.41680  0.57310  0.14080  1.0000
  C   C103      1.0  0.92690  0.91680  0.35920  1.0000
  C   C104      1.0  0.07310  0.08320  0.35920  1.0000
  C   C105      1.0  0.08320  0.57310  0.60920  1.0000
  C   C106      1.0  0.57310  0.91680  0.39080  1.0000
  C   C107      1.0  0.91680  0.42690  0.60920  1.0000
  C   C108      1.0  0.42690  0.08320  0.39080  1.0000
  C   C109      1.0  0.08320  0.92690  0.64080  1.0000
  C   C110      1.0  0.91680  0.07310  0.64080  1.0000
  C   C111      1.0  0.42690  0.41680  0.85920  1.0000
  C   C112      1.0  0.57310  0.58320  0.85920  1.0000
  O   O49       1.0  0.56990  0.34930  0.95565  1.0000
  O   O50       1.0  0.34930  0.43010  0.04435  1.0000
  O   O51       1.0  0.43010  0.65070  0.95565  1.0000
  O   O52       1.0  0.65070  0.56990  0.04435  1.0000
  O   O53       1.0  0.56990  0.15070  0.29435  1.0000
  O   O54       1.0  0.43010  0.84930  0.29435  1.0000
  O   O55       1.0  0.65070  0.93010  0.20565  1.0000
  O   O56       1.0  0.34930  0.06990  0.20565  1.0000
  O   O57       1.0  0.06990  0.84930  0.45565  1.0000
  O   O58       1.0  0.84930  0.93010  0.54435  1.0000
  O   O59       1.0  0.93010  0.15070  0.45565  1.0000
  O   O60       1.0  0.15070  0.06990  0.54435  1.0000
  O   O61       1.0  0.06990  0.65070  0.79435  1.0000
  O   O62       1.0  0.93010  0.34930  0.79435  1.0000
  O   O63       1.0  0.15070  0.43010  0.70565  1.0000
  O   O64       1.0  0.84930  0.56990  0.70565  1.0000
  C   C113      1.0  0.62030  0.03590  0.03399  1.0000
  C   C114      1.0  0.03590  0.37970  0.96601  1.0000
  C   C115      1.0  0.37970  0.96410  0.03399  1.0000
  C   C116      1.0  0.96410  0.62030  0.96601  1.0000
  C   C117      1.0  0.62030  0.46410  0.21601  1.0000
  C   C118      1.0  0.37970  0.53590  0.21601  1.0000
  C   C119      1.0  0.96410  0.87970  0.28399  1.0000
  C   C120      1.0  0.03590  0.12030  0.28399  1.0000
  C   C121      1.0  0.12030  0.53590  0.53399  1.0000
  C   C122      1.0  0.53590  0.87970  0.46601  1.0000
  C   C123      1.0  0.87970  0.46410  0.53399  1.0000
  C   C124      1.0  0.46410  0.12030  0.46601  1.0000
  C   C125      1.0  0.12030  0.96410  0.71601  1.0000
  C   C126      1.0  0.87970  0.03590  0.71601  1.0000
  C   C127      1.0  0.46410  0.37970  0.78399  1.0000
  C   C128      1.0  0.53590  0.62030  0.78399  1.0000
  H   H49       1.0  0.63320  0.97350  0.04350  1.0000
  H   H50       1.0  0.97350  0.36680  0.95650  1.0000
  H   H51       1.0  0.36680  0.02650  0.04350  1.0000
  H   H52       1.0  0.02650  0.63320  0.95650  1.0000
  H   H53       1.0  0.63320  0.52650  0.20650  1.0000
  H   H54       1.0  0.36680  0.47350  0.20650  1.0000
  H   H55       1.0  0.02650  0.86680  0.29350  1.0000
  H   H56       1.0  0.97350  0.13320  0.29350  1.0000
  H   H57       1.0  0.13320  0.47350  0.54350  1.0000
  H   H58       1.0  0.47350  0.86680  0.45650  1.0000
  H   H59       1.0  0.86680  0.52650  0.54350  1.0000
  H   H60       1.0  0.52650  0.13320  0.45650  1.0000
  H   H61       1.0  0.13320  0.02650  0.70650  1.0000
  H   H62       1.0  0.86680  0.97350  0.70650  1.0000
  H   H63       1.0  0.52650  0.36680  0.79350  1.0000
  H   H64       1.0  0.47350  0.63320  0.79350  1.0000
  C   C129      1.0  0.58040  0.19890  0.04967  1.0000
  C   C130      1.0  0.19890  0.41960  0.95033  1.0000
  C   C131      1.0  0.41960  0.80110  0.04967  1.0000
  C   C132      1.0  0.80110  0.58040  0.95033  1.0000
  C   C133      1.0  0.58040  0.30110  0.20033  1.0000
  C   C134      1.0  0.41960  0.69890  0.20033  1.0000
  C   C135      1.0  0.80110  0.91960  0.29967  1.0000
  C   C136      1.0  0.19890  0.08040  0.29967  1.0000
  C   C137      1.0  0.08040  0.69890  0.54967  1.0000
  C   C138      1.0  0.69890  0.91960  0.45033  1.0000
  C   C139      1.0  0.91960  0.30110  0.54967  1.0000
  C   C140      1.0  0.30110  0.08040  0.45033  1.0000
  C   C141      1.0  0.08040  0.80110  0.70033  1.0000
  C   C142      1.0  0.91960  0.19890  0.70033  1.0000
  C   C143      1.0  0.30110  0.41960  0.79967  1.0000
  C   C144      1.0  0.69890  0.58040  0.79967  1.0000
  H   H65       1.0  0.56500  0.24630  0.06940  1.0000
  H   H66       1.0  0.24630  0.43500  0.93060  1.0000
  H   H67       1.0  0.43500  0.75370  0.06940  1.0000
  H   H68       1.0  0.75370  0.56500  0.93060  1.0000
  H   H69       1.0  0.56500  0.25370  0.18060  1.0000
  H   H70       1.0  0.43500  0.74630  0.18060  1.0000
  H   H71       1.0  0.75370  0.93500  0.31940  1.0000
  H   H72       1.0  0.24630  0.06500  0.31940  1.0000
  H   H73       1.0  0.06500  0.74630  0.56940  1.0000
  H   H74       1.0  0.74630  0.93500  0.43060  1.0000
  H   H75       1.0  0.93500  0.25370  0.56940  1.0000
  H   H76       1.0  0.25370  0.06500  0.43060  1.0000
  H   H77       1.0  0.06500  0.75370  0.68060  1.0000
  H   H78       1.0  0.93500  0.24630  0.68060  1.0000
  H   H79       1.0  0.25370  0.43500  0.81940  1.0000
  H   H80       1.0  0.74630  0.56500  0.81940  1.0000
  N   N1        1.0  0.75000  0.77500  0.87500  1.0000
  N   N2        1.0  0.77500  0.25000  0.12500  1.0000
  N   N3        1.0  0.25000  0.22500  0.87500  1.0000
  N   N4        1.0  0.22500  0.75000  0.12500  1.0000
  N   N5        1.0  0.75000  0.72500  0.37500  1.0000
  N   N6        1.0  0.25000  0.27500  0.37500  1.0000
  N   N7        1.0  0.27500  0.75000  0.62500  1.0000
  N   N8        1.0  0.72500  0.25000  0.62500  1.0000
  H   H81       1.0  0.75000  0.71270  0.87500  1.0000
  H   H82       1.0  0.71270  0.25000  0.12500  1.0000
  H   H83       1.0  0.25000  0.28730  0.87500  1.0000
  H   H84       1.0  0.28730  0.75000  0.12500  1.0000
  H   H85       1.0  0.75000  0.78730  0.37500  1.0000
  H   H86       1.0  0.25000  0.21270  0.37500  1.0000
  H   H87       1.0  0.21270  0.75000  0.62500  1.0000
  H   H88       1.0  0.78730  0.25000  0.62500  1.0000
  C   C145      1.0  0.72830  0.93110  0.89523  1.0000
  C   C146      1.0  0.93110  0.27170  0.10477  1.0000
  C   C147      1.0  0.27170  0.06890  0.89523  1.0000
  C   C148      1.0  0.06890  0.72830  0.10477  1.0000
  C   C149      1.0  0.72830  0.56890  0.35477  1.0000
  C   C150      1.0  0.27170  0.43110  0.35477  1.0000
  C   C151      1.0  0.06890  0.77170  0.14523  1.0000
  C   C152      1.0  0.93110  0.22830  0.14523  1.0000
  C   C153      1.0  0.22830  0.43110  0.39523  1.0000
  C   C154      1.0  0.43110  0.77170  0.60477  1.0000
  C   C155      1.0  0.77170  0.56890  0.39523  1.0000
  C   C156      1.0  0.56890  0.22830  0.60477  1.0000
  C   C157      1.0  0.22830  0.06890  0.85477  1.0000
  C   C158      1.0  0.77170  0.93110  0.85477  1.0000
  C   C159      1.0  0.56890  0.27170  0.64523  1.0000
  C   C160      1.0  0.43110  0.72830  0.64523  1.0000
  C   C161      1.0  0.62730  0.05570  0.99047  1.0000
  C   C162      1.0  0.05570  0.37270  0.00953  1.0000
  C   C163      1.0  0.37270  0.94430  0.99047  1.0000
  C   C164      1.0  0.94430  0.62730  0.00953  1.0000
  C   C165      1.0  0.62730  0.44430  0.25953  1.0000
  C   C166      1.0  0.37270  0.55570  0.25953  1.0000
  C   C167      1.0  0.94430  0.87270  0.24047  1.0000
  C   C168      1.0  0.05570  0.12730  0.24047  1.0000
  C   C169      1.0  0.12730  0.55570  0.49047  1.0000
  C   C170      1.0  0.55570  0.87270  0.50953  1.0000
  C   C171      1.0  0.87270  0.44430  0.49047  1.0000
  C   C172      1.0  0.44430  0.12730  0.50953  1.0000
  C   C173      1.0  0.12730  0.94430  0.75953  1.0000
  C   C174      1.0  0.87270  0.05570  0.75953  1.0000
  C   C175      1.0  0.44430  0.37270  0.74047  1.0000
  C   C176      1.0  0.55570  0.62730  0.74047  1.0000
  C   C177      1.0  0.66310  0.81050  0.94260  1.0000
  C   C178      1.0  0.81050  0.33690  0.05740  1.0000
  C   C179      1.0  0.33690  0.18950  0.94260  1.0000
  C   C180      1.0  0.18950  0.66310  0.05740  1.0000
  C   C181      1.0  0.66310  0.68950  0.30740  1.0000
  C   C182      1.0  0.33690  0.31050  0.30740  1.0000
  C   C183      1.0  0.18950  0.83690  0.19260  1.0000
  C   C184      1.0  0.81050  0.16310  0.19260  1.0000
  C   C185      1.0  0.16310  0.31050  0.44260  1.0000
  C   C186      1.0  0.31050  0.83690  0.55740  1.0000
  C   C187      1.0  0.83690  0.68950  0.44260  1.0000
  C   C188      1.0  0.68950  0.16310  0.55740  1.0000
  C   C189      1.0  0.16310  0.18950  0.80740  1.0000
  C   C190      1.0  0.83690  0.81050  0.80740  1.0000
  C   C191      1.0  0.68950  0.33690  0.69260  1.0000
  C   C192      1.0  0.31050  0.66310  0.69260  1.0000
  H   H89       1.0  0.64930  0.74610  0.94880  1.0000
  H   H90       1.0  0.74610  0.35070  0.05120  1.0000
  H   H91       1.0  0.35070  0.25390  0.94880  1.0000
  H   H92       1.0  0.25390  0.64930  0.05120  1.0000
  H   H93       1.0  0.64930  0.75390  0.30120  1.0000
  H   H94       1.0  0.35070  0.24610  0.30120  1.0000
  H   H95       1.0  0.25390  0.85070  0.19880  1.0000
  H   H96       1.0  0.74610  0.14930  0.19880  1.0000
  H   H97       1.0  0.14930  0.24610  0.44880  1.0000
  H   H98       1.0  0.24610  0.85070  0.55120  1.0000
  H   H99       1.0  0.85070  0.75390  0.44880  1.0000
  H   H100      1.0  0.75390  0.14930  0.55120  1.0000
  H   H101      1.0  0.14930  0.25390  0.80120  1.0000
  H   H102      1.0  0.85070  0.74610  0.80120  1.0000
  H   H103      1.0  0.75390  0.35070  0.69880  1.0000
  H   H104      1.0  0.24610  0.64930  0.69880  1.0000
  C   C193      1.0  0.71200  0.83360  0.90710  1.0000
  C   C194      1.0  0.83360  0.28800  0.09290  1.0000
  C   C195      1.0  0.28800  0.16640  0.90710  1.0000
  C   C196      1.0  0.16640  0.71200  0.09290  1.0000
  C   C197      1.0  0.71200  0.66640  0.34290  1.0000
  C   C198      1.0  0.28800  0.33360  0.34290  1.0000
  C   C199      1.0  0.16640  0.78800  0.15710  1.0000
  C   C200      1.0  0.83360  0.21200  0.15710  1.0000
  C   C201      1.0  0.21200  0.33360  0.40710  1.0000
  C   C202      1.0  0.33360  0.78800  0.59290  1.0000
  C   C203      1.0  0.78800  0.66640  0.40710  1.0000
  C   C204      1.0  0.66640  0.21200  0.59290  1.0000
  C   C205      1.0  0.21200  0.16640  0.84290  1.0000
  C   C206      1.0  0.78800  0.83360  0.84290  1.0000
  C   C207      1.0  0.66640  0.28800  0.65710  1.0000
  C   C208      1.0  0.33360  0.71200  0.65710  1.0000
  C   C209      1.0  0.57160  0.32840  0.99463  1.0000
  C   C210      1.0  0.32840  0.42840  0.00537  1.0000
  C   C211      1.0  0.42840  0.67160  0.99463  1.0000
  C   C212      1.0  0.67160  0.57160  0.00537  1.0000
  C   C213      1.0  0.57160  0.17160  0.25537  1.0000
  C   C214      1.0  0.42840  0.82840  0.25537  1.0000
  C   C215      1.0  0.67160  0.92840  0.24463  1.0000
  C   C216      1.0  0.32840  0.07160  0.24463  1.0000
  C   C217      1.0  0.07160  0.82840  0.49463  1.0000
  C   C218      1.0  0.82840  0.92840  0.50537  1.0000
  C   C219      1.0  0.92840  0.17160  0.49463  1.0000
  C   C220      1.0  0.17160  0.07160  0.50537  1.0000
  C   C221      1.0  0.07160  0.67160  0.75537  1.0000
  C   C222      1.0  0.92840  0.32840  0.75537  1.0000
  C   C223      1.0  0.17160  0.42840  0.74463  1.0000
  C   C224      1.0  0.82840  0.57160  0.74463  1.0000
