data_image0
_chemical_formula_structural       I3Mo2Cu6S6O2N10CHCHC3HCHCHCHCHCHCHCHC2HCHCHCHC3HCHCHCHCHCHCHCHC3HCHCHCHCHCHCHCHC3HCHCHCHCHCHCHCHC2HCH
_chemical_formula_sum              "I3 Mo2 Cu6 S6 O2 N10 C50 H40"
_cell_length_a       11.0329
_cell_length_b       11.8242
_cell_length_c       15.3874
_cell_angle_alpha    72.298
_cell_angle_beta     81.444
_cell_angle_gamma    84.862

_space_group_name_H-M_alt    "P 1"
_space_group_IT_number       1

loop_
  _space_group_symop_operation_xyz
  'x, y, z'

loop_
  _atom_site_type_symbol
  _atom_site_label
  _atom_site_symmetry_multiplicity
  _atom_site_fract_x
  _atom_site_fract_y
  _atom_site_fract_z
  _atom_site_occupancy
  I   I1        1.0  0.68864  0.63568  0.67896  1.0000
  I   I2        1.0  0.30385  0.37530  0.31783  1.0000
  I   I3        1.0  0.06648  0.25805  0.93779  1.0000
  Mo  Mo1       1.0  0.03917  0.82040  0.72083  1.0000
  Mo  Mo2       1.0  0.96120  0.18052  0.27835  1.0000
  Cu  Cu1       1.0  0.80484  0.75212  0.74865  1.0000
  Cu  Cu2       1.0  0.94486  0.03082  0.73440  1.0000
  Cu  Cu3       1.0  0.05464  0.74341  0.90180  1.0000
  Cu  Cu4       1.0  0.95473  0.24583  0.09453  1.0000
  Cu  Cu5       1.0  0.19542  0.24561  0.25036  1.0000
  Cu  Cu6       1.0  0.05896  0.96509  0.27469  1.0000
  S   S1        1.0  0.88120  0.92470  0.65038  1.0000
  S   S2        1.0  0.10400  0.92720  0.80460  1.0000
  S   S3        1.0  0.96760  0.64883  0.81809  1.0000
  S   S4        1.0  0.11530  0.07920  0.35629  1.0000
  S   S5        1.0  0.89910  0.06750  0.19840  1.0000
  S   S6        1.0  0.03680  0.34830  0.17631  1.0000
  O   O1        1.0  0.15180  0.79740  0.64330  1.0000
  O   O2        1.0  0.83690  0.21440  0.35200  1.0000
  N   N1        1.0  0.66190  0.78830  0.84690  1.0000
  N   N2        1.0  0.19770  0.92110  0.17830  1.0000
  N   N3        1.0  0.96170  0.20160  0.64790  1.0000
  N   N4        1.0  0.95470  0.72070  0.02580  1.0000
  N   N5        1.0  0.54820  0.58860  0.43100  1.0000
  N   N6        1.0  0.21630  0.64210  0.94100  1.0000
  N   N7        1.0  0.78310  0.33840  0.05900  1.0000
  N   N8        1.0  0.33680  0.19730  0.15440  1.0000
  N   N9        1.0  0.80310  0.06830  0.83060  1.0000
  N   N10       1.0  0.03280  0.79110  0.35830  1.0000
  C   C1        1.0  0.68160  0.78330  0.92680  1.0000
  H   H1        1.0  0.76070  0.76280  0.94210  1.0000
  C   C2        1.0  0.58610  0.80820  0.99650  1.0000
  H   H2        1.0  0.60320  0.79650  0.05610  1.0000
  C   C3        1.0  0.47740  0.84660  0.97470  1.0000
  C   C4        1.0  0.38140  0.86970  0.04170  1.0000
  C   C5        1.0  0.38140  0.81130  0.14000  1.0000
  H   H3        1.0  0.44250  0.75380  0.16010  1.0000
  C   C6        1.0  0.29180  0.84020  0.20360  1.0000
  H   H4        1.0  0.29580  0.80320  0.26590  1.0000
  C   C7        1.0  0.19030  0.97420  0.08760  1.0000
  H   H5        1.0  0.12600  0.02920  0.07020  1.0000
  C   C8        1.0  0.27850  0.94740  0.01900  1.0000
  H   H6        1.0  0.26850  0.98200  0.95740  1.0000
  C   C9        1.0  0.45370  0.85190  0.88880  1.0000
  H   H7        1.0  0.37550  0.87370  0.87190  1.0000
  C   C10       1.0  0.54890  0.82400  0.82680  1.0000
  H   H8        1.0  0.53230  0.83090  0.76780  1.0000
  C   C11       1.0  0.97970  0.22480  0.55960  1.0000
  H   H9        1.0  0.97790  0.16340  0.53380  1.0000
  C   C12       1.0  0.00150  0.33770  0.50240  1.0000
  H   H10       1.0  0.02770  0.34810  0.44020  1.0000
  C   C13       1.0  0.98530  0.43840  0.53490  1.0000
  C   C14       1.0  0.97200  0.41730  0.62950  1.0000
  H   H11       1.0  0.98100  0.47810  0.65430  1.0000
  C   C15       1.0  0.94260  0.29850  0.68960  1.0000
  H   H12       1.0  0.91320  0.28520  0.75150  1.0000
  C   C16       1.0  0.93180  0.80950  0.07020  1.0000
  H   H13       1.0  0.97010  0.88140  0.04730  1.0000
  C   C17       1.0  0.84600  0.78330  0.15270  1.0000
  H   H14       1.0  0.82380  0.84260  0.18100  1.0000
  C   C18       1.0  0.79510  0.67410  0.19180  1.0000
  C   C19       1.0  0.69960  0.64430  0.28230  1.0000
  C   C20       1.0  0.72180  0.70290  0.34760  1.0000
  H   H15       1.0  0.79030  0.74740  0.33930  1.0000
  C   C21       1.0  0.63740  0.68900  0.42010  1.0000
  H   H16       1.0  0.63170  0.73380  0.46070  1.0000
  C   C22       1.0  0.53830  0.55800  0.36440  1.0000
  H   H17       1.0  0.47290  0.51250  0.36620  1.0000
  C   C23       1.0  0.60840  0.58360  0.29840  1.0000
  H   H18       1.0  0.59440  0.55480  0.25110  1.0000
  C   C24       1.0  0.82850  0.58590  0.14760  1.0000
  H   H19       1.0  0.79660  0.51090  0.17150  1.0000
  C   C25       1.0  0.90630  0.61220  0.07110  1.0000
  H   H20       1.0  0.93090  0.55090  0.04530  1.0000
  C   C26       1.0  0.30490  0.61010  0.88160  1.0000
  H   H21       1.0  0.29140  0.62750  0.82060  1.0000
  C   C27       1.0  0.40860  0.55620  0.90480  1.0000
  H   H22       1.0  0.46450  0.53820  0.85880  1.0000
  C   C28       1.0  0.44010  0.52560  0.98680  1.0000
  C   C29       1.0  0.55670  0.46580  0.01320  1.0000
  C   C30       1.0  0.66020  0.46310  0.94980  1.0000
  H   H23       1.0  0.65640  0.50510  0.88840  1.0000
  C   C31       1.0  0.76560  0.40250  0.97340  1.0000
  H   H24       1.0  0.83080  0.40550  0.92700  1.0000
  C   C32       1.0  0.69190  0.33790  0.12120  1.0000
  H   H25       1.0  0.70210  0.29410  0.18130  1.0000
  C   C33       1.0  0.57420  0.39970  0.10570  1.0000
  H   H26       1.0  0.51200  0.39680  0.15420  1.0000
  C   C34       1.0  0.35150  0.54850  0.05600  1.0000
  H   H27       1.0  0.36160  0.52840  0.11790  1.0000
  C   C35       1.0  0.23970  0.60910  0.01660  1.0000
  H   H28       1.0  0.17680  0.62350  0.06000  1.0000
  C   C36       1.0  0.33020  0.24780  0.06210  1.0000
  H   H29       1.0  0.26400  0.29920  0.04290  1.0000
  C   C37       1.0  0.41600  0.22430  0.00140  1.0000
  H   H30       1.0  0.40700  0.25530  0.93940  1.0000
  C   C38       1.0  0.52200  0.15340  0.02660  1.0000
  C   C39       1.0  0.62270  0.12450  0.95730  1.0000
  C   C40       1.0  0.59510  0.11950  0.87290  1.0000
  H   H31       1.0  0.51610  0.13210  0.85650  1.0000
  C   C41       1.0  0.69660  0.09390  0.81570  1.0000
  H   H32       1.0  0.68140  0.09670  0.75720  1.0000
  C   C42       1.0  0.82560  0.07400  0.91120  1.0000
  H   H33       1.0  0.90640  0.05980  0.92390  1.0000
  C   C43       1.0  0.74090  0.09880  0.97630  1.0000
  H   H34       1.0  0.76230  0.09830  0.03260  1.0000
  C   C44       1.0  0.52050  0.10680  0.12260  1.0000
  H   H35       1.0  0.58930  0.06350  0.14570  1.0000
  C   C45       1.0  0.42230  0.12320  0.18190  1.0000
  H   H36       1.0  0.41780  0.07930  0.24360  1.0000
  C   C46       1.0  0.01390  0.76910  0.45080  1.0000
  H   H37       1.0  0.00920  0.83270  0.47510  1.0000
  C   C47       1.0  0.00110  0.65290  0.51190  1.0000
  H   H38       1.0  0.99100  0.64060  0.57510  1.0000
  C   C48       1.0  0.00370  0.56280  0.47890  1.0000
  C   C49       1.0  0.03090  0.58580  0.37580  1.0000
  H   H39       1.0  0.04100  0.52420  0.34910  1.0000
  C   C50       1.0  0.03960  0.70130  0.32460  1.0000
  H   H40       1.0  0.05140  0.71780  0.26100  1.0000
