data_image0
_chemical_formula_structural       Zn4O24C20H4C4H4C4H4C4H4O8C20H4C4H4C4H4C4H4
_chemical_formula_sum              "Zn4 O32 C64 H32"
_cell_length_a       8.142
_cell_length_b       21.537
_cell_length_c       11.782
_cell_angle_alpha    90
_cell_angle_beta     99.441
_cell_angle_gamma    90

_space_group_name_H-M_alt    "P 1"
_space_group_IT_number       1

loop_
  _space_group_symop_operation_xyz
  'x, y, z'

loop_
  _atom_site_type_symbol
  _atom_site_label
  _atom_site_symmetry_multiplicity
  _atom_site_fract_x
  _atom_site_fract_y
  _atom_site_fract_z
  _atom_site_occupancy
  Zn  Zn1       1.0  0.43669  0.39430  0.84379  1.0000
  Zn  Zn2       1.0  0.56331  0.89430  0.65621  1.0000
  Zn  Zn3       1.0  0.56331  0.60570  0.15621  1.0000
  Zn  Zn4       1.0  0.43669  0.10570  0.34379  1.0000
  O   O1        1.0  0.68080  0.39685  0.09370  1.0000
  O   O2        1.0  0.31920  0.89685  0.40630  1.0000
  O   O3        1.0  0.31920  0.60315  0.90630  1.0000
  O   O4        1.0  0.68080  0.10315  0.59370  1.0000
  O   O5        1.0  0.26340  0.34506  0.75063  1.0000
  O   O6        1.0  0.73660  0.84506  0.74937  1.0000
  O   O7        1.0  0.73660  0.65494  0.24937  1.0000
  O   O8        1.0  0.26340  0.15494  0.25063  1.0000
  O   O9        1.0  0.63620  0.34973  0.80766  1.0000
  O   O10       1.0  0.36380  0.84973  0.69234  1.0000
  O   O11       1.0  0.36380  0.65027  0.19234  1.0000
  O   O12       1.0  0.63620  0.15027  0.30766  1.0000
  O   O13       1.0  0.54660  0.51519  0.17441  1.0000
  O   O14       1.0  0.45340  0.01519  0.32559  1.0000
  O   O15       1.0  0.45340  0.48481  0.82559  1.0000
  O   O16       1.0  0.54660  0.98481  0.67441  1.0000
  O   O17       1.0  0.41870  0.38318  0.00688  1.0000
  O   O18       1.0  0.58130  0.88318  0.49312  1.0000
  O   O19       1.0  0.58130  0.61682  0.99312  1.0000
  O   O20       1.0  0.41870  0.11682  0.50688  1.0000
  O   O21       1.0  0.65170  0.52168  0.35964  1.0000
  O   O22       1.0  0.34830  0.02168  0.14036  1.0000
  O   O23       1.0  0.34830  0.47832  0.64036  1.0000
  O   O24       1.0  0.65170  0.97832  0.85964  1.0000
  C   C1        1.0  0.53110  0.39004  0.09450  1.0000
  C   C2        1.0  0.46890  0.89004  0.40550  1.0000
  C   C3        1.0  0.46890  0.60996  0.90550  1.0000
  C   C4        1.0  0.53110  0.10996  0.59450  1.0000
  C   C5        1.0  0.47450  0.38445  0.20890  1.0000
  C   C6        1.0  0.52550  0.88445  0.29110  1.0000
  C   C7        1.0  0.52550  0.61555  0.79110  1.0000
  C   C8        1.0  0.47450  0.11555  0.70890  1.0000
  C   C9        1.0  0.57510  0.49307  0.27610  1.0000
  C   C10       1.0  0.42490  0.99307  0.22390  1.0000
  C   C11       1.0  0.42490  0.50693  0.72390  1.0000
  C   C12       1.0  0.57510  0.00693  0.77610  1.0000
  C   C13       1.0  0.50630  0.42952  0.29450  1.0000
  C   C14       1.0  0.49370  0.92952  0.20550  1.0000
  C   C15       1.0  0.49370  0.57048  0.70550  1.0000
  C   C16       1.0  0.50630  0.07048  0.79450  1.0000
  C   C17       1.0  0.46080  0.41765  0.40080  1.0000
  C   C18       1.0  0.53920  0.91765  0.09920  1.0000
  C   C19       1.0  0.53920  0.58235  0.59920  1.0000
  C   C20       1.0  0.46080  0.08235  0.90080  1.0000
  H   H1        1.0  0.48180  0.44750  0.45840  1.0000
  H   H2        1.0  0.51820  0.94750  0.04160  1.0000
  H   H3        1.0  0.51820  0.55250  0.54160  1.0000
  H   H4        1.0  0.48180  0.05250  0.95840  1.0000
  C   C21       1.0  0.38490  0.36258  0.42340  1.0000
  C   C22       1.0  0.61510  0.86258  0.07660  1.0000
  C   C23       1.0  0.61510  0.63742  0.57660  1.0000
  C   C24       1.0  0.38490  0.13742  0.92340  1.0000
  H   H5        1.0  0.35480  0.35570  0.49510  1.0000
  H   H6        1.0  0.64520  0.85570  0.00490  1.0000
  H   H7        1.0  0.64520  0.64430  0.50490  1.0000
  H   H8        1.0  0.35480  0.14430  0.99510  1.0000
  C   C25       1.0  0.35460  0.31828  0.33890  1.0000
  C   C26       1.0  0.64540  0.81828  0.16110  1.0000
  C   C27       1.0  0.64540  0.68172  0.66110  1.0000
  C   C28       1.0  0.35460  0.18172  0.83890  1.0000
  H   H9        1.0  0.30440  0.28100  0.35330  1.0000
  H   H10       1.0  0.69560  0.78100  0.14670  1.0000
  H   H11       1.0  0.69560  0.71900  0.64670  1.0000
  H   H12       1.0  0.30440  0.21900  0.85330  1.0000
  C   C29       1.0  0.39880  0.32914  0.23190  1.0000
  C   C30       1.0  0.60120  0.82914  0.26810  1.0000
  C   C31       1.0  0.60120  0.67086  0.76810  1.0000
  C   C32       1.0  0.39880  0.17086  0.73190  1.0000
  H   H13       1.0  0.37750  0.29900  0.17490  1.0000
  H   H14       1.0  0.62250  0.79900  0.32510  1.0000
  H   H15       1.0  0.62250  0.70100  0.82510  1.0000
  H   H16       1.0  0.37750  0.20100  0.67490  1.0000
  O   O25       1.0  0.73910  0.42637  0.71620  1.0000
  O   O26       1.0  0.26090  0.92637  0.78380  1.0000
  O   O27       1.0  0.26090  0.57363  0.28380  1.0000
  O   O28       1.0  0.73910  0.07363  0.21620  1.0000
  O   O29       1.0  0.06920  0.39034  0.82840  1.0000
  O   O30       1.0  0.93080  0.89034  0.67160  1.0000
  O   O31       1.0  0.93080  0.60966  0.17160  1.0000
  O   O32       1.0  0.06920  0.10966  0.32840  1.0000
  C   C33       1.0  0.72730  0.37018  0.73880  1.0000
  C   C34       1.0  0.27270  0.87018  0.76120  1.0000
  C   C35       1.0  0.27270  0.62982  0.26120  1.0000
  C   C36       1.0  0.72730  0.12982  0.23880  1.0000
  C   C37       1.0  0.11220  0.35399  0.75930  1.0000
  C   C38       1.0  0.88780  0.85399  0.74070  1.0000
  C   C39       1.0  0.88780  0.64601  0.24070  1.0000
  C   C40       1.0  0.11220  0.14601  0.25930  1.0000
  C   C41       1.0  0.81430  0.32314  0.67580  1.0000
  C   C42       1.0  0.18570  0.82314  0.82420  1.0000
  C   C43       1.0  0.18570  0.67686  0.32420  1.0000
  C   C44       1.0  0.81430  0.17686  0.17580  1.0000
  C   C45       1.0  0.98700  0.31765  0.67850  1.0000
  C   C46       1.0  0.01300  0.81765  0.82150  1.0000
  C   C47       1.0  0.01300  0.68235  0.32150  1.0000
  C   C48       1.0  0.98700  0.18235  0.17850  1.0000
  C   C49       1.0  0.70820  0.28611  0.59890  1.0000
  C   C50       1.0  0.29180  0.78611  0.90110  1.0000
  C   C51       1.0  0.29180  0.71389  0.40110  1.0000
  C   C52       1.0  0.70820  0.21389  0.09890  1.0000
  H   H17       1.0  0.59420  0.28790  0.59960  1.0000
  H   H18       1.0  0.40580  0.78790  0.90040  1.0000
  H   H19       1.0  0.40580  0.71210  0.40040  1.0000
  H   H20       1.0  0.59420  0.21210  0.09960  1.0000
  C   C53       1.0  0.04440  0.27675  0.60260  1.0000
  C   C54       1.0  0.95560  0.77675  0.89740  1.0000
  C   C55       1.0  0.95560  0.72325  0.39740  1.0000
  C   C56       1.0  0.04440  0.22325  0.10260  1.0000
  H   H21       1.0  0.15840  0.27270  0.60400  1.0000
  H   H22       1.0  0.84160  0.77270  0.89600  1.0000
  H   H23       1.0  0.84160  0.72730  0.39600  1.0000
  H   H24       1.0  0.15840  0.22730  0.10400  1.0000
  C   C57       1.0  0.93580  0.24189  0.52490  1.0000
  C   C58       1.0  0.06420  0.74189  0.97510  1.0000
  C   C59       1.0  0.06420  0.75811  0.47510  1.0000
  C   C60       1.0  0.93580  0.25811  0.02490  1.0000
  H   H25       1.0  0.97700  0.21500  0.47460  1.0000
  H   H26       1.0  0.02300  0.71500  0.02540  1.0000
  H   H27       1.0  0.02300  0.78500  0.52540  1.0000
  H   H28       1.0  0.97700  0.28500  0.97460  1.0000
  C   C61       1.0  0.76610  0.24716  0.52230  1.0000
  C   C62       1.0  0.23390  0.74716  0.97770  1.0000
  C   C63       1.0  0.23390  0.75284  0.47770  1.0000
  C   C64       1.0  0.76610  0.25284  0.02230  1.0000
  H   H29       1.0  0.69220  0.22460  0.46940  1.0000
  H   H30       1.0  0.30780  0.72460  0.03060  1.0000
  H   H31       1.0  0.30780  0.77540  0.53060  1.0000
  H   H32       1.0  0.69220  0.27540  0.96940  1.0000
