data_image0
_chemical_formula_structural       Ge8O52C8H4C4H4C12H4C4H4C4
_chemical_formula_sum              "Ge8 O52 C32 H16"
_cell_length_a       8.7612
_cell_length_b       14.2158
_cell_length_c       15.449
_cell_angle_alpha    90
_cell_angle_beta     90
_cell_angle_gamma    90

_space_group_name_H-M_alt    "P 1"
_space_group_IT_number       1

loop_
  _space_group_symop_operation_xyz
  'x, y, z'

loop_
  _atom_site_type_symbol
  _atom_site_label
  _atom_site_symmetry_multiplicity
  _atom_site_fract_x
  _atom_site_fract_y
  _atom_site_fract_z
  _atom_site_occupancy
  Ge  Ge1       1.0  0.99560  0.52289  0.19748  1.0000
  Ge  Ge2       1.0  0.50440  0.47711  0.69748  1.0000
  Ge  Ge3       1.0  0.00440  0.02289  0.30252  1.0000
  Ge  Ge4       1.0  0.49560  0.97711  0.80252  1.0000
  Ge  Ge5       1.0  0.00955  0.74649  0.21291  1.0000
  Ge  Ge6       1.0  0.49045  0.25351  0.71291  1.0000
  Ge  Ge7       1.0  0.99045  0.24649  0.28709  1.0000
  Ge  Ge8       1.0  0.50955  0.75351  0.78709  1.0000
  O   O1        1.0  0.09100  0.55210  0.30570  1.0000
  O   O2        1.0  0.40900  0.44790  0.80570  1.0000
  O   O3        1.0  0.90900  0.05210  0.19430  1.0000
  O   O4        1.0  0.59100  0.94790  0.69430  1.0000
  O   O5        1.0  0.30680  0.52310  0.37600  1.0000
  O   O6        1.0  0.19320  0.47690  0.87600  1.0000
  O   O7        1.0  0.69320  0.02310  0.12400  1.0000
  O   O8        1.0  0.80680  0.97690  0.62400  1.0000
  O   O9        1.0  0.14390  0.21540  0.20330  1.0000
  O   O10       1.0  0.35610  0.78460  0.70330  1.0000
  O   O11       1.0  0.85610  0.71540  0.29670  1.0000
  O   O12       1.0  0.64390  0.28460  0.79670  1.0000
  O   O13       1.0  0.37260  0.26530  0.16110  1.0000
  O   O14       1.0  0.12740  0.73470  0.66110  1.0000
  O   O15       1.0  0.62740  0.76530  0.33890  1.0000
  O   O16       1.0  0.87260  0.23470  0.83890  1.0000
  O   O17       1.0  0.15450  0.44890  0.17520  1.0000
  O   O18       1.0  0.34550  0.55110  0.67520  1.0000
  O   O19       1.0  0.84550  0.94890  0.32480  1.0000
  O   O20       1.0  0.65450  0.05110  0.82480  1.0000
  O   O21       1.0  0.11970  0.33020  0.33070  1.0000
  O   O22       1.0  0.38030  0.66980  0.83070  1.0000
  O   O23       1.0  0.88030  0.83020  0.16930  1.0000
  O   O24       1.0  0.61970  0.16980  0.66930  1.0000
  O   O25       1.0  0.90590  0.47970  0.09210  1.0000
  O   O26       1.0  0.59410  0.52030  0.59210  1.0000
  O   O27       1.0  0.09410  0.97970  0.40790  1.0000
  O   O28       1.0  0.40590  0.02030  0.90790  1.0000
  O   O29       1.0  0.70510  0.40050  0.04490  1.0000
  O   O30       1.0  0.79490  0.59950  0.54490  1.0000
  O   O31       1.0  0.29490  0.90050  0.45510  1.0000
  O   O32       1.0  0.20510  0.09950  0.95510  1.0000
  O   O33       1.0  0.83400  0.28610  0.36280  1.0000
  O   O34       1.0  0.66600  0.71390  0.86280  1.0000
  O   O35       1.0  0.16600  0.78610  0.13720  1.0000
  O   O36       1.0  0.33400  0.21390  0.63720  1.0000
  O   O37       1.0  0.60750  0.35760  0.36050  1.0000
  O   O38       1.0  0.89250  0.64240  0.86050  1.0000
  O   O39       1.0  0.39250  0.85760  0.13950  1.0000
  O   O40       1.0  0.10750  0.14240  0.63950  1.0000
  O   O41       1.0  0.82990  0.47860  0.25137  1.0000
  O   O42       1.0  0.67010  0.52140  0.75137  1.0000
  O   O43       1.0  0.17010  0.97860  0.24863  1.0000
  O   O44       1.0  0.32990  0.02140  0.74863  1.0000
  O   O45       1.0  0.86750  0.27700  0.20060  1.0000
  O   O46       1.0  0.63250  0.72300  0.70060  1.0000
  O   O47       1.0  0.13250  0.77700  0.29940  1.0000
  O   O48       1.0  0.36750  0.22300  0.79940  1.0000
  O   O49       1.0  0.00140  0.63761  0.15990  1.0000
  O   O50       1.0  0.49860  0.36239  0.65990  1.0000
  O   O51       1.0  0.99860  0.13761  0.34010  1.0000
  O   O52       1.0  0.50140  0.86239  0.84010  1.0000
  C   C1        1.0  0.22180  0.51000  0.31460  1.0000
  C   C2        1.0  0.27820  0.49000  0.81460  1.0000
  C   C3        1.0  0.77820  0.01000  0.18540  1.0000
  C   C4        1.0  0.72180  0.99000  0.68540  1.0000
  C   C5        1.0  0.25960  0.44070  0.24400  1.0000
  C   C6        1.0  0.24040  0.55930  0.74400  1.0000
  C   C7        1.0  0.74040  0.94070  0.25600  1.0000
  C   C8        1.0  0.75960  0.05930  0.75600  1.0000
  H   H1        1.0  0.36260  0.45370  0.22230  1.0000
  H   H2        1.0  0.13740  0.54630  0.72230  1.0000
  H   H3        1.0  0.63740  0.95370  0.27770  1.0000
  H   H4        1.0  0.86260  0.04630  0.77770  1.0000
  C   C9        1.0  0.25560  0.34150  0.28220  1.0000
  C   C10       1.0  0.24440  0.65850  0.78220  1.0000
  C   C11       1.0  0.74440  0.84150  0.21780  1.0000
  C   C12       1.0  0.75560  0.15850  0.71780  1.0000
  H   H5        1.0  0.34370  0.33300  0.32050  1.0000
  H   H6        1.0  0.15630  0.66700  0.82050  1.0000
  H   H7        1.0  0.65630  0.83300  0.17950  1.0000
  H   H8        1.0  0.84370  0.16700  0.67950  1.0000
  C   C13       1.0  0.26330  0.27010  0.20930  1.0000
  C   C14       1.0  0.23670  0.72990  0.70930  1.0000
  C   C15       1.0  0.73670  0.77010  0.29070  1.0000
  C   C16       1.0  0.76330  0.22990  0.79070  1.0000
  C   C17       1.0  0.77850  0.43470  0.10390  1.0000
  C   C18       1.0  0.72150  0.56530  0.60390  1.0000
  C   C19       1.0  0.22150  0.93470  0.39610  1.0000
  C   C20       1.0  0.27850  0.06530  0.89610  1.0000
  C   C21       1.0  0.73090  0.42560  0.19740  1.0000
  C   C22       1.0  0.76910  0.57440  0.69740  1.0000
  C   C23       1.0  0.26910  0.92560  0.30260  1.0000
  C   C24       1.0  0.23090  0.07440  0.80260  1.0000
  H   H9        1.0  0.62720  0.45060  0.20350  1.0000
  H   H10       1.0  0.87280  0.54940  0.70350  1.0000
  H   H11       1.0  0.37280  0.95060  0.29650  1.0000
  H   H12       1.0  0.12720  0.04940  0.79650  1.0000
  C   C25       1.0  0.73030  0.32320  0.22610  1.0000
  C   C26       1.0  0.76970  0.67680  0.72610  1.0000
  C   C27       1.0  0.26970  0.82320  0.27390  1.0000
  C   C28       1.0  0.23030  0.17680  0.77390  1.0000
  H   H13       1.0  0.64220  0.29070  0.20090  1.0000
  H   H14       1.0  0.85780  0.70930  0.70090  1.0000
  H   H15       1.0  0.35780  0.79070  0.29910  1.0000
  H   H16       1.0  0.14220  0.20930  0.79910  1.0000
  C   C29       1.0  0.71770  0.32260  0.32400  1.0000
  C   C30       1.0  0.78230  0.67740  0.82400  1.0000
  C   C31       1.0  0.28230  0.82260  0.17600  1.0000
  C   C32       1.0  0.21770  0.17740  0.67600  1.0000
