data_image0
_chemical_formula_structural       Cu4O24C8H8C4H4
_chemical_formula_sum              "Cu4 O24 C12 H12"
_cell_length_a       8.7209
_cell_length_b       11.6527
_cell_length_c       8.9766
_cell_angle_alpha    90
_cell_angle_beta     90
_cell_angle_gamma    90

_space_group_name_H-M_alt    "P 1"
_space_group_IT_number       1

loop_
  _space_group_symop_operation_xyz
  'x, y, z'

loop_
  _atom_site_type_symbol
  _atom_site_label
  _atom_site_symmetry_multiplicity
  _atom_site_fract_x
  _atom_site_fract_y
  _atom_site_fract_z
  _atom_site_occupancy
  Cu  Cu1       1.0  0.50000  0.50000  0.50000  1.0000
  Cu  Cu2       1.0  0.00000  0.50000  0.00000  1.0000
  Cu  Cu3       1.0  0.50000  0.00000  0.50000  1.0000
  Cu  Cu4       1.0  0.00000  0.00000  0.00000  1.0000
  O   O1        1.0  0.30749  0.44590  0.41173  1.0000
  O   O2        1.0  0.19251  0.55410  0.91173  1.0000
  O   O3        1.0  0.69251  0.94590  0.58827  1.0000
  O   O4        1.0  0.80749  0.05410  0.08827  1.0000
  O   O5        1.0  0.69251  0.55410  0.58827  1.0000
  O   O6        1.0  0.80749  0.44590  0.08827  1.0000
  O   O7        1.0  0.30749  0.05410  0.41173  1.0000
  O   O8        1.0  0.19251  0.94590  0.91173  1.0000
  O   O9        1.0  0.12810  0.44541  0.23860  1.0000
  O   O10       1.0  0.37190  0.55459  0.73860  1.0000
  O   O11       1.0  0.87190  0.94541  0.76140  1.0000
  O   O12       1.0  0.62810  0.05459  0.26140  1.0000
  O   O13       1.0  0.87190  0.55459  0.76140  1.0000
  O   O14       1.0  0.62810  0.44541  0.26140  1.0000
  O   O15       1.0  0.12810  0.05459  0.23860  1.0000
  O   O16       1.0  0.37190  0.94541  0.73860  1.0000
  O   O17       1.0  0.46112  0.65589  0.42100  1.0000
  O   O18       1.0  0.03888  0.34411  0.92100  1.0000
  O   O19       1.0  0.53888  0.15589  0.57900  1.0000
  O   O20       1.0  0.96112  0.84411  0.07900  1.0000
  O   O21       1.0  0.53888  0.34411  0.57900  1.0000
  O   O22       1.0  0.96112  0.65589  0.07900  1.0000
  O   O23       1.0  0.46112  0.84411  0.42100  1.0000
  O   O24       1.0  0.03888  0.15589  0.92100  1.0000
  C   C1        1.0  0.24840  0.48238  0.29330  1.0000
  C   C2        1.0  0.25160  0.51762  0.79330  1.0000
  C   C3        1.0  0.75160  0.98238  0.70670  1.0000
  C   C4        1.0  0.74840  0.01762  0.20670  1.0000
  C   C5        1.0  0.75160  0.51762  0.70670  1.0000
  C   C6        1.0  0.74840  0.48238  0.20670  1.0000
  C   C7        1.0  0.24840  0.01762  0.29330  1.0000
  C   C8        1.0  0.25160  0.98238  0.79330  1.0000
  H   H1        1.0  0.29860  0.54130  0.24340  1.0000
  H   H2        1.0  0.20140  0.45870  0.74340  1.0000
  H   H3        1.0  0.70140  0.04130  0.75660  1.0000
  H   H4        1.0  0.79860  0.95870  0.25660  1.0000
  H   H5        1.0  0.70140  0.45870  0.75660  1.0000
  H   H6        1.0  0.79860  0.54130  0.25660  1.0000
  H   H7        1.0  0.29860  0.95870  0.24340  1.0000
  H   H8        1.0  0.20140  0.04130  0.74340  1.0000
  C   C9        1.0  0.49460  0.75000  0.47780  1.0000
  C   C10       1.0  0.00540  0.25000  0.97780  1.0000
  C   C11       1.0  0.50540  0.25000  0.52220  1.0000
  C   C12       1.0  0.99460  0.75000  0.02220  1.0000
  H   H9        1.0  0.54770  0.75000  0.56770  1.0000
  H   H10       1.0  0.95230  0.25000  0.06770  1.0000
  H   H11       1.0  0.45230  0.25000  0.43230  1.0000
  H   H12       1.0  0.04770  0.75000  0.93230  1.0000
