data_image0
_chemical_formula_structural       C4H4C4H4C4H4Cu4O24
_chemical_formula_sum              "C12 H12 Cu4 O24"
_cell_length_a       11.673
_cell_length_b       8.796
_cell_length_c       8.749
_cell_angle_alpha    90
_cell_angle_beta     93.892
_cell_angle_gamma    90

_space_group_name_H-M_alt    "P 1"
_space_group_IT_number       1

loop_
  _space_group_symop_operation_xyz
  'x, y, z'

loop_
  _atom_site_type_symbol
  _atom_site_label
  _atom_site_symmetry_multiplicity
  _atom_site_fract_x
  _atom_site_fract_y
  _atom_site_fract_z
  _atom_site_occupancy
  C   C1        1.0  0.02540  0.28830  0.74910  1.0000
  C   C2        1.0  0.97460  0.78830  0.75090  1.0000
  C   C3        1.0  0.97460  0.71170  0.25090  1.0000
  C   C4        1.0  0.02540  0.21170  0.24910  1.0000
  H   H1        1.0  0.96300  0.23000  0.68600  1.0000
  H   H2        1.0  0.03700  0.73000  0.81400  1.0000
  H   H3        1.0  0.03700  0.77000  0.31400  1.0000
  H   H4        1.0  0.96300  0.27000  0.18600  1.0000
  C   C5        1.0  0.24930  0.52340  0.49750  1.0000
  C   C6        1.0  0.75070  0.02340  0.00250  1.0000
  C   C7        1.0  0.75070  0.47660  0.50250  1.0000
  C   C8        1.0  0.24930  0.97660  0.99750  1.0000
  H   H5        1.0  0.25700  0.43100  0.56700  1.0000
  H   H6        1.0  0.74300  0.93100  0.93300  1.0000
  H   H7        1.0  0.74300  0.56900  0.43300  1.0000
  H   H8        1.0  0.25700  0.06900  0.06700  1.0000
  C   C9        1.0  0.49370  0.30280  0.76440  1.0000
  C   C10       1.0  0.50630  0.80280  0.73560  1.0000
  C   C11       1.0  0.50630  0.69720  0.23560  1.0000
  C   C12       1.0  0.49370  0.19720  0.26440  1.0000
  H   H9        1.0  0.54800  0.24800  0.71500  1.0000
  H   H10       1.0  0.45200  0.74800  0.78500  1.0000
  H   H11       1.0  0.45200  0.75200  0.28500  1.0000
  H   H12       1.0  0.54800  0.25200  0.21500  1.0000
  Cu  Cu1       1.0  0.00000  0.50000  0.50000  1.0000
  Cu  Cu2       1.0  0.00000  0.00000  0.00000  1.0000
  Cu  Cu3       1.0  0.50000  0.50000  0.50000  1.0000
  Cu  Cu4       1.0  0.50000  0.00000  0.00000  1.0000
  O   O1        1.0  0.06127  0.40960  0.69320  1.0000
  O   O2        1.0  0.93873  0.90960  0.80680  1.0000
  O   O3        1.0  0.93873  0.59040  0.30680  1.0000
  O   O4        1.0  0.06127  0.09040  0.19320  1.0000
  O   O5        1.0  0.06400  0.23340  0.87350  1.0000
  O   O6        1.0  0.93600  0.73340  0.62650  1.0000
  O   O7        1.0  0.93600  0.76660  0.12650  1.0000
  O   O8        1.0  0.06400  0.26660  0.37350  1.0000
  O   O9        1.0  0.15400  0.58430  0.46480  1.0000
  O   O10       1.0  0.84600  0.08430  0.03520  1.0000
  O   O11       1.0  0.84600  0.41570  0.53520  1.0000
  O   O12       1.0  0.15400  0.91570  0.96480  1.0000
  O   O13       1.0  0.34181  0.57450  0.45390  1.0000
  O   O14       1.0  0.65819  0.07450  0.04610  1.0000
  O   O15       1.0  0.65819  0.42550  0.54610  1.0000
  O   O16       1.0  0.34181  0.92550  0.95390  1.0000
  O   O17       1.0  0.45530  0.42040  0.69770  1.0000
  O   O18       1.0  0.54470  0.92040  0.80230  1.0000
  O   O19       1.0  0.54470  0.57960  0.30230  1.0000
  O   O20       1.0  0.45530  0.07960  0.19770  1.0000
  O   O21       1.0  0.46080  0.25030  0.88520  1.0000
  O   O22       1.0  0.53920  0.75030  0.61480  1.0000
  O   O23       1.0  0.53920  0.74970  0.11480  1.0000
  O   O24       1.0  0.46080  0.24970  0.38520  1.0000
