data_image0
_chemical_formula_structural       V16P16O72C8H16C8H16C8H24
_chemical_formula_sum              "V16 P16 O72 C24 H56"
_cell_length_a       15.6403
_cell_length_b       10.2112
_cell_length_c       18.6795
_cell_angle_alpha    90
_cell_angle_beta     105.484
_cell_angle_gamma    90

_space_group_name_H-M_alt    "P 1"
_space_group_IT_number       1

loop_
  _space_group_symop_operation_xyz
  'x, y, z'

loop_
  _atom_site_type_symbol
  _atom_site_label
  _atom_site_symmetry_multiplicity
  _atom_site_fract_x
  _atom_site_fract_y
  _atom_site_fract_z
  _atom_site_occupancy
  V   V1        1.0  0.16504  0.38063  0.08450  1.0000
  V   V2        1.0  0.66504  0.88063  0.08450  1.0000
  V   V3        1.0  0.83496  0.38063  0.41550  1.0000
  V   V4        1.0  0.33496  0.88063  0.41550  1.0000
  V   V5        1.0  0.83496  0.61937  0.91550  1.0000
  V   V6        1.0  0.33496  0.11937  0.91550  1.0000
  V   V7        1.0  0.16504  0.61937  0.58450  1.0000
  V   V8        1.0  0.66504  0.11937  0.58450  1.0000
  V   V9        1.0  0.24827  0.45311  0.28748  1.0000
  V   V10       1.0  0.74827  0.95311  0.28748  1.0000
  V   V11       1.0  0.75173  0.45311  0.21252  1.0000
  V   V12       1.0  0.25173  0.95311  0.21252  1.0000
  V   V13       1.0  0.75173  0.54689  0.71252  1.0000
  V   V14       1.0  0.25173  0.04689  0.71252  1.0000
  V   V15       1.0  0.24827  0.54689  0.78748  1.0000
  V   V16       1.0  0.74827  0.04689  0.78748  1.0000
  P   P1        1.0  0.20739  0.37992  0.92125  1.0000
  P   P2        1.0  0.70739  0.87992  0.92125  1.0000
  P   P3        1.0  0.79261  0.37992  0.57875  1.0000
  P   P4        1.0  0.29261  0.87992  0.57875  1.0000
  P   P5        1.0  0.79261  0.62008  0.07875  1.0000
  P   P6        1.0  0.29261  0.12008  0.07875  1.0000
  P   P7        1.0  0.20739  0.62008  0.42125  1.0000
  P   P8        1.0  0.70739  0.12008  0.42125  1.0000
  P   P9        1.0  0.83587  0.33230  0.83719  1.0000
  P   P10       1.0  0.33587  0.83230  0.83719  1.0000
  P   P11       1.0  0.16413  0.33230  0.66281  1.0000
  P   P12       1.0  0.66413  0.83230  0.66281  1.0000
  P   P13       1.0  0.16413  0.66770  0.16281  1.0000
  P   P14       1.0  0.66413  0.16770  0.16281  1.0000
  P   P15       1.0  0.83587  0.66770  0.33719  1.0000
  P   P16       1.0  0.33587  0.16770  0.33719  1.0000
  O   O1        1.0  0.20740  0.42730  0.99893  1.0000
  O   O2        1.0  0.70740  0.92730  0.99893  1.0000
  O   O3        1.0  0.79260  0.42730  0.50107  1.0000
  O   O4        1.0  0.29260  0.92730  0.50107  1.0000
  O   O5        1.0  0.79260  0.57270  0.00107  1.0000
  O   O6        1.0  0.29260  0.07270  0.00107  1.0000
  O   O7        1.0  0.20740  0.57270  0.49893  1.0000
  O   O8        1.0  0.70740  0.07270  0.49893  1.0000
  O   O9        1.0  0.28866  0.29860  0.92129  1.0000
  O   O10       1.0  0.78866  0.79860  0.92129  1.0000
  O   O11       1.0  0.71134  0.29860  0.57871  1.0000
  O   O12       1.0  0.21134  0.79860  0.57871  1.0000
  O   O13       1.0  0.71134  0.70140  0.07871  1.0000
  O   O14       1.0  0.21134  0.20140  0.07871  1.0000
  O   O15       1.0  0.28866  0.70140  0.42129  1.0000
  O   O16       1.0  0.78866  0.20140  0.42129  1.0000
  O   O17       1.0  0.06070  0.35430  0.05918  1.0000
  O   O18       1.0  0.56070  0.85430  0.05918  1.0000
  O   O19       1.0  0.93930  0.35430  0.44082  1.0000
  O   O20       1.0  0.43930  0.85430  0.44082  1.0000
  O   O21       1.0  0.93930  0.64570  0.94082  1.0000
  O   O22       1.0  0.43930  0.14570  0.94082  1.0000
  O   O23       1.0  0.06070  0.64570  0.55918  1.0000
  O   O24       1.0  0.56070  0.14570  0.55918  1.0000
  O   O25       1.0  0.82840  0.42880  0.89797  1.0000
  O   O26       1.0  0.32840  0.92880  0.89797  1.0000
  O   O27       1.0  0.17160  0.42880  0.60203  1.0000
  O   O28       1.0  0.67160  0.92880  0.60203  1.0000
  O   O29       1.0  0.17160  0.57120  0.10203  1.0000
  O   O30       1.0  0.67160  0.07120  0.10203  1.0000
  O   O31       1.0  0.82840  0.57120  0.39797  1.0000
  O   O32       1.0  0.32840  0.07120  0.39797  1.0000
  O   O33       1.0  0.21170  0.35710  0.19244  1.0000
  O   O34       1.0  0.71170  0.85710  0.19244  1.0000
  O   O35       1.0  0.78830  0.35710  0.30756  1.0000
  O   O36       1.0  0.28830  0.85710  0.30756  1.0000
  O   O37       1.0  0.78830  0.64290  0.80756  1.0000
  O   O38       1.0  0.28830  0.14290  0.80756  1.0000
  O   O39       1.0  0.21170  0.64290  0.69244  1.0000
  O   O40       1.0  0.71170  0.14290  0.69244  1.0000
  O   O41       1.0  0.82420  0.39850  0.76186  1.0000
  O   O42       1.0  0.32420  0.89850  0.76186  1.0000
  O   O43       1.0  0.17580  0.39850  0.73814  1.0000
  O   O44       1.0  0.67580  0.89850  0.73814  1.0000
  O   O45       1.0  0.17580  0.60150  0.23814  1.0000
  O   O46       1.0  0.67580  0.10150  0.23814  1.0000
  O   O47       1.0  0.82420  0.60150  0.26186  1.0000
  O   O48       1.0  0.32420  0.10150  0.26186  1.0000
  O   O49       1.0  0.34600  0.50750  0.29949  1.0000
  O   O50       1.0  0.84600  0.00750  0.29949  1.0000
  O   O51       1.0  0.65400  0.50750  0.20051  1.0000
  O   O52       1.0  0.15400  0.00750  0.20051  1.0000
  O   O53       1.0  0.65400  0.49250  0.70051  1.0000
  O   O54       1.0  0.15400  0.99250  0.70051  1.0000
  O   O55       1.0  0.34600  0.49250  0.79949  1.0000
  O   O56       1.0  0.84600  0.99250  0.79949  1.0000
  O   O57       1.0  0.76885  0.22230  0.83434  1.0000
  O   O58       1.0  0.26885  0.72230  0.83434  1.0000
  O   O59       1.0  0.23115  0.22230  0.66566  1.0000
  O   O60       1.0  0.73115  0.72230  0.66566  1.0000
  O   O61       1.0  0.23115  0.77770  0.16566  1.0000
  O   O62       1.0  0.73115  0.27770  0.16566  1.0000
  O   O63       1.0  0.76885  0.77770  0.33434  1.0000
  O   O64       1.0  0.26885  0.27770  0.33434  1.0000
  O   O65       1.0  0.20363  0.50340  0.87359  1.0000
  O   O66       1.0  0.70363  0.00340  0.87359  1.0000
  O   O67       1.0  0.79637  0.50340  0.62641  1.0000
  O   O68       1.0  0.29637  0.00340  0.62641  1.0000
  O   O69       1.0  0.79637  0.49660  0.12641  1.0000
  O   O70       1.0  0.29637  0.99660  0.12641  1.0000
  O   O71       1.0  0.20363  0.49660  0.37359  1.0000
  O   O72       1.0  0.70363  0.99660  0.37359  1.0000
  C   C1        1.0  0.11000  0.28240  0.88530  1.0000
  C   C2        1.0  0.61000  0.78240  0.88530  1.0000
  C   C3        1.0  0.89000  0.28240  0.61470  1.0000
  C   C4        1.0  0.39000  0.78240  0.61470  1.0000
  C   C5        1.0  0.89000  0.71760  0.11470  1.0000
  C   C6        1.0  0.39000  0.21760  0.11470  1.0000
  C   C7        1.0  0.11000  0.71760  0.38530  1.0000
  C   C8        1.0  0.61000  0.21760  0.38530  1.0000
  H   H1        1.0  0.11360  0.24270  0.83780  1.0000
  H   H2        1.0  0.61360  0.74270  0.83780  1.0000
  H   H3        1.0  0.88640  0.24270  0.66220  1.0000
  H   H4        1.0  0.38640  0.74270  0.66220  1.0000
  H   H5        1.0  0.88640  0.75730  0.16220  1.0000
  H   H6        1.0  0.38640  0.25730  0.16220  1.0000
  H   H7        1.0  0.11360  0.75730  0.33780  1.0000
  H   H8        1.0  0.61360  0.25730  0.33780  1.0000
  H   H9        1.0  0.10990  0.21010  0.92050  1.0000
  H   H10       1.0  0.60990  0.71010  0.92050  1.0000
  H   H11       1.0  0.89010  0.21010  0.57950  1.0000
  H   H12       1.0  0.39010  0.71010  0.57950  1.0000
  H   H13       1.0  0.89010  0.78990  0.07950  1.0000
  H   H14       1.0  0.39010  0.28990  0.07950  1.0000
  H   H15       1.0  0.10990  0.78990  0.42050  1.0000
  H   H16       1.0  0.60990  0.28990  0.42050  1.0000
  C   C9        1.0  0.94470  0.26120  0.86150  1.0000
  C   C10       1.0  0.44470  0.76120  0.86150  1.0000
  C   C11       1.0  0.05530  0.26120  0.63850  1.0000
  C   C12       1.0  0.55530  0.76120  0.63850  1.0000
  C   C13       1.0  0.05530  0.73880  0.13850  1.0000
  C   C14       1.0  0.55530  0.23880  0.13850  1.0000
  C   C15       1.0  0.94470  0.73880  0.36150  1.0000
  C   C16       1.0  0.44470  0.23880  0.36150  1.0000
  H   H17       1.0  0.94820  0.19770  0.82240  1.0000
  H   H18       1.0  0.44820  0.69770  0.82240  1.0000
  H   H19       1.0  0.05180  0.19770  0.67760  1.0000
  H   H20       1.0  0.55180  0.69770  0.67760  1.0000
  H   H21       1.0  0.05180  0.80230  0.17760  1.0000
  H   H22       1.0  0.55180  0.30230  0.17760  1.0000
  H   H23       1.0  0.94820  0.80230  0.32240  1.0000
  H   H24       1.0  0.44820  0.30230  0.32240  1.0000
  H   H25       1.0  0.95240  0.21150  0.90830  1.0000
  H   H26       1.0  0.45240  0.71150  0.90830  1.0000
  H   H27       1.0  0.04760  0.21150  0.59170  1.0000
  H   H28       1.0  0.54760  0.71150  0.59170  1.0000
  H   H29       1.0  0.04760  0.78850  0.09170  1.0000
  H   H30       1.0  0.54760  0.28850  0.09170  1.0000
  H   H31       1.0  0.95240  0.78850  0.40830  1.0000
  H   H32       1.0  0.45240  0.28850  0.40830  1.0000
  C   C17       1.0  0.02180  0.35690  0.87160  1.0000
  C   C18       1.0  0.52180  0.85690  0.87160  1.0000
  C   C19       1.0  0.97820  0.35690  0.62840  1.0000
  C   C20       1.0  0.47820  0.85690  0.62840  1.0000
  C   C21       1.0  0.97820  0.64310  0.12840  1.0000
  C   C22       1.0  0.47820  0.14310  0.12840  1.0000
  C   C23       1.0  0.02180  0.64310  0.37160  1.0000
  C   C24       1.0  0.52180  0.14310  0.37160  1.0000
  H   H33       1.0  0.01310  0.41200  0.82670  1.0000
  H   H34       1.0  0.51310  0.91200  0.82670  1.0000
  H   H35       1.0  0.98690  0.41200  0.67330  1.0000
  H   H36       1.0  0.48690  0.91200  0.67330  1.0000
  H   H37       1.0  0.98690  0.58800  0.17330  1.0000
  H   H38       1.0  0.48690  0.08800  0.17330  1.0000
  H   H39       1.0  0.01310  0.58800  0.32670  1.0000
  H   H40       1.0  0.51310  0.08800  0.32670  1.0000
  H   H41       1.0  0.02340  0.41510  0.91440  1.0000
  H   H42       1.0  0.52340  0.91510  0.91440  1.0000
  H   H43       1.0  0.97660  0.41510  0.58560  1.0000
  H   H44       1.0  0.47660  0.91510  0.58560  1.0000
  H   H45       1.0  0.97660  0.58490  0.08560  1.0000
  H   H46       1.0  0.47660  0.08490  0.08560  1.0000
  H   H47       1.0  0.02340  0.58490  0.41440  1.0000
  H   H48       1.0  0.52340  0.08490  0.41440  1.0000
  H   H49       1.0  0.21700  0.29000  0.19600  1.0000
  H   H50       1.0  0.71700  0.79000  0.19600  1.0000
  H   H51       1.0  0.78300  0.29000  0.30400  1.0000
  H   H52       1.0  0.28300  0.79000  0.30400  1.0000
  H   H53       1.0  0.78300  0.71000  0.80400  1.0000
  H   H54       1.0  0.28300  0.21000  0.80400  1.0000
  H   H55       1.0  0.21700  0.71000  0.69600  1.0000
  H   H56       1.0  0.71700  0.21000  0.69600  1.0000
