data_image0
_chemical_formula_structural       V16P16O72C8H16C8H16C8H24
_chemical_formula_sum              "V16 P16 O72 C24 H56"
_cell_length_a       15.2768
_cell_length_b       10.2216
_cell_length_c       18.6279
_cell_angle_alpha    90
_cell_angle_beta     103.252
_cell_angle_gamma    90

_space_group_name_H-M_alt    "P 1"
_space_group_IT_number       1

loop_
  _space_group_symop_operation_xyz
  'x, y, z'

loop_
  _atom_site_type_symbol
  _atom_site_label
  _atom_site_symmetry_multiplicity
  _atom_site_fract_x
  _atom_site_fract_y
  _atom_site_fract_z
  _atom_site_occupancy
  V   V1        1.0  0.74870  0.04535  0.21455  1.0000
  V   V2        1.0  0.24870  0.54535  0.21455  1.0000
  V   V3        1.0  0.25130  0.04535  0.28545  1.0000
  V   V4        1.0  0.75130  0.54535  0.28545  1.0000
  V   V5        1.0  0.25130  0.95465  0.78545  1.0000
  V   V6        1.0  0.75130  0.45465  0.78545  1.0000
  V   V7        1.0  0.74870  0.95465  0.71455  1.0000
  V   V8        1.0  0.24870  0.45465  0.71455  1.0000
  V   V9        1.0  0.83739  0.11735  0.41440  1.0000
  V   V10       1.0  0.33739  0.61735  0.41440  1.0000
  V   V11       1.0  0.16261  0.11735  0.08560  1.0000
  V   V12       1.0  0.66261  0.61735  0.08560  1.0000
  V   V13       1.0  0.16261  0.88265  0.58560  1.0000
  V   V14       1.0  0.66261  0.38265  0.58560  1.0000
  V   V15       1.0  0.83739  0.88265  0.91440  1.0000
  V   V16       1.0  0.33739  0.38265  0.91440  1.0000
  P   P1        1.0  0.66366  0.33190  0.16526  1.0000
  P   P2        1.0  0.16366  0.83190  0.16526  1.0000
  P   P3        1.0  0.33634  0.33190  0.33474  1.0000
  P   P4        1.0  0.83634  0.83190  0.33474  1.0000
  P   P5        1.0  0.33634  0.66810  0.83474  1.0000
  P   P6        1.0  0.83634  0.16810  0.83474  1.0000
  P   P7        1.0  0.66366  0.66810  0.66526  1.0000
  P   P8        1.0  0.16366  0.16810  0.66526  1.0000
  P   P9        1.0  0.28813  0.37985  0.07714  1.0000
  P   P10       1.0  0.78813  0.87985  0.07714  1.0000
  P   P11       1.0  0.71187  0.37985  0.42286  1.0000
  P   P12       1.0  0.21187  0.87985  0.42286  1.0000
  P   P13       1.0  0.71187  0.62015  0.92286  1.0000
  P   P14       1.0  0.21187  0.12015  0.92286  1.0000
  P   P15       1.0  0.28813  0.62015  0.57714  1.0000
  P   P16       1.0  0.78813  0.12015  0.57714  1.0000
  O   O1        1.0  0.73201  0.22150  0.16855  1.0000
  O   O2        1.0  0.23201  0.72150  0.16855  1.0000
  O   O3        1.0  0.26799  0.22150  0.33145  1.0000
  O   O4        1.0  0.76799  0.72150  0.33145  1.0000
  O   O5        1.0  0.26799  0.77850  0.83145  1.0000
  O   O6        1.0  0.76799  0.27850  0.83145  1.0000
  O   O7        1.0  0.73201  0.77850  0.66855  1.0000
  O   O8        1.0  0.23201  0.27850  0.66855  1.0000
  O   O9        1.0  0.29047  0.50280  0.12522  1.0000
  O   O10       1.0  0.79047  0.00280  0.12522  1.0000
  O   O11       1.0  0.70953  0.50280  0.37478  1.0000
  O   O12       1.0  0.20953  0.00280  0.37478  1.0000
  O   O13       1.0  0.70953  0.49720  0.87478  1.0000
  O   O14       1.0  0.20953  0.99720  0.87478  1.0000
  O   O15       1.0  0.29047  0.49720  0.62522  1.0000
  O   O16       1.0  0.79047  0.99720  0.62522  1.0000
  O   O17       1.0  0.67390  0.39950  0.23989  1.0000
  O   O18       1.0  0.17390  0.89950  0.23989  1.0000
  O   O19       1.0  0.32610  0.39950  0.26011  1.0000
  O   O20       1.0  0.82610  0.89950  0.26011  1.0000
  O   O21       1.0  0.32610  0.60050  0.76011  1.0000
  O   O22       1.0  0.82610  0.10050  0.76011  1.0000
  O   O23       1.0  0.67390  0.60050  0.73989  1.0000
  O   O24       1.0  0.17390  0.10050  0.73989  1.0000
  O   O25       1.0  0.64990  0.99110  0.20979  1.0000
  O   O26       1.0  0.14990  0.49110  0.20979  1.0000
  O   O27       1.0  0.35010  0.99110  0.29021  1.0000
  O   O28       1.0  0.85010  0.49110  0.29021  1.0000
  O   O29       1.0  0.35010  0.00890  0.79021  1.0000
  O   O30       1.0  0.85010  0.50890  0.79021  1.0000
  O   O31       1.0  0.64990  0.00890  0.70979  1.0000
  O   O32       1.0  0.14990  0.50890  0.70979  1.0000
  O   O33       1.0  0.79070  0.14220  0.30808  1.0000
  O   O34       1.0  0.29070  0.64220  0.30808  1.0000
  O   O35       1.0  0.20930  0.14220  0.19192  1.0000
  O   O36       1.0  0.70930  0.64220  0.19192  1.0000
  O   O37       1.0  0.20930  0.85780  0.69192  1.0000
  O   O38       1.0  0.70930  0.35780  0.69192  1.0000
  O   O39       1.0  0.79070  0.85780  0.80808  1.0000
  O   O40       1.0  0.29070  0.35780  0.80808  1.0000
  O   O41       1.0  0.67346  0.42700  0.10409  1.0000
  O   O42       1.0  0.17346  0.92700  0.10409  1.0000
  O   O43       1.0  0.32654  0.42700  0.39591  1.0000
  O   O44       1.0  0.82654  0.92700  0.39591  1.0000
  O   O45       1.0  0.32654  0.57300  0.89591  1.0000
  O   O46       1.0  0.82654  0.07300  0.89591  1.0000
  O   O47       1.0  0.67346  0.57300  0.60409  1.0000
  O   O48       1.0  0.17346  0.07300  0.60409  1.0000
  O   O49       1.0  0.20484  0.29820  0.07682  1.0000
  O   O50       1.0  0.70484  0.79820  0.07682  1.0000
  O   O51       1.0  0.79516  0.29820  0.42318  1.0000
  O   O52       1.0  0.29516  0.79820  0.42318  1.0000
  O   O53       1.0  0.79516  0.70180  0.92318  1.0000
  O   O54       1.0  0.29516  0.20180  0.92318  1.0000
  O   O55       1.0  0.20484  0.70180  0.57682  1.0000
  O   O56       1.0  0.70484  0.20180  0.57682  1.0000
  O   O57       1.0  0.29221  0.42870  0.00033  1.0000
  O   O58       1.0  0.79221  0.92870  0.00033  1.0000
  O   O59       1.0  0.70779  0.42870  0.49967  1.0000
  O   O60       1.0  0.20779  0.92870  0.49967  1.0000
  O   O61       1.0  0.70779  0.57130  0.99967  1.0000
  O   O62       1.0  0.20779  0.07130  0.99967  1.0000
  O   O63       1.0  0.29221  0.57130  0.50033  1.0000
  O   O64       1.0  0.79221  0.07130  0.50033  1.0000
  O   O65       1.0  0.94393  0.13900  0.43602  1.0000
  O   O66       1.0  0.44393  0.63900  0.43602  1.0000
  O   O67       1.0  0.05607  0.13900  0.06398  1.0000
  O   O68       1.0  0.55607  0.63900  0.06398  1.0000
  O   O69       1.0  0.05607  0.86100  0.56398  1.0000
  O   O70       1.0  0.55607  0.36100  0.56398  1.0000
  O   O71       1.0  0.94393  0.86100  0.93602  1.0000
  O   O72       1.0  0.44393  0.36100  0.93602  1.0000
  C   C1        1.0  0.55380  0.26030  0.14320  1.0000
  C   C2        1.0  0.05380  0.76030  0.14320  1.0000
  C   C3        1.0  0.44620  0.26030  0.35680  1.0000
  C   C4        1.0  0.94620  0.76030  0.35680  1.0000
  C   C5        1.0  0.44620  0.73970  0.85680  1.0000
  C   C6        1.0  0.94620  0.23970  0.85680  1.0000
  C   C7        1.0  0.55380  0.73970  0.64320  1.0000
  C   C8        1.0  0.05380  0.23970  0.64320  1.0000
  H   H1        1.0  0.54930  0.20380  0.09930  1.0000
  H   H2        1.0  0.04930  0.70380  0.09930  1.0000
  H   H3        1.0  0.45070  0.20380  0.40070  1.0000
  H   H4        1.0  0.95070  0.70380  0.40070  1.0000
  H   H5        1.0  0.45070  0.79620  0.90070  1.0000
  H   H6        1.0  0.95070  0.29620  0.90070  1.0000
  H   H7        1.0  0.54930  0.79620  0.59930  1.0000
  H   H8        1.0  0.04930  0.29620  0.59930  1.0000
  H   H9        1.0  0.54770  0.20310  0.18470  1.0000
  H   H10       1.0  0.04770  0.70310  0.18470  1.0000
  H   H11       1.0  0.45230  0.20310  0.31530  1.0000
  H   H12       1.0  0.95230  0.70310  0.31530  1.0000
  H   H13       1.0  0.45230  0.79690  0.81530  1.0000
  H   H14       1.0  0.95230  0.29690  0.81530  1.0000
  H   H15       1.0  0.54770  0.79690  0.68470  1.0000
  H   H16       1.0  0.04770  0.29690  0.68470  1.0000
  C   C9        1.0  0.38560  0.28090  0.11170  1.0000
  C   C10       1.0  0.88560  0.78090  0.11170  1.0000
  C   C11       1.0  0.61440  0.28090  0.38830  1.0000
  C   C12       1.0  0.11440  0.78090  0.38830  1.0000
  C   C13       1.0  0.61440  0.71910  0.88830  1.0000
  C   C14       1.0  0.11440  0.21910  0.88830  1.0000
  C   C15       1.0  0.38560  0.71910  0.61170  1.0000
  C   C16       1.0  0.88560  0.21910  0.61170  1.0000
  H   H17       1.0  0.37880  0.23780  0.15770  1.0000
  H   H18       1.0  0.87880  0.73780  0.15770  1.0000
  H   H19       1.0  0.62120  0.23780  0.34230  1.0000
  H   H20       1.0  0.12120  0.73780  0.34230  1.0000
  H   H21       1.0  0.62120  0.76220  0.84230  1.0000
  H   H22       1.0  0.12120  0.26220  0.84230  1.0000
  H   H23       1.0  0.37880  0.76220  0.65770  1.0000
  H   H24       1.0  0.87880  0.26220  0.65770  1.0000
  H   H25       1.0  0.38810  0.21130  0.07530  1.0000
  H   H26       1.0  0.88810  0.71130  0.07530  1.0000
  H   H27       1.0  0.61190  0.21130  0.42470  1.0000
  H   H28       1.0  0.11190  0.71130  0.42470  1.0000
  H   H29       1.0  0.61190  0.78870  0.92470  1.0000
  H   H30       1.0  0.11190  0.28870  0.92470  1.0000
  H   H31       1.0  0.38810  0.78870  0.57530  1.0000
  H   H32       1.0  0.88810  0.28870  0.57530  1.0000
  C   C17       1.0  0.47470  0.35560  0.12770  1.0000
  C   C18       1.0  0.97470  0.85560  0.12770  1.0000
  C   C19       1.0  0.52530  0.35560  0.37230  1.0000
  C   C20       1.0  0.02530  0.85560  0.37230  1.0000
  C   C21       1.0  0.52530  0.64440  0.87230  1.0000
  C   C22       1.0  0.02530  0.14440  0.87230  1.0000
  C   C23       1.0  0.47470  0.64440  0.62770  1.0000
  C   C24       1.0  0.97470  0.14440  0.62770  1.0000
  H   H33       1.0  0.47780  0.41100  0.08470  1.0000
  H   H34       1.0  0.97780  0.91100  0.08470  1.0000
  H   H35       1.0  0.52220  0.41100  0.41530  1.0000
  H   H36       1.0  0.02220  0.91100  0.41530  1.0000
  H   H37       1.0  0.52220  0.58900  0.91530  1.0000
  H   H38       1.0  0.02220  0.08900  0.91530  1.0000
  H   H39       1.0  0.47780  0.58900  0.58470  1.0000
  H   H40       1.0  0.97780  0.08900  0.58470  1.0000
  H   H41       1.0  0.47810  0.41340  0.17080  1.0000
  H   H42       1.0  0.97810  0.91340  0.17080  1.0000
  H   H43       1.0  0.52190  0.41340  0.32920  1.0000
  H   H44       1.0  0.02190  0.91340  0.32920  1.0000
  H   H45       1.0  0.52190  0.58660  0.82920  1.0000
  H   H46       1.0  0.02190  0.08660  0.82920  1.0000
  H   H47       1.0  0.47810  0.58660  0.67080  1.0000
  H   H48       1.0  0.97810  0.08660  0.67080  1.0000
  H   H49       1.0  0.78800  0.20000  0.30300  1.0000
  H   H50       1.0  0.28800  0.70000  0.30300  1.0000
  H   H51       1.0  0.21200  0.20000  0.19700  1.0000
  H   H52       1.0  0.71200  0.70000  0.19700  1.0000
  H   H53       1.0  0.21200  0.80000  0.69700  1.0000
  H   H54       1.0  0.71200  0.30000  0.69700  1.0000
  H   H55       1.0  0.78800  0.80000  0.80300  1.0000
  H   H56       1.0  0.28800  0.30000  0.80300  1.0000
