data_image0
_chemical_formula_structural       Gd4N4Co4O24C8H8C4H4O8C8N8O8C40O8N8C8H8O8C8H8C8H8C8H8N8H8C8H8C8H24
_chemical_formula_sum              "Gd4 N28 Co4 O56 C108 H84"
_cell_length_a       17.998
_cell_length_b       11.398
_cell_length_c       19.208
_cell_angle_alpha    90
_cell_angle_beta     108.57
_cell_angle_gamma    90

_space_group_name_H-M_alt    "P 1"
_space_group_IT_number       1

loop_
  _space_group_symop_operation_xyz
  'x, y, z'

loop_
  _atom_site_type_symbol
  _atom_site_label
  _atom_site_symmetry_multiplicity
  _atom_site_fract_x
  _atom_site_fract_y
  _atom_site_fract_z
  _atom_site_occupancy
  Gd  Gd1       1.0  0.50000  0.42551  0.25000  1.0000
  Gd  Gd2       1.0  0.00000  0.92551  0.25000  1.0000
  Gd  Gd3       1.0  0.50000  0.57449  0.75000  1.0000
  Gd  Gd4       1.0  0.00000  0.07449  0.75000  1.0000
  N   N1        1.0  0.50000  0.20250  0.25000  1.0000
  N   N2        1.0  0.00000  0.70250  0.25000  1.0000
  N   N3        1.0  0.50000  0.79750  0.75000  1.0000
  N   N4        1.0  0.00000  0.29750  0.75000  1.0000
  Co  Co1       1.0  0.75000  0.25000  0.50000  1.0000
  Co  Co2       1.0  0.25000  0.25000  0.00000  1.0000
  Co  Co3       1.0  0.25000  0.75000  0.50000  1.0000
  Co  Co4       1.0  0.75000  0.75000  0.00000  1.0000
  O   O1        1.0  0.54008  0.58210  0.34010  1.0000
  O   O2        1.0  0.45992  0.58210  0.15990  1.0000
  O   O3        1.0  0.04008  0.08210  0.34010  1.0000
  O   O4        1.0  0.95992  0.08210  0.15990  1.0000
  O   O5        1.0  0.45992  0.41790  0.65990  1.0000
  O   O6        1.0  0.54008  0.41790  0.84010  1.0000
  O   O7        1.0  0.95992  0.91790  0.65990  1.0000
  O   O8        1.0  0.04008  0.91790  0.84010  1.0000
  O   O9        1.0  0.77840  0.08170  0.54044  1.0000
  O   O10       1.0  0.22160  0.08170  0.95956  1.0000
  O   O11       1.0  0.27840  0.58170  0.54044  1.0000
  O   O12       1.0  0.72160  0.58170  0.95956  1.0000
  O   O13       1.0  0.22160  0.91830  0.45956  1.0000
  O   O14       1.0  0.77840  0.91830  0.04044  1.0000
  O   O15       1.0  0.72160  0.41830  0.45956  1.0000
  O   O16       1.0  0.27840  0.41830  0.04044  1.0000
  O   O17       1.0  0.66289  0.17250  0.40816  1.0000
  O   O18       1.0  0.33711  0.17250  0.09184  1.0000
  O   O19       1.0  0.16289  0.67250  0.40816  1.0000
  O   O20       1.0  0.83711  0.67250  0.09184  1.0000
  O   O21       1.0  0.33711  0.82750  0.59184  1.0000
  O   O22       1.0  0.66289  0.82750  0.90816  1.0000
  O   O23       1.0  0.83711  0.32750  0.59184  1.0000
  O   O24       1.0  0.16289  0.32750  0.90816  1.0000
  C   C1        1.0  0.55750  0.02200  0.30318  1.0000
  C   C2        1.0  0.44250  0.02200  0.19682  1.0000
  C   C3        1.0  0.05750  0.52200  0.30318  1.0000
  C   C4        1.0  0.94250  0.52200  0.19682  1.0000
  C   C5        1.0  0.44250  0.97800  0.69682  1.0000
  C   C6        1.0  0.55750  0.97800  0.80318  1.0000
  C   C7        1.0  0.94250  0.47800  0.69682  1.0000
  C   C8        1.0  0.05750  0.47800  0.80318  1.0000
  H   H1        1.0  0.59650  0.98250  0.33920  1.0000
  H   H2        1.0  0.40350  0.98250  0.16080  1.0000
  H   H3        1.0  0.09650  0.48250  0.33920  1.0000
  H   H4        1.0  0.90350  0.48250  0.16080  1.0000
  H   H5        1.0  0.40350  0.01750  0.66080  1.0000
  H   H6        1.0  0.59650  0.01750  0.83920  1.0000
  H   H7        1.0  0.90350  0.51750  0.66080  1.0000
  H   H8        1.0  0.09650  0.51750  0.83920  1.0000
  C   C9        1.0  0.50000  0.96110  0.25000  1.0000
  C   C10       1.0  0.00000  0.46110  0.25000  1.0000
  C   C11       1.0  0.50000  0.03890  0.75000  1.0000
  C   C12       1.0  0.00000  0.53890  0.75000  1.0000
  H   H9        1.0  0.50000  0.87950  0.25000  1.0000
  H   H10       1.0  0.00000  0.37950  0.25000  1.0000
  H   H11       1.0  0.50000  0.12050  0.75000  1.0000
  H   H12       1.0  0.00000  0.62050  0.75000  1.0000
  O   O25       1.0  0.60705  0.33020  0.34369  1.0000
  O   O26       1.0  0.39295  0.33020  0.15631  1.0000
  O   O27       1.0  0.10705  0.83020  0.34369  1.0000
  O   O28       1.0  0.89295  0.83020  0.15631  1.0000
  O   O29       1.0  0.39295  0.66980  0.65631  1.0000
  O   O30       1.0  0.60705  0.66980  0.84369  1.0000
  O   O31       1.0  0.89295  0.16980  0.65631  1.0000
  O   O32       1.0  0.10705  0.16980  0.84369  1.0000
  C   C13       1.0  0.55520  0.14340  0.30105  1.0000
  C   C14       1.0  0.44480  0.14340  0.19895  1.0000
  C   C15       1.0  0.05520  0.64340  0.30105  1.0000
  C   C16       1.0  0.94480  0.64340  0.19895  1.0000
  C   C17       1.0  0.44480  0.85660  0.69895  1.0000
  C   C18       1.0  0.55520  0.85660  0.80105  1.0000
  C   C19       1.0  0.94480  0.35660  0.69895  1.0000
  C   C20       1.0  0.05520  0.35660  0.80105  1.0000
  N   N5        1.0  0.62436  0.52940  0.25528  1.0000
  N   N6        1.0  0.37564  0.52940  0.24472  1.0000
  N   N7        1.0  0.12436  0.02940  0.25528  1.0000
  N   N8        1.0  0.87564  0.02940  0.24472  1.0000
  N   N9        1.0  0.37564  0.47060  0.74472  1.0000
  N   N10       1.0  0.62436  0.47060  0.75528  1.0000
  N   N11       1.0  0.87564  0.97060  0.74472  1.0000
  N   N12       1.0  0.12436  0.97060  0.75528  1.0000
  O   O33       1.0  0.56197  0.36020  0.16249  1.0000
  O   O34       1.0  0.43803  0.36020  0.33751  1.0000
  O   O35       1.0  0.06197  0.86020  0.16249  1.0000
  O   O36       1.0  0.93803  0.86020  0.33751  1.0000
  O   O37       1.0  0.43803  0.63980  0.83751  1.0000
  O   O38       1.0  0.56197  0.63980  0.66249  1.0000
  O   O39       1.0  0.93803  0.13980  0.83751  1.0000
  O   O40       1.0  0.06197  0.13980  0.66249  1.0000
  C   C21       1.0  0.61394  0.22140  0.35593  1.0000
  C   C22       1.0  0.38606  0.22140  0.14407  1.0000
  C   C23       1.0  0.11394  0.72140  0.35593  1.0000
  C   C24       1.0  0.88606  0.72140  0.14407  1.0000
  C   C25       1.0  0.38606  0.77860  0.64407  1.0000
  C   C26       1.0  0.61394  0.77860  0.85593  1.0000
  C   C27       1.0  0.88606  0.27860  0.64407  1.0000
  C   C28       1.0  0.11394  0.27860  0.85593  1.0000
  C   C29       1.0  0.66450  0.49560  0.21070  1.0000
  C   C30       1.0  0.33550  0.49560  0.28930  1.0000
  C   C31       1.0  0.16450  0.99560  0.21070  1.0000
  C   C32       1.0  0.83550  0.99560  0.28930  1.0000
  C   C33       1.0  0.33550  0.50440  0.78930  1.0000
  C   C34       1.0  0.66450  0.50440  0.71070  1.0000
  C   C35       1.0  0.83550  0.00440  0.78930  1.0000
  C   C36       1.0  0.16450  0.00440  0.71070  1.0000
  C   C37       1.0  0.59820  0.64920  0.34770  1.0000
  C   C38       1.0  0.40180  0.64920  0.15230  1.0000
  C   C39       1.0  0.09820  0.14920  0.34770  1.0000
  C   C40       1.0  0.90180  0.14920  0.15230  1.0000
  C   C41       1.0  0.40180  0.35080  0.65230  1.0000
  C   C42       1.0  0.59820  0.35080  0.84770  1.0000
  C   C43       1.0  0.90180  0.85080  0.65230  1.0000
  C   C44       1.0  0.09820  0.85080  0.84770  1.0000
  C   C45       1.0  0.65240  0.61380  0.30440  1.0000
  C   C46       1.0  0.34760  0.61380  0.19560  1.0000
  C   C47       1.0  0.15240  0.11380  0.30440  1.0000
  C   C48       1.0  0.84760  0.11380  0.19560  1.0000
  C   C49       1.0  0.34760  0.38620  0.69560  1.0000
  C   C50       1.0  0.65240  0.38620  0.80440  1.0000
  C   C51       1.0  0.84760  0.88620  0.69560  1.0000
  C   C52       1.0  0.15240  0.88620  0.80440  1.0000
  C   C53       1.0  0.62380  0.40240  0.15590  1.0000
  C   C54       1.0  0.37620  0.40240  0.34410  1.0000
  C   C55       1.0  0.12380  0.90240  0.15590  1.0000
  C   C56       1.0  0.87620  0.90240  0.34410  1.0000
  C   C57       1.0  0.37620  0.59760  0.84410  1.0000
  C   C58       1.0  0.62380  0.59760  0.65590  1.0000
  C   C59       1.0  0.87620  0.09760  0.84410  1.0000
  C   C60       1.0  0.12380  0.09760  0.65590  1.0000
  O   O41       1.0  0.65370  0.37170  0.10887  1.0000
  O   O42       1.0  0.34630  0.37170  0.39113  1.0000
  O   O43       1.0  0.15370  0.87170  0.10887  1.0000
  O   O44       1.0  0.84630  0.87170  0.39113  1.0000
  O   O45       1.0  0.34630  0.62830  0.89113  1.0000
  O   O46       1.0  0.65370  0.62830  0.60887  1.0000
  O   O47       1.0  0.84630  0.12830  0.89113  1.0000
  O   O48       1.0  0.15370  0.12830  0.60887  1.0000
  N   N13       1.0  0.66740  0.25780  0.55790  1.0000
  N   N14       1.0  0.33260  0.25780  0.94210  1.0000
  N   N15       1.0  0.16740  0.75780  0.55790  1.0000
  N   N16       1.0  0.83260  0.75780  0.94210  1.0000
  N   N17       1.0  0.33260  0.74220  0.44210  1.0000
  N   N18       1.0  0.66740  0.74220  0.05790  1.0000
  N   N19       1.0  0.83260  0.24220  0.44210  1.0000
  N   N20       1.0  0.16740  0.24220  0.05790  1.0000
  C   C61       1.0  0.66740  0.18490  0.61520  1.0000
  C   C62       1.0  0.33260  0.18490  0.88480  1.0000
  C   C63       1.0  0.16740  0.68490  0.61520  1.0000
  C   C64       1.0  0.83260  0.68490  0.88480  1.0000
  C   C65       1.0  0.33260  0.81510  0.38480  1.0000
  C   C66       1.0  0.66740  0.81510  0.11520  1.0000
  C   C67       1.0  0.83260  0.31510  0.38480  1.0000
  C   C68       1.0  0.16740  0.31510  0.11520  1.0000
  H   H13       1.0  0.70340  0.12570  0.63530  1.0000
  H   H14       1.0  0.29660  0.12570  0.86470  1.0000
  H   H15       1.0  0.20340  0.62570  0.63530  1.0000
  H   H16       1.0  0.79660  0.62570  0.86470  1.0000
  H   H17       1.0  0.29660  0.87430  0.36470  1.0000
  H   H18       1.0  0.70340  0.87430  0.13530  1.0000
  H   H19       1.0  0.79660  0.37430  0.36470  1.0000
  H   H20       1.0  0.20340  0.37430  0.13530  1.0000
  O   O49       1.0  0.61300  0.73830  0.38510  1.0000
  O   O50       1.0  0.38700  0.73830  0.11490  1.0000
  O   O51       1.0  0.11300  0.23830  0.38510  1.0000
  O   O52       1.0  0.88700  0.23830  0.11490  1.0000
  O   O53       1.0  0.38700  0.26170  0.61490  1.0000
  O   O54       1.0  0.61300  0.26170  0.88510  1.0000
  O   O55       1.0  0.88700  0.76170  0.61490  1.0000
  O   O56       1.0  0.11300  0.76170  0.88510  1.0000
  C   C69       1.0  0.60810  0.32920  0.54920  1.0000
  C   C70       1.0  0.39190  0.32920  0.95080  1.0000
  C   C71       1.0  0.10810  0.82920  0.54920  1.0000
  C   C72       1.0  0.89190  0.82920  0.95080  1.0000
  C   C73       1.0  0.39190  0.67080  0.45080  1.0000
  C   C74       1.0  0.60810  0.67080  0.04920  1.0000
  C   C75       1.0  0.89190  0.17080  0.45080  1.0000
  C   C76       1.0  0.10810  0.17080  0.04920  1.0000
  H   H21       1.0  0.59490  0.38920  0.51460  1.0000
  H   H22       1.0  0.40510  0.38920  0.98540  1.0000
  H   H23       1.0  0.09490  0.88920  0.51460  1.0000
  H   H24       1.0  0.90510  0.88920  0.98540  1.0000
  H   H25       1.0  0.40510  0.61080  0.48540  1.0000
  H   H26       1.0  0.59490  0.61080  0.01460  1.0000
  H   H27       1.0  0.90510  0.11080  0.48540  1.0000
  H   H28       1.0  0.09490  0.11080  0.01460  1.0000
  C   C77       1.0  0.73640  0.54390  0.21610  1.0000
  C   C78       1.0  0.26360  0.54390  0.28390  1.0000
  C   C79       1.0  0.23640  0.04390  0.21610  1.0000
  C   C80       1.0  0.76360  0.04390  0.28390  1.0000
  C   C81       1.0  0.26360  0.45610  0.78390  1.0000
  C   C82       1.0  0.73640  0.45610  0.71610  1.0000
  C   C83       1.0  0.76360  0.95610  0.78390  1.0000
  C   C84       1.0  0.23640  0.95610  0.71610  1.0000
  H   H29       1.0  0.76370  0.52000  0.18480  1.0000
  H   H30       1.0  0.23630  0.52000  0.31520  1.0000
  H   H31       1.0  0.26370  0.02000  0.18480  1.0000
  H   H32       1.0  0.73630  0.02000  0.31520  1.0000
  H   H33       1.0  0.23630  0.48000  0.81520  1.0000
  H   H34       1.0  0.76370  0.48000  0.68480  1.0000
  H   H35       1.0  0.73630  0.98000  0.81520  1.0000
  H   H36       1.0  0.26370  0.98000  0.68480  1.0000
  C   C85       1.0  0.72420  0.66520  0.31290  1.0000
  C   C86       1.0  0.27580  0.66520  0.18710  1.0000
  C   C87       1.0  0.22420  0.16520  0.31290  1.0000
  C   C88       1.0  0.77580  0.16520  0.18710  1.0000
  C   C89       1.0  0.27580  0.33480  0.68710  1.0000
  C   C90       1.0  0.72420  0.33480  0.81290  1.0000
  C   C91       1.0  0.77580  0.83480  0.68710  1.0000
  C   C92       1.0  0.22420  0.83480  0.81290  1.0000
  H   H37       1.0  0.74340  0.72380  0.34770  1.0000
  H   H38       1.0  0.25660  0.72380  0.15230  1.0000
  H   H39       1.0  0.24340  0.22380  0.34770  1.0000
  H   H40       1.0  0.75660  0.22380  0.15230  1.0000
  H   H41       1.0  0.25660  0.27620  0.65230  1.0000
  H   H42       1.0  0.74340  0.27620  0.84770  1.0000
  H   H43       1.0  0.75660  0.77620  0.65230  1.0000
  H   H44       1.0  0.24340  0.77620  0.84770  1.0000
  N   N21       1.0  0.56900  0.30490  0.59620  1.0000
  N   N22       1.0  0.43100  0.30490  0.90380  1.0000
  N   N23       1.0  0.06900  0.80490  0.59620  1.0000
  N   N24       1.0  0.93100  0.80490  0.90380  1.0000
  N   N25       1.0  0.43100  0.69510  0.40380  1.0000
  N   N26       1.0  0.56900  0.69510  0.09620  1.0000
  N   N27       1.0  0.93100  0.19510  0.40380  1.0000
  N   N28       1.0  0.06900  0.19510  0.09620  1.0000
  H   H45       1.0  0.52810  0.34060  0.59940  1.0000
  H   H46       1.0  0.47190  0.34060  0.90060  1.0000
  H   H47       1.0  0.02810  0.84060  0.59940  1.0000
  H   H48       1.0  0.97190  0.84060  0.90060  1.0000
  H   H49       1.0  0.47190  0.65940  0.40060  1.0000
  H   H50       1.0  0.52810  0.65940  0.09940  1.0000
  H   H51       1.0  0.97190  0.15940  0.40060  1.0000
  H   H52       1.0  0.02810  0.15940  0.09940  1.0000
  C   C93       1.0  0.76700  0.62820  0.26880  1.0000
  C   C94       1.0  0.23300  0.62820  0.23120  1.0000
  C   C95       1.0  0.26700  0.12820  0.26880  1.0000
  C   C96       1.0  0.73300  0.12820  0.23120  1.0000
  C   C97       1.0  0.23300  0.37180  0.73120  1.0000
  C   C98       1.0  0.76700  0.37180  0.76880  1.0000
  C   C99       1.0  0.73300  0.87180  0.73120  1.0000
  C   C100      1.0  0.26700  0.87180  0.76880  1.0000
  H   H53       1.0  0.81620  0.66000  0.27470  1.0000
  H   H54       1.0  0.18380  0.66000  0.22530  1.0000
  H   H55       1.0  0.31620  0.16000  0.27470  1.0000
  H   H56       1.0  0.68380  0.16000  0.22530  1.0000
  H   H57       1.0  0.18380  0.34000  0.72530  1.0000
  H   H58       1.0  0.81620  0.34000  0.77470  1.0000
  H   H59       1.0  0.68380  0.84000  0.72530  1.0000
  H   H60       1.0  0.31620  0.84000  0.77470  1.0000
  C   C101      1.0  0.60540  0.21490  0.63690  1.0000
  C   C102      1.0  0.39460  0.21490  0.86310  1.0000
  C   C103      1.0  0.10540  0.71490  0.63690  1.0000
  C   C104      1.0  0.89460  0.71490  0.86310  1.0000
  C   C105      1.0  0.39460  0.78510  0.36310  1.0000
  C   C106      1.0  0.60540  0.78510  0.13690  1.0000
  C   C107      1.0  0.89460  0.28510  0.36310  1.0000
  C   C108      1.0  0.10540  0.28510  0.13690  1.0000
  H   H61       1.0  0.59090  0.17880  0.67400  1.0000
  H   H62       1.0  0.40910  0.17880  0.82600  1.0000
  H   H63       1.0  0.09090  0.67880  0.67400  1.0000
  H   H64       1.0  0.90910  0.67880  0.82600  1.0000
  H   H65       1.0  0.40910  0.82120  0.32600  1.0000
  H   H66       1.0  0.59090  0.82120  0.17400  1.0000
  H   H67       1.0  0.90910  0.32120  0.32600  1.0000
  H   H68       1.0  0.09090  0.32120  0.17400  1.0000
  H   H69       1.0  0.81790  0.07940  0.57890  1.0000
  H   H70       1.0  0.18210  0.07940  0.92110  1.0000
  H   H71       1.0  0.31790  0.57940  0.57890  1.0000
  H   H72       1.0  0.68210  0.57940  0.92110  1.0000
  H   H73       1.0  0.18210  0.92060  0.42110  1.0000
  H   H74       1.0  0.81790  0.92060  0.07890  1.0000
  H   H75       1.0  0.68210  0.42060  0.42110  1.0000
  H   H76       1.0  0.31790  0.42060  0.07890  1.0000
  H   H77       1.0  0.77580  0.02170  0.51340  1.0000
  H   H78       1.0  0.22420  0.02170  0.98660  1.0000
  H   H79       1.0  0.27580  0.52170  0.51340  1.0000
  H   H80       1.0  0.72420  0.52170  0.98660  1.0000
  H   H81       1.0  0.22420  0.97830  0.48660  1.0000
  H   H82       1.0  0.77580  0.97830  0.01340  1.0000
  H   H83       1.0  0.72420  0.47830  0.48660  1.0000
  H   H84       1.0  0.27580  0.47830  0.01340  1.0000
