data_image0
_chemical_formula_structural       Dy4O8Mn4N4C8O16C8H8C8N8O16C4H4C16O8C16O8N8C8H8C8H8N8H8C8H8C8H8C8H8C8H24
_chemical_formula_sum              "Dy4 O56 Mn4 N28 C108 H84"
_cell_length_a       17.889
_cell_length_b       11.244
_cell_length_c       19.702
_cell_angle_alpha    90
_cell_angle_beta     108.77
_cell_angle_gamma    90

_space_group_name_H-M_alt    "P 1"
_space_group_IT_number       1

loop_
  _space_group_symop_operation_xyz
  'x, y, z'

loop_
  _atom_site_type_symbol
  _atom_site_label
  _atom_site_symmetry_multiplicity
  _atom_site_fract_x
  _atom_site_fract_y
  _atom_site_fract_z
  _atom_site_occupancy
  Dy  Dy1       1.0  0.00000  0.92293  0.25000  1.0000
  Dy  Dy2       1.0  0.50000  0.42293  0.25000  1.0000
  Dy  Dy3       1.0  0.00000  0.07707  0.75000  1.0000
  Dy  Dy4       1.0  0.50000  0.57707  0.75000  1.0000
  O   O1        1.0  0.96035  0.08035  0.16306  1.0000
  O   O2        1.0  0.03965  0.08035  0.33694  1.0000
  O   O3        1.0  0.46035  0.58035  0.16306  1.0000
  O   O4        1.0  0.53965  0.58035  0.33694  1.0000
  O   O5        1.0  0.03965  0.91965  0.83694  1.0000
  O   O6        1.0  0.96035  0.91965  0.66306  1.0000
  O   O7        1.0  0.53965  0.41965  0.83694  1.0000
  O   O8        1.0  0.46035  0.41965  0.66306  1.0000
  Mn  Mn1       1.0  0.75000  0.75000  0.00000  1.0000
  Mn  Mn2       1.0  0.25000  0.75000  0.50000  1.0000
  Mn  Mn3       1.0  0.25000  0.25000  0.00000  1.0000
  Mn  Mn4       1.0  0.75000  0.25000  0.50000  1.0000
  N   N1        1.0  0.00000  0.70020  0.25000  1.0000
  N   N2        1.0  0.50000  0.20020  0.25000  1.0000
  N   N3        1.0  0.00000  0.29980  0.75000  1.0000
  N   N4        1.0  0.50000  0.79980  0.75000  1.0000
  C   C1        1.0  0.94531  0.64010  0.19931  1.0000
  C   C2        1.0  0.05469  0.64010  0.30069  1.0000
  C   C3        1.0  0.44531  0.14010  0.19931  1.0000
  C   C4        1.0  0.55469  0.14010  0.30069  1.0000
  C   C5        1.0  0.05469  0.35990  0.80069  1.0000
  C   C6        1.0  0.94531  0.35990  0.69931  1.0000
  C   C7        1.0  0.55469  0.85990  0.80069  1.0000
  C   C8        1.0  0.44531  0.85990  0.69931  1.0000
  O   O9        1.0  0.89301  0.82918  0.15864  1.0000
  O   O10       1.0  0.10699  0.82918  0.34136  1.0000
  O   O11       1.0  0.39301  0.32918  0.15864  1.0000
  O   O12       1.0  0.60699  0.32918  0.34136  1.0000
  O   O13       1.0  0.10699  0.17082  0.84136  1.0000
  O   O14       1.0  0.89301  0.17082  0.65864  1.0000
  O   O15       1.0  0.60699  0.67082  0.84136  1.0000
  O   O16       1.0  0.39301  0.67082  0.65864  1.0000
  O   O17       1.0  0.83976  0.67088  0.09279  1.0000
  O   O18       1.0  0.16024  0.67088  0.40721  1.0000
  O   O19       1.0  0.33976  0.17088  0.09279  1.0000
  O   O20       1.0  0.66024  0.17088  0.40721  1.0000
  O   O21       1.0  0.16024  0.32912  0.90721  1.0000
  O   O22       1.0  0.83976  0.32912  0.59279  1.0000
  O   O23       1.0  0.66024  0.82912  0.90721  1.0000
  O   O24       1.0  0.33976  0.82912  0.59279  1.0000
  C   C9        1.0  0.94332  0.51750  0.19714  1.0000
  C   C10       1.0  0.05668  0.51750  0.30286  1.0000
  C   C11       1.0  0.44332  0.01750  0.19714  1.0000
  C   C12       1.0  0.55668  0.01750  0.30286  1.0000
  C   C13       1.0  0.05668  0.48250  0.80286  1.0000
  C   C14       1.0  0.94332  0.48250  0.69714  1.0000
  C   C15       1.0  0.55668  0.98250  0.80286  1.0000
  C   C16       1.0  0.44332  0.98250  0.69714  1.0000
  H   H1        1.0  0.90490  0.47740  0.16110  1.0000
  H   H2        1.0  0.09510  0.47740  0.33890  1.0000
  H   H3        1.0  0.40490  0.97740  0.16110  1.0000
  H   H4        1.0  0.59510  0.97740  0.33890  1.0000
  H   H5        1.0  0.09510  0.52260  0.83890  1.0000
  H   H6        1.0  0.90490  0.52260  0.66110  1.0000
  H   H7        1.0  0.59510  0.02260  0.83890  1.0000
  H   H8        1.0  0.40490  0.02260  0.66110  1.0000
  C   C17       1.0  0.88732  0.71970  0.14531  1.0000
  C   C18       1.0  0.11268  0.71970  0.35469  1.0000
  C   C19       1.0  0.38732  0.21970  0.14531  1.0000
  C   C20       1.0  0.61268  0.21970  0.35469  1.0000
  C   C21       1.0  0.11268  0.28030  0.85469  1.0000
  C   C22       1.0  0.88732  0.28030  0.64531  1.0000
  C   C23       1.0  0.61268  0.78030  0.85469  1.0000
  C   C24       1.0  0.38732  0.78030  0.64531  1.0000
  N   N5        1.0  0.87676  0.02750  0.24555  1.0000
  N   N6        1.0  0.12324  0.02750  0.25445  1.0000
  N   N7        1.0  0.37676  0.52750  0.24555  1.0000
  N   N8        1.0  0.62324  0.52750  0.25445  1.0000
  N   N9        1.0  0.12324  0.97250  0.75445  1.0000
  N   N10       1.0  0.87676  0.97250  0.74555  1.0000
  N   N11       1.0  0.62324  0.47250  0.75445  1.0000
  N   N12       1.0  0.37676  0.47250  0.74555  1.0000
  O   O25       1.0  0.71680  0.57270  0.95893  1.0000
  O   O26       1.0  0.28320  0.57270  0.54107  1.0000
  O   O27       1.0  0.21680  0.07270  0.95893  1.0000
  O   O28       1.0  0.78320  0.07270  0.54107  1.0000
  O   O29       1.0  0.28320  0.42730  0.04107  1.0000
  O   O30       1.0  0.71680  0.42730  0.45893  1.0000
  O   O31       1.0  0.78320  0.92730  0.04107  1.0000
  O   O32       1.0  0.21680  0.92730  0.45893  1.0000
  O   O33       1.0  0.93990  0.85640  0.33529  1.0000
  O   O34       1.0  0.06010  0.85640  0.16471  1.0000
  O   O35       1.0  0.43990  0.35640  0.33529  1.0000
  O   O36       1.0  0.56010  0.35640  0.16471  1.0000
  O   O37       1.0  0.06010  0.14360  0.66471  1.0000
  O   O38       1.0  0.93990  0.14360  0.83529  1.0000
  O   O39       1.0  0.56010  0.64360  0.66471  1.0000
  O   O40       1.0  0.43990  0.64360  0.83529  1.0000
  C   C25       1.0  0.00000  0.45560  0.25000  1.0000
  C   C26       1.0  0.50000  0.95560  0.25000  1.0000
  C   C27       1.0  0.00000  0.54440  0.75000  1.0000
  C   C28       1.0  0.50000  0.04440  0.75000  1.0000
  H   H9        1.0  0.00000  0.37290  0.25000  1.0000
  H   H10       1.0  0.50000  0.87290  0.25000  1.0000
  H   H11       1.0  0.00000  0.62710  0.75000  1.0000
  H   H12       1.0  0.50000  0.12710  0.75000  1.0000
  C   C29       1.0  0.83722  0.99400  0.28949  1.0000
  C   C30       1.0  0.16278  0.99400  0.21051  1.0000
  C   C31       1.0  0.33722  0.49400  0.28949  1.0000
  C   C32       1.0  0.66278  0.49400  0.21051  1.0000
  C   C33       1.0  0.16278  0.00600  0.71051  1.0000
  C   C34       1.0  0.83722  0.00600  0.78949  1.0000
  C   C35       1.0  0.66278  0.50600  0.71051  1.0000
  C   C36       1.0  0.33722  0.50600  0.78949  1.0000
  C   C37       1.0  0.87855  0.89960  0.34294  1.0000
  C   C38       1.0  0.12145  0.89960  0.15706  1.0000
  C   C39       1.0  0.37855  0.39960  0.34294  1.0000
  C   C40       1.0  0.62145  0.39960  0.15706  1.0000
  C   C41       1.0  0.12145  0.10040  0.65706  1.0000
  C   C42       1.0  0.87855  0.10040  0.84294  1.0000
  C   C43       1.0  0.62145  0.60040  0.65706  1.0000
  C   C44       1.0  0.37855  0.60040  0.84294  1.0000
  O   O41       1.0  0.84934  0.86990  0.38908  1.0000
  O   O42       1.0  0.15066  0.86990  0.11092  1.0000
  O   O43       1.0  0.34934  0.36990  0.38908  1.0000
  O   O44       1.0  0.65066  0.36990  0.11092  1.0000
  O   O45       1.0  0.15066  0.13010  0.61092  1.0000
  O   O46       1.0  0.84934  0.13010  0.88908  1.0000
  O   O47       1.0  0.65066  0.63010  0.61092  1.0000
  O   O48       1.0  0.34934  0.63010  0.88908  1.0000
  C   C45       1.0  0.90139  0.14700  0.15468  1.0000
  C   C46       1.0  0.09861  0.14700  0.34532  1.0000
  C   C47       1.0  0.40139  0.64700  0.15468  1.0000
  C   C48       1.0  0.59861  0.64700  0.34532  1.0000
  C   C49       1.0  0.09861  0.85300  0.84532  1.0000
  C   C50       1.0  0.90139  0.85300  0.65468  1.0000
  C   C51       1.0  0.59861  0.35300  0.84532  1.0000
  C   C52       1.0  0.40139  0.35300  0.65468  1.0000
  C   C53       1.0  0.84843  0.11310  0.19773  1.0000
  C   C54       1.0  0.15157  0.11310  0.30227  1.0000
  C   C55       1.0  0.34843  0.61310  0.19773  1.0000
  C   C56       1.0  0.65157  0.61310  0.30227  1.0000
  C   C57       1.0  0.15157  0.88690  0.80227  1.0000
  C   C58       1.0  0.84843  0.88690  0.69773  1.0000
  C   C59       1.0  0.65157  0.38690  0.80227  1.0000
  C   C60       1.0  0.34843  0.38690  0.69773  1.0000
  O   O49       1.0  0.88574  0.23570  0.11660  1.0000
  O   O50       1.0  0.11426  0.23570  0.38340  1.0000
  O   O51       1.0  0.38574  0.73570  0.11660  1.0000
  O   O52       1.0  0.61426  0.73570  0.38340  1.0000
  O   O53       1.0  0.11426  0.76430  0.88340  1.0000
  O   O54       1.0  0.88574  0.76430  0.61660  1.0000
  O   O55       1.0  0.61426  0.26430  0.88340  1.0000
  O   O56       1.0  0.38574  0.26430  0.61660  1.0000
  N   N13       1.0  0.83634  0.75440  0.93992  1.0000
  N   N14       1.0  0.16366  0.75440  0.56008  1.0000
  N   N15       1.0  0.33634  0.25440  0.93992  1.0000
  N   N16       1.0  0.66366  0.25440  0.56008  1.0000
  N   N17       1.0  0.16366  0.24560  0.06008  1.0000
  N   N18       1.0  0.83634  0.24560  0.43992  1.0000
  N   N19       1.0  0.66366  0.74560  0.06008  1.0000
  N   N20       1.0  0.33634  0.74560  0.43992  1.0000
  C   C61       1.0  0.76540  0.04420  0.28560  1.0000
  C   C62       1.0  0.23460  0.04420  0.21440  1.0000
  C   C63       1.0  0.26540  0.54420  0.28560  1.0000
  C   C64       1.0  0.73460  0.54420  0.21440  1.0000
  C   C65       1.0  0.23460  0.95580  0.71440  1.0000
  C   C66       1.0  0.76540  0.95580  0.78560  1.0000
  C   C67       1.0  0.73460  0.45580  0.71440  1.0000
  C   C68       1.0  0.26540  0.45580  0.78560  1.0000
  H   H13       1.0  0.73860  0.02060  0.31670  1.0000
  H   H14       1.0  0.26140  0.02060  0.18330  1.0000
  H   H15       1.0  0.23860  0.52060  0.31670  1.0000
  H   H16       1.0  0.76140  0.52060  0.18330  1.0000
  H   H17       1.0  0.26140  0.97940  0.68330  1.0000
  H   H18       1.0  0.73860  0.97940  0.81670  1.0000
  H   H19       1.0  0.76140  0.47940  0.68330  1.0000
  H   H20       1.0  0.23860  0.47940  0.81670  1.0000
  C   C69       1.0  0.77660  0.16640  0.19030  1.0000
  C   C70       1.0  0.22340  0.16640  0.30970  1.0000
  C   C71       1.0  0.27660  0.66640  0.19030  1.0000
  C   C72       1.0  0.72340  0.66640  0.30970  1.0000
  C   C73       1.0  0.22340  0.83360  0.80970  1.0000
  C   C74       1.0  0.77660  0.83360  0.69030  1.0000
  C   C75       1.0  0.72340  0.33360  0.80970  1.0000
  C   C76       1.0  0.27660  0.33360  0.69030  1.0000
  H   H21       1.0  0.75670  0.22550  0.15620  1.0000
  H   H22       1.0  0.24330  0.22550  0.34380  1.0000
  H   H23       1.0  0.25670  0.72550  0.15620  1.0000
  H   H24       1.0  0.74330  0.72550  0.34380  1.0000
  H   H25       1.0  0.24330  0.77450  0.84380  1.0000
  H   H26       1.0  0.75670  0.77450  0.65620  1.0000
  H   H27       1.0  0.74330  0.27450  0.84380  1.0000
  H   H28       1.0  0.25670  0.27450  0.65620  1.0000
  N   N21       1.0  0.93320  0.80040  0.89960  1.0000
  N   N22       1.0  0.06680  0.80040  0.60040  1.0000
  N   N23       1.0  0.43320  0.30040  0.89960  1.0000
  N   N24       1.0  0.56680  0.30040  0.60040  1.0000
  N   N25       1.0  0.06680  0.19960  0.10040  1.0000
  N   N26       1.0  0.93320  0.19960  0.39960  1.0000
  N   N27       1.0  0.56680  0.69960  0.10040  1.0000
  N   N28       1.0  0.43320  0.69960  0.39960  1.0000
  H   H29       1.0  0.97430  0.83600  0.89600  1.0000
  H   H30       1.0  0.02570  0.83600  0.60400  1.0000
  H   H31       1.0  0.47430  0.33600  0.89600  1.0000
  H   H32       1.0  0.52570  0.33600  0.60400  1.0000
  H   H33       1.0  0.02570  0.16400  0.10400  1.0000
  H   H34       1.0  0.97430  0.16400  0.39600  1.0000
  H   H35       1.0  0.52570  0.66400  0.10400  1.0000
  H   H36       1.0  0.47430  0.66400  0.39600  1.0000
  C   C77       1.0  0.89410  0.82590  0.94430  1.0000
  C   C78       1.0  0.10590  0.82590  0.55570  1.0000
  C   C79       1.0  0.39410  0.32590  0.94430  1.0000
  C   C80       1.0  0.60590  0.32590  0.55570  1.0000
  C   C81       1.0  0.10590  0.17410  0.05570  1.0000
  C   C82       1.0  0.89410  0.17410  0.44430  1.0000
  C   C83       1.0  0.60590  0.67410  0.05570  1.0000
  C   C84       1.0  0.39410  0.67410  0.44430  1.0000
  H   H37       1.0  0.90710  0.88960  0.97610  1.0000
  H   H38       1.0  0.09290  0.88960  0.52390  1.0000
  H   H39       1.0  0.40710  0.38960  0.97610  1.0000
  H   H40       1.0  0.59290  0.38960  0.52390  1.0000
  H   H41       1.0  0.09290  0.11040  0.02390  1.0000
  H   H42       1.0  0.90710  0.11040  0.47610  1.0000
  H   H43       1.0  0.59290  0.61040  0.02390  1.0000
  H   H44       1.0  0.40710  0.61040  0.47610  1.0000
  C   C85       1.0  0.89500  0.70620  0.86040  1.0000
  C   C86       1.0  0.10500  0.70620  0.63960  1.0000
  C   C87       1.0  0.39500  0.20620  0.86040  1.0000
  C   C88       1.0  0.60500  0.20620  0.63960  1.0000
  C   C89       1.0  0.10500  0.29380  0.13960  1.0000
  C   C90       1.0  0.89500  0.29380  0.36040  1.0000
  C   C91       1.0  0.60500  0.79380  0.13960  1.0000
  C   C92       1.0  0.39500  0.79380  0.36040  1.0000
  H   H45       1.0  0.90810  0.66850  0.82370  1.0000
  H   H46       1.0  0.09190  0.66850  0.67630  1.0000
  H   H47       1.0  0.40810  0.16850  0.82370  1.0000
  H   H48       1.0  0.59190  0.16850  0.67630  1.0000
  H   H49       1.0  0.09190  0.33150  0.17630  1.0000
  H   H50       1.0  0.90810  0.33150  0.32370  1.0000
  H   H51       1.0  0.59190  0.83150  0.17630  1.0000
  H   H52       1.0  0.40810  0.83150  0.32370  1.0000
  C   C93       1.0  0.73490  0.12970  0.23470  1.0000
  C   C94       1.0  0.26510  0.12970  0.26530  1.0000
  C   C95       1.0  0.23490  0.62970  0.23470  1.0000
  C   C96       1.0  0.76510  0.62970  0.26530  1.0000
  C   C97       1.0  0.26510  0.87030  0.76530  1.0000
  C   C98       1.0  0.73490  0.87030  0.73470  1.0000
  C   C99       1.0  0.76510  0.37030  0.76530  1.0000
  C   C100      1.0  0.23490  0.37030  0.73470  1.0000
  H   H53       1.0  0.68600  0.16320  0.23010  1.0000
  H   H54       1.0  0.31400  0.16320  0.26990  1.0000
  H   H55       1.0  0.18600  0.66320  0.23010  1.0000
  H   H56       1.0  0.81400  0.66320  0.26990  1.0000
  H   H57       1.0  0.31400  0.83680  0.76990  1.0000
  H   H58       1.0  0.68600  0.83680  0.73010  1.0000
  H   H59       1.0  0.81400  0.33680  0.76990  1.0000
  H   H60       1.0  0.18600  0.33680  0.73010  1.0000
  C   C101      1.0  0.83440  0.67730  0.88430  1.0000
  C   C102      1.0  0.16560  0.67730  0.61570  1.0000
  C   C103      1.0  0.33440  0.17730  0.88430  1.0000
  C   C104      1.0  0.66560  0.17730  0.61570  1.0000
  C   C105      1.0  0.16560  0.32270  0.11570  1.0000
  C   C106      1.0  0.83440  0.32270  0.38430  1.0000
  C   C107      1.0  0.66560  0.82270  0.11570  1.0000
  C   C108      1.0  0.33440  0.82270  0.38430  1.0000
  H   H61       1.0  0.79790  0.61660  0.86670  1.0000
  H   H62       1.0  0.20210  0.61660  0.63330  1.0000
  H   H63       1.0  0.29790  0.11660  0.86670  1.0000
  H   H64       1.0  0.70210  0.11660  0.63330  1.0000
  H   H65       1.0  0.20210  0.38340  0.13330  1.0000
  H   H66       1.0  0.79790  0.38340  0.36670  1.0000
  H   H67       1.0  0.70210  0.88340  0.13330  1.0000
  H   H68       1.0  0.29790  0.88340  0.36670  1.0000
  H   H69       1.0  0.72610  0.50930  0.98130  1.0000
  H   H70       1.0  0.27390  0.50930  0.51870  1.0000
  H   H71       1.0  0.22610  0.00930  0.98130  1.0000
  H   H72       1.0  0.77390  0.00930  0.51870  1.0000
  H   H73       1.0  0.27390  0.49070  0.01870  1.0000
  H   H74       1.0  0.72610  0.49070  0.48130  1.0000
  H   H75       1.0  0.77390  0.99070  0.01870  1.0000
  H   H76       1.0  0.22610  0.99070  0.48130  1.0000
  H   H77       1.0  0.67410  0.57140  0.92220  1.0000
  H   H78       1.0  0.32590  0.57140  0.57780  1.0000
  H   H79       1.0  0.17410  0.07140  0.92220  1.0000
  H   H80       1.0  0.82590  0.07140  0.57780  1.0000
  H   H81       1.0  0.32590  0.42860  0.07780  1.0000
  H   H82       1.0  0.67410  0.42860  0.42220  1.0000
  H   H83       1.0  0.82590  0.92860  0.07780  1.0000
  H   H84       1.0  0.17410  0.92860  0.42220  1.0000
