data_image0
_chemical_formula_structural       Gd4Mn4N4C16H8O8N8O8C8O8C4H4C16N8C8H8C8H8N8H8C8H8C8H8C8H8C8O16C8O16C8H24
_chemical_formula_sum              "Gd4 Mn4 N28 C108 H84 O56"
_cell_length_a       17.954
_cell_length_b       11.241
_cell_length_c       19.604
_cell_angle_alpha    90
_cell_angle_beta     108.51
_cell_angle_gamma    90

_space_group_name_H-M_alt    "P 1"
_space_group_IT_number       1

loop_
  _space_group_symop_operation_xyz
  'x, y, z'

loop_
  _atom_site_type_symbol
  _atom_site_label
  _atom_site_symmetry_multiplicity
  _atom_site_fract_x
  _atom_site_fract_y
  _atom_site_fract_z
  _atom_site_occupancy
  Gd  Gd1       1.0  0.00000  0.07390  0.25000  1.0000
  Gd  Gd2       1.0  0.50000  0.57390  0.25000  1.0000
  Gd  Gd3       1.0  0.00000  0.92610  0.75000  1.0000
  Gd  Gd4       1.0  0.50000  0.42610  0.75000  1.0000
  Mn  Mn1       1.0  0.75000  0.25000  0.00000  1.0000
  Mn  Mn2       1.0  0.25000  0.25000  0.50000  1.0000
  Mn  Mn3       1.0  0.25000  0.75000  0.00000  1.0000
  Mn  Mn4       1.0  0.75000  0.75000  0.50000  1.0000
  N   N1        1.0  0.00000  0.30020  0.25000  1.0000
  N   N2        1.0  0.50000  0.80020  0.25000  1.0000
  N   N3        1.0  0.00000  0.69980  0.75000  1.0000
  N   N4        1.0  0.50000  0.19980  0.75000  1.0000
  C   C1        1.0  0.94580  0.35970  0.19930  1.0000
  C   C2        1.0  0.05420  0.35970  0.30070  1.0000
  C   C3        1.0  0.44580  0.85970  0.19930  1.0000
  C   C4        1.0  0.55420  0.85970  0.30070  1.0000
  C   C5        1.0  0.05420  0.64030  0.80070  1.0000
  C   C6        1.0  0.94580  0.64030  0.69930  1.0000
  C   C7        1.0  0.55420  0.14030  0.80070  1.0000
  C   C8        1.0  0.44580  0.14030  0.69930  1.0000
  C   C9        1.0  0.94310  0.48230  0.19740  1.0000
  C   C10       1.0  0.05690  0.48230  0.30260  1.0000
  C   C11       1.0  0.44310  0.98230  0.19740  1.0000
  C   C12       1.0  0.55690  0.98230  0.30260  1.0000
  C   C13       1.0  0.05690  0.51770  0.80260  1.0000
  C   C14       1.0  0.94310  0.51770  0.69740  1.0000
  C   C15       1.0  0.55690  0.01770  0.80260  1.0000
  C   C16       1.0  0.44310  0.01770  0.69740  1.0000
  H   H1        1.0  0.90420  0.52230  0.16180  1.0000
  H   H2        1.0  0.09580  0.52230  0.33820  1.0000
  H   H3        1.0  0.40420  0.02230  0.16180  1.0000
  H   H4        1.0  0.59580  0.02230  0.33820  1.0000
  H   H5        1.0  0.09580  0.47770  0.83820  1.0000
  H   H6        1.0  0.90420  0.47770  0.66180  1.0000
  H   H7        1.0  0.59580  0.97770  0.83820  1.0000
  H   H8        1.0  0.40420  0.97770  0.66180  1.0000
  O   O1        1.0  0.89320  0.17010  0.15760  1.0000
  O   O2        1.0  0.10680  0.17010  0.34240  1.0000
  O   O3        1.0  0.39320  0.67010  0.15760  1.0000
  O   O4        1.0  0.60680  0.67010  0.34240  1.0000
  O   O5        1.0  0.10680  0.82990  0.84240  1.0000
  O   O6        1.0  0.89320  0.82990  0.65760  1.0000
  O   O7        1.0  0.60680  0.32990  0.84240  1.0000
  O   O8        1.0  0.39320  0.32990  0.65760  1.0000
  N   N5        1.0  0.87610  0.96780  0.24570  1.0000
  N   N6        1.0  0.12390  0.96780  0.25430  1.0000
  N   N7        1.0  0.37610  0.46780  0.24570  1.0000
  N   N8        1.0  0.62390  0.46780  0.25430  1.0000
  N   N9        1.0  0.12390  0.03220  0.75430  1.0000
  N   N10       1.0  0.87610  0.03220  0.74570  1.0000
  N   N11       1.0  0.62390  0.53220  0.75430  1.0000
  N   N12       1.0  0.37610  0.53220  0.74570  1.0000
  O   O9        1.0  0.83970  0.32870  0.09300  1.0000
  O   O10       1.0  0.16030  0.32870  0.40700  1.0000
  O   O11       1.0  0.33970  0.82870  0.09300  1.0000
  O   O12       1.0  0.66030  0.82870  0.40700  1.0000
  O   O13       1.0  0.16030  0.67130  0.90700  1.0000
  O   O14       1.0  0.83970  0.67130  0.59300  1.0000
  O   O15       1.0  0.66030  0.17130  0.90700  1.0000
  O   O16       1.0  0.33970  0.17130  0.59300  1.0000
  C   C17       1.0  0.88780  0.27980  0.14550  1.0000
  C   C18       1.0  0.11220  0.27980  0.35450  1.0000
  C   C19       1.0  0.38780  0.77980  0.14550  1.0000
  C   C20       1.0  0.61220  0.77980  0.35450  1.0000
  C   C21       1.0  0.11220  0.72020  0.85450  1.0000
  C   C22       1.0  0.88780  0.72020  0.64550  1.0000
  C   C23       1.0  0.61220  0.22020  0.85450  1.0000
  C   C24       1.0  0.38780  0.22020  0.64550  1.0000
  O   O17       1.0  0.78390  0.07260  0.04000  1.0000
  O   O18       1.0  0.21610  0.07260  0.46000  1.0000
  O   O19       1.0  0.28390  0.57260  0.04000  1.0000
  O   O20       1.0  0.71610  0.57260  0.46000  1.0000
  O   O21       1.0  0.21610  0.92740  0.96000  1.0000
  O   O22       1.0  0.78390  0.92740  0.54000  1.0000
  O   O23       1.0  0.71610  0.42740  0.96000  1.0000
  O   O24       1.0  0.28390  0.42740  0.54000  1.0000
  C   C25       1.0  0.00000  0.54390  0.25000  1.0000
  C   C26       1.0  0.50000  0.04390  0.25000  1.0000
  C   C27       1.0  0.00000  0.45610  0.75000  1.0000
  C   C28       1.0  0.50000  0.95610  0.75000  1.0000
  H   H9        1.0  0.00000  0.62670  0.25000  1.0000
  H   H10       1.0  0.50000  0.12670  0.25000  1.0000
  H   H11       1.0  0.00000  0.37330  0.75000  1.0000
  H   H12       1.0  0.50000  0.87330  0.75000  1.0000
  C   C29       1.0  0.83630  0.00050  0.29000  1.0000
  C   C30       1.0  0.16370  0.00050  0.21000  1.0000
  C   C31       1.0  0.33630  0.50050  0.29000  1.0000
  C   C32       1.0  0.66370  0.50050  0.21000  1.0000
  C   C33       1.0  0.16370  0.99950  0.71000  1.0000
  C   C34       1.0  0.83630  0.99950  0.79000  1.0000
  C   C35       1.0  0.66370  0.49950  0.71000  1.0000
  C   C36       1.0  0.33630  0.49950  0.79000  1.0000
  C   C37       1.0  0.84750  0.88280  0.19760  1.0000
  C   C38       1.0  0.15250  0.88280  0.30240  1.0000
  C   C39       1.0  0.34750  0.38280  0.19760  1.0000
  C   C40       1.0  0.65250  0.38280  0.30240  1.0000
  C   C41       1.0  0.15250  0.11720  0.80240  1.0000
  C   C42       1.0  0.84750  0.11720  0.69760  1.0000
  C   C43       1.0  0.65250  0.61720  0.80240  1.0000
  C   C44       1.0  0.34750  0.61720  0.69760  1.0000
  N   N13       1.0  0.83590  0.24820  0.93990  1.0000
  N   N14       1.0  0.16410  0.24820  0.56010  1.0000
  N   N15       1.0  0.33590  0.74820  0.93990  1.0000
  N   N16       1.0  0.66410  0.74820  0.56010  1.0000
  N   N17       1.0  0.16410  0.75180  0.06010  1.0000
  N   N18       1.0  0.83590  0.75180  0.43990  1.0000
  N   N19       1.0  0.66410  0.25180  0.06010  1.0000
  N   N20       1.0  0.33590  0.25180  0.43990  1.0000
  C   C45       1.0  0.77630  0.82910  0.19050  1.0000
  C   C46       1.0  0.22370  0.82910  0.30950  1.0000
  C   C47       1.0  0.27630  0.32910  0.19050  1.0000
  C   C48       1.0  0.72370  0.32910  0.30950  1.0000
  C   C49       1.0  0.22370  0.17090  0.80950  1.0000
  C   C50       1.0  0.77630  0.17090  0.69050  1.0000
  C   C51       1.0  0.72370  0.67090  0.80950  1.0000
  C   C52       1.0  0.27630  0.67090  0.69050  1.0000
  H   H13       1.0  0.75670  0.76950  0.15670  1.0000
  H   H14       1.0  0.24330  0.76950  0.34330  1.0000
  H   H15       1.0  0.25670  0.26950  0.15670  1.0000
  H   H16       1.0  0.74330  0.26950  0.34330  1.0000
  H   H17       1.0  0.24330  0.23050  0.84330  1.0000
  H   H18       1.0  0.75670  0.23050  0.65670  1.0000
  H   H19       1.0  0.74330  0.73050  0.84330  1.0000
  H   H20       1.0  0.25670  0.73050  0.65670  1.0000
  C   C53       1.0  0.76560  0.95060  0.28670  1.0000
  C   C54       1.0  0.23440  0.95060  0.21330  1.0000
  C   C55       1.0  0.26560  0.45060  0.28670  1.0000
  C   C56       1.0  0.73440  0.45060  0.21330  1.0000
  C   C57       1.0  0.23440  0.04940  0.71330  1.0000
  C   C58       1.0  0.76560  0.04940  0.78670  1.0000
  C   C59       1.0  0.73440  0.54940  0.71330  1.0000
  C   C60       1.0  0.26560  0.54940  0.78670  1.0000
  H   H21       1.0  0.73950  0.97340  0.31870  1.0000
  H   H22       1.0  0.26050  0.97340  0.18130  1.0000
  H   H23       1.0  0.23950  0.47340  0.31870  1.0000
  H   H24       1.0  0.76050  0.47340  0.18130  1.0000
  H   H25       1.0  0.26050  0.02660  0.68130  1.0000
  H   H26       1.0  0.73950  0.02660  0.81870  1.0000
  H   H27       1.0  0.76050  0.52660  0.68130  1.0000
  H   H28       1.0  0.23950  0.52660  0.81870  1.0000
  N   N21       1.0  0.93330  0.20650  0.89870  1.0000
  N   N22       1.0  0.06670  0.20650  0.60130  1.0000
  N   N23       1.0  0.43330  0.70650  0.89870  1.0000
  N   N24       1.0  0.56670  0.70650  0.60130  1.0000
  N   N25       1.0  0.06670  0.79350  0.10130  1.0000
  N   N26       1.0  0.93330  0.79350  0.39870  1.0000
  N   N27       1.0  0.56670  0.29350  0.10130  1.0000
  N   N28       1.0  0.43330  0.29350  0.39870  1.0000
  H   H29       1.0  0.97360  0.17120  0.89340  1.0000
  H   H30       1.0  0.02640  0.17120  0.60660  1.0000
  H   H31       1.0  0.47360  0.67120  0.89340  1.0000
  H   H32       1.0  0.52640  0.67120  0.60660  1.0000
  H   H33       1.0  0.02640  0.82880  0.10660  1.0000
  H   H34       1.0  0.97360  0.82880  0.39340  1.0000
  H   H35       1.0  0.52640  0.32880  0.10660  1.0000
  H   H36       1.0  0.47360  0.32880  0.39340  1.0000
  C   C61       1.0  0.89470  0.17910  0.94470  1.0000
  C   C62       1.0  0.10530  0.17910  0.55530  1.0000
  C   C63       1.0  0.39470  0.67910  0.94470  1.0000
  C   C64       1.0  0.60530  0.67910  0.55530  1.0000
  C   C65       1.0  0.10530  0.82090  0.05530  1.0000
  C   C66       1.0  0.89470  0.82090  0.44470  1.0000
  C   C67       1.0  0.60530  0.32090  0.05530  1.0000
  C   C68       1.0  0.39470  0.32090  0.44470  1.0000
  H   H37       1.0  0.90890  0.11630  0.97710  1.0000
  H   H38       1.0  0.09110  0.11630  0.52290  1.0000
  H   H39       1.0  0.40890  0.61630  0.97710  1.0000
  H   H40       1.0  0.59110  0.61630  0.52290  1.0000
  H   H41       1.0  0.09110  0.88370  0.02290  1.0000
  H   H42       1.0  0.90890  0.88370  0.47710  1.0000
  H   H43       1.0  0.59110  0.38370  0.02290  1.0000
  H   H44       1.0  0.40890  0.38370  0.47710  1.0000
  C   C69       1.0  0.73480  0.86710  0.23570  1.0000
  C   C70       1.0  0.26520  0.86710  0.26430  1.0000
  C   C71       1.0  0.23480  0.36710  0.23570  1.0000
  C   C72       1.0  0.76520  0.36710  0.26430  1.0000
  C   C73       1.0  0.26520  0.13290  0.76430  1.0000
  C   C74       1.0  0.73480  0.13290  0.73570  1.0000
  C   C75       1.0  0.76520  0.63290  0.76430  1.0000
  C   C76       1.0  0.23480  0.63290  0.73570  1.0000
  H   H45       1.0  0.68560  0.83500  0.23080  1.0000
  H   H46       1.0  0.31440  0.83500  0.26920  1.0000
  H   H47       1.0  0.18560  0.33500  0.23080  1.0000
  H   H48       1.0  0.81440  0.33500  0.26920  1.0000
  H   H49       1.0  0.31440  0.16500  0.76920  1.0000
  H   H50       1.0  0.68560  0.16500  0.73080  1.0000
  H   H51       1.0  0.81440  0.66500  0.76920  1.0000
  H   H52       1.0  0.18560  0.66500  0.73080  1.0000
  C   C77       1.0  0.83440  0.32720  0.88490  1.0000
  C   C78       1.0  0.16560  0.32720  0.61510  1.0000
  C   C79       1.0  0.33440  0.82720  0.88490  1.0000
  C   C80       1.0  0.66560  0.82720  0.61510  1.0000
  C   C81       1.0  0.16560  0.67280  0.11510  1.0000
  C   C82       1.0  0.83440  0.67280  0.38490  1.0000
  C   C83       1.0  0.66560  0.17280  0.11510  1.0000
  C   C84       1.0  0.33440  0.17280  0.38490  1.0000
  H   H53       1.0  0.79730  0.38680  0.86730  1.0000
  H   H54       1.0  0.20270  0.38680  0.63270  1.0000
  H   H55       1.0  0.29730  0.88680  0.86730  1.0000
  H   H56       1.0  0.70270  0.88680  0.63270  1.0000
  H   H57       1.0  0.20270  0.61320  0.13270  1.0000
  H   H58       1.0  0.79730  0.61320  0.36730  1.0000
  H   H59       1.0  0.70270  0.11320  0.13270  1.0000
  H   H60       1.0  0.29730  0.11320  0.36730  1.0000
  C   C85       1.0  0.87680  0.09580  0.34320  1.0000
  C   C86       1.0  0.12320  0.09580  0.15680  1.0000
  C   C87       1.0  0.37680  0.59580  0.34320  1.0000
  C   C88       1.0  0.62320  0.59580  0.15680  1.0000
  C   C89       1.0  0.12320  0.90420  0.65680  1.0000
  C   C90       1.0  0.87680  0.90420  0.84320  1.0000
  C   C91       1.0  0.62320  0.40420  0.65680  1.0000
  C   C92       1.0  0.37680  0.40420  0.84320  1.0000
  O   O25       1.0  0.93800  0.13950  0.33590  1.0000
  O   O26       1.0  0.06200  0.13950  0.16410  1.0000
  O   O27       1.0  0.43800  0.63950  0.33590  1.0000
  O   O28       1.0  0.56200  0.63950  0.16410  1.0000
  O   O29       1.0  0.06200  0.86050  0.66410  1.0000
  O   O30       1.0  0.93800  0.86050  0.83590  1.0000
  O   O31       1.0  0.56200  0.36050  0.66410  1.0000
  O   O32       1.0  0.43800  0.36050  0.83590  1.0000
  O   O33       1.0  0.84840  0.12350  0.39060  1.0000
  O   O34       1.0  0.15160  0.12350  0.10940  1.0000
  O   O35       1.0  0.34840  0.62350  0.39060  1.0000
  O   O36       1.0  0.65160  0.62350  0.10940  1.0000
  O   O37       1.0  0.15160  0.87650  0.60940  1.0000
  O   O38       1.0  0.84840  0.87650  0.89060  1.0000
  O   O39       1.0  0.65160  0.37650  0.60940  1.0000
  O   O40       1.0  0.34840  0.37650  0.89060  1.0000
  C   C93       1.0  0.90030  0.84760  0.15440  1.0000
  C   C94       1.0  0.09970  0.84760  0.34560  1.0000
  C   C95       1.0  0.40030  0.34760  0.15440  1.0000
  C   C96       1.0  0.59970  0.34760  0.34560  1.0000
  C   C97       1.0  0.09970  0.15240  0.84560  1.0000
  C   C98       1.0  0.90030  0.15240  0.65440  1.0000
  C   C99       1.0  0.59970  0.65240  0.84560  1.0000
  C   C100      1.0  0.40030  0.65240  0.65440  1.0000
  O   O41       1.0  0.95980  0.91630  0.16260  1.0000
  O   O42       1.0  0.04020  0.91630  0.33740  1.0000
  O   O43       1.0  0.45980  0.41630  0.16260  1.0000
  O   O44       1.0  0.54020  0.41630  0.33740  1.0000
  O   O45       1.0  0.04020  0.08370  0.83740  1.0000
  O   O46       1.0  0.95980  0.08370  0.66260  1.0000
  O   O47       1.0  0.54020  0.58370  0.83740  1.0000
  O   O48       1.0  0.45980  0.58370  0.66260  1.0000
  O   O49       1.0  0.88470  0.75940  0.11650  1.0000
  O   O50       1.0  0.11530  0.75940  0.38350  1.0000
  O   O51       1.0  0.38470  0.25940  0.11650  1.0000
  O   O52       1.0  0.61530  0.25940  0.38350  1.0000
  O   O53       1.0  0.11530  0.24060  0.88350  1.0000
  O   O54       1.0  0.88470  0.24060  0.61650  1.0000
  O   O55       1.0  0.61530  0.74060  0.88350  1.0000
  O   O56       1.0  0.38470  0.74060  0.61650  1.0000
  C   C101      1.0  0.89420  0.30350  0.86180  1.0000
  C   C102      1.0  0.10580  0.30350  0.63820  1.0000
  C   C103      1.0  0.39420  0.80350  0.86180  1.0000
  C   C104      1.0  0.60580  0.80350  0.63820  1.0000
  C   C105      1.0  0.10580  0.69650  0.13820  1.0000
  C   C106      1.0  0.89420  0.69650  0.36180  1.0000
  C   C107      1.0  0.60580  0.19650  0.13820  1.0000
  C   C108      1.0  0.39420  0.19650  0.36180  1.0000
  H   H61       1.0  0.90760  0.34540  0.82650  1.0000
  H   H62       1.0  0.09240  0.34540  0.67350  1.0000
  H   H63       1.0  0.40760  0.84540  0.82650  1.0000
  H   H64       1.0  0.59240  0.84540  0.67350  1.0000
  H   H65       1.0  0.09240  0.65460  0.17350  1.0000
  H   H66       1.0  0.90760  0.65460  0.32650  1.0000
  H   H67       1.0  0.59240  0.15460  0.17350  1.0000
  H   H68       1.0  0.40760  0.15460  0.32650  1.0000
  H   H69       1.0  0.78290  0.03820  0.00210  1.0000
  H   H70       1.0  0.21710  0.03820  0.49790  1.0000
  H   H71       1.0  0.28290  0.53820  0.00210  1.0000
  H   H72       1.0  0.71710  0.53820  0.49790  1.0000
  H   H73       1.0  0.21710  0.96180  0.99790  1.0000
  H   H74       1.0  0.78290  0.96180  0.50210  1.0000
  H   H75       1.0  0.71710  0.46180  0.99790  1.0000
  H   H76       1.0  0.28290  0.46180  0.50210  1.0000
  H   H77       1.0  0.81440  0.04610  0.07800  1.0000
  H   H78       1.0  0.18560  0.04610  0.42200  1.0000
  H   H79       1.0  0.31440  0.54610  0.07800  1.0000
  H   H80       1.0  0.68560  0.54610  0.42200  1.0000
  H   H81       1.0  0.18560  0.95390  0.92200  1.0000
  H   H82       1.0  0.81440  0.95390  0.57800  1.0000
  H   H83       1.0  0.68560  0.45390  0.92200  1.0000
  H   H84       1.0  0.31440  0.45390  0.57800  1.0000
