data_image0
_chemical_formula_structural       Er4O8Mn4N4C16H8O8C4H4O8N8O16C16O8C16O8C16H8N8C8H8C8H8C8H8C8H8C8H8N8H24
_chemical_formula_sum              "Er4 O56 Mn4 N28 C108 H84"
_cell_length_a       17.862
_cell_length_b       11.206
_cell_length_c       19.821
_cell_angle_alpha    90
_cell_angle_beta     108.86
_cell_angle_gamma    90

_space_group_name_H-M_alt    "P 1"
_space_group_IT_number       1

loop_
  _space_group_symop_operation_xyz
  'x, y, z'

loop_
  _atom_site_type_symbol
  _atom_site_label
  _atom_site_symmetry_multiplicity
  _atom_site_fract_x
  _atom_site_fract_y
  _atom_site_fract_z
  _atom_site_occupancy
  Er  Er1       1.0  0.00000  0.92192  0.25000  1.0000
  Er  Er2       1.0  0.50000  0.42192  0.25000  1.0000
  Er  Er3       1.0  0.00000  0.07808  0.75000  1.0000
  Er  Er4       1.0  0.50000  0.57808  0.75000  1.0000
  O   O1        1.0  0.96140  0.07820  0.16403  1.0000
  O   O2        1.0  0.03860  0.07820  0.33597  1.0000
  O   O3        1.0  0.46140  0.57820  0.16403  1.0000
  O   O4        1.0  0.53860  0.57820  0.33597  1.0000
  O   O5        1.0  0.03860  0.92180  0.83597  1.0000
  O   O6        1.0  0.96140  0.92180  0.66403  1.0000
  O   O7        1.0  0.53860  0.42180  0.83597  1.0000
  O   O8        1.0  0.46140  0.42180  0.66403  1.0000
  Mn  Mn1       1.0  0.75000  0.75000  0.00000  1.0000
  Mn  Mn2       1.0  0.25000  0.75000  0.50000  1.0000
  Mn  Mn3       1.0  0.25000  0.25000  0.00000  1.0000
  Mn  Mn4       1.0  0.75000  0.25000  0.50000  1.0000
  N   N1        1.0  0.00000  0.70100  0.25000  1.0000
  N   N2        1.0  0.50000  0.20100  0.25000  1.0000
  N   N3        1.0  0.00000  0.29900  0.75000  1.0000
  N   N4        1.0  0.50000  0.79900  0.75000  1.0000
  C   C1        1.0  0.94550  0.64080  0.19924  1.0000
  C   C2        1.0  0.05450  0.64080  0.30076  1.0000
  C   C3        1.0  0.44550  0.14080  0.19924  1.0000
  C   C4        1.0  0.55450  0.14080  0.30076  1.0000
  C   C5        1.0  0.05450  0.35920  0.80076  1.0000
  C   C6        1.0  0.94550  0.35920  0.69924  1.0000
  C   C7        1.0  0.55450  0.85920  0.80076  1.0000
  C   C8        1.0  0.44550  0.85920  0.69924  1.0000
  C   C9        1.0  0.94320  0.51780  0.19690  1.0000
  C   C10       1.0  0.05680  0.51780  0.30310  1.0000
  C   C11       1.0  0.44320  0.01780  0.19690  1.0000
  C   C12       1.0  0.55680  0.01780  0.30310  1.0000
  C   C13       1.0  0.05680  0.48220  0.80310  1.0000
  C   C14       1.0  0.94320  0.48220  0.69690  1.0000
  C   C15       1.0  0.55680  0.98220  0.80310  1.0000
  C   C16       1.0  0.44320  0.98220  0.69690  1.0000
  H   H1        1.0  0.90490  0.47770  0.16090  1.0000
  H   H2        1.0  0.09510  0.47770  0.33910  1.0000
  H   H3        1.0  0.40490  0.97770  0.16090  1.0000
  H   H4        1.0  0.59510  0.97770  0.33910  1.0000
  H   H5        1.0  0.09510  0.52230  0.83910  1.0000
  H   H6        1.0  0.90490  0.52230  0.66090  1.0000
  H   H7        1.0  0.59510  0.02230  0.83910  1.0000
  H   H8        1.0  0.40490  0.02230  0.66090  1.0000
  O   O9        1.0  0.71600  0.57150  0.95980  1.0000
  O   O10       1.0  0.28400  0.57150  0.54020  1.0000
  O   O11       1.0  0.21600  0.07150  0.95980  1.0000
  O   O12       1.0  0.78400  0.07150  0.54020  1.0000
  O   O13       1.0  0.28400  0.42850  0.04020  1.0000
  O   O14       1.0  0.71600  0.42850  0.45980  1.0000
  O   O15       1.0  0.78400  0.92850  0.04020  1.0000
  O   O16       1.0  0.21600  0.92850  0.45980  1.0000
  C   C17       1.0  0.00000  0.45560  0.25000  1.0000
  C   C18       1.0  0.50000  0.95560  0.25000  1.0000
  C   C19       1.0  0.00000  0.54440  0.75000  1.0000
  C   C20       1.0  0.50000  0.04440  0.75000  1.0000
  H   H9        1.0  0.00000  0.37260  0.25000  1.0000
  H   H10       1.0  0.50000  0.87260  0.25000  1.0000
  H   H11       1.0  0.00000  0.62740  0.75000  1.0000
  H   H12       1.0  0.50000  0.12740  0.75000  1.0000
  O   O17       1.0  0.89319  0.83050  0.15886  1.0000
  O   O18       1.0  0.10681  0.83050  0.34114  1.0000
  O   O19       1.0  0.39319  0.33050  0.15886  1.0000
  O   O20       1.0  0.60681  0.33050  0.34114  1.0000
  O   O21       1.0  0.10681  0.16950  0.84114  1.0000
  O   O22       1.0  0.89319  0.16950  0.65886  1.0000
  O   O23       1.0  0.60681  0.66950  0.84114  1.0000
  O   O24       1.0  0.39319  0.66950  0.65886  1.0000
  N   N5        1.0  0.87730  0.02570  0.24532  1.0000
  N   N6        1.0  0.12270  0.02570  0.25468  1.0000
  N   N7        1.0  0.37730  0.52570  0.24532  1.0000
  N   N8        1.0  0.62270  0.52570  0.25468  1.0000
  N   N9        1.0  0.12270  0.97430  0.75468  1.0000
  N   N10       1.0  0.87730  0.97430  0.74532  1.0000
  N   N11       1.0  0.62270  0.47430  0.75468  1.0000
  N   N12       1.0  0.37730  0.47430  0.74532  1.0000
  O   O25       1.0  0.94084  0.85470  0.33456  1.0000
  O   O26       1.0  0.05916  0.85470  0.16544  1.0000
  O   O27       1.0  0.44084  0.35470  0.33456  1.0000
  O   O28       1.0  0.55916  0.35470  0.16544  1.0000
  O   O29       1.0  0.05916  0.14530  0.66544  1.0000
  O   O30       1.0  0.94084  0.14530  0.83456  1.0000
  O   O31       1.0  0.55916  0.64530  0.66544  1.0000
  O   O32       1.0  0.44084  0.64530  0.83456  1.0000
  O   O33       1.0  0.84038  0.67200  0.09236  1.0000
  O   O34       1.0  0.15962  0.67200  0.40764  1.0000
  O   O35       1.0  0.34038  0.17200  0.09236  1.0000
  O   O36       1.0  0.65962  0.17200  0.40764  1.0000
  O   O37       1.0  0.15962  0.32800  0.90764  1.0000
  O   O38       1.0  0.84038  0.32800  0.59236  1.0000
  O   O39       1.0  0.65962  0.82800  0.90764  1.0000
  O   O40       1.0  0.34038  0.82800  0.59236  1.0000
  C   C21       1.0  0.88790  0.72070  0.14520  1.0000
  C   C22       1.0  0.11210  0.72070  0.35480  1.0000
  C   C23       1.0  0.38790  0.22070  0.14520  1.0000
  C   C24       1.0  0.61210  0.22070  0.35480  1.0000
  C   C25       1.0  0.11210  0.27930  0.85480  1.0000
  C   C26       1.0  0.88790  0.27930  0.64520  1.0000
  C   C27       1.0  0.61210  0.77930  0.85480  1.0000
  C   C28       1.0  0.38790  0.77930  0.64520  1.0000
  C   C29       1.0  0.83790  0.99260  0.28930  1.0000
  C   C30       1.0  0.16210  0.99260  0.21070  1.0000
  C   C31       1.0  0.33790  0.49260  0.28930  1.0000
  C   C32       1.0  0.66210  0.49260  0.21070  1.0000
  C   C33       1.0  0.16210  0.00740  0.71070  1.0000
  C   C34       1.0  0.83790  0.00740  0.78930  1.0000
  C   C35       1.0  0.66210  0.50740  0.71070  1.0000
  C   C36       1.0  0.33790  0.50740  0.78930  1.0000
  O   O41       1.0  0.85040  0.86810  0.38850  1.0000
  O   O42       1.0  0.14960  0.86810  0.11150  1.0000
  O   O43       1.0  0.35040  0.36810  0.38850  1.0000
  O   O44       1.0  0.64960  0.36810  0.11150  1.0000
  O   O45       1.0  0.14960  0.13190  0.61150  1.0000
  O   O46       1.0  0.85040  0.13190  0.88850  1.0000
  O   O47       1.0  0.64960  0.63190  0.61150  1.0000
  O   O48       1.0  0.35040  0.63190  0.88850  1.0000
  C   C37       1.0  0.87940  0.89770  0.34240  1.0000
  C   C38       1.0  0.12060  0.89770  0.15760  1.0000
  C   C39       1.0  0.37940  0.39770  0.34240  1.0000
  C   C40       1.0  0.62060  0.39770  0.15760  1.0000
  C   C41       1.0  0.12060  0.10230  0.65760  1.0000
  C   C42       1.0  0.87940  0.10230  0.84240  1.0000
  C   C43       1.0  0.62060  0.60230  0.65760  1.0000
  C   C44       1.0  0.37940  0.60230  0.84240  1.0000
  C   C45       1.0  0.90190  0.14510  0.15510  1.0000
  C   C46       1.0  0.09810  0.14510  0.34490  1.0000
  C   C47       1.0  0.40190  0.64510  0.15510  1.0000
  C   C48       1.0  0.59810  0.64510  0.34490  1.0000
  C   C49       1.0  0.09810  0.85490  0.84490  1.0000
  C   C50       1.0  0.90190  0.85490  0.65510  1.0000
  C   C51       1.0  0.59810  0.35490  0.84490  1.0000
  C   C52       1.0  0.40190  0.35490  0.65510  1.0000
  O   O49       1.0  0.88590  0.23360  0.11640  1.0000
  O   O50       1.0  0.11410  0.23360  0.38360  1.0000
  O   O51       1.0  0.38590  0.73360  0.11640  1.0000
  O   O52       1.0  0.61410  0.73360  0.38360  1.0000
  O   O53       1.0  0.11410  0.76640  0.88360  1.0000
  O   O54       1.0  0.88590  0.76640  0.61640  1.0000
  O   O55       1.0  0.61410  0.26640  0.88360  1.0000
  O   O56       1.0  0.38590  0.26640  0.61640  1.0000
  C   C53       1.0  0.84870  0.11160  0.19770  1.0000
  C   C54       1.0  0.15130  0.11160  0.30230  1.0000
  C   C55       1.0  0.34870  0.61160  0.19770  1.0000
  C   C56       1.0  0.65130  0.61160  0.30230  1.0000
  C   C57       1.0  0.15130  0.88840  0.80230  1.0000
  C   C58       1.0  0.84870  0.88840  0.69770  1.0000
  C   C59       1.0  0.65130  0.38840  0.80230  1.0000
  C   C60       1.0  0.34870  0.38840  0.69770  1.0000
  C   C61       1.0  0.76550  0.04340  0.28530  1.0000
  C   C62       1.0  0.23450  0.04340  0.21470  1.0000
  C   C63       1.0  0.26550  0.54340  0.28530  1.0000
  C   C64       1.0  0.73450  0.54340  0.21470  1.0000
  C   C65       1.0  0.23450  0.95660  0.71470  1.0000
  C   C66       1.0  0.76550  0.95660  0.78530  1.0000
  C   C67       1.0  0.73450  0.45660  0.71470  1.0000
  C   C68       1.0  0.26550  0.45660  0.78530  1.0000
  H   H13       1.0  0.73900  0.02010  0.31650  1.0000
  H   H14       1.0  0.26100  0.02010  0.18350  1.0000
  H   H15       1.0  0.23900  0.52010  0.31650  1.0000
  H   H16       1.0  0.76100  0.52010  0.18350  1.0000
  H   H17       1.0  0.26100  0.97990  0.68350  1.0000
  H   H18       1.0  0.73900  0.97990  0.81650  1.0000
  H   H19       1.0  0.76100  0.47990  0.68350  1.0000
  H   H20       1.0  0.23900  0.47990  0.81650  1.0000
  N   N13       1.0  0.83590  0.75430  0.93950  1.0000
  N   N14       1.0  0.16410  0.75430  0.56050  1.0000
  N   N15       1.0  0.33590  0.25430  0.93950  1.0000
  N   N16       1.0  0.66410  0.25430  0.56050  1.0000
  N   N17       1.0  0.16410  0.24570  0.06050  1.0000
  N   N18       1.0  0.83590  0.24570  0.43950  1.0000
  N   N19       1.0  0.66410  0.74570  0.06050  1.0000
  N   N20       1.0  0.33590  0.74570  0.43950  1.0000
  C   C69       1.0  0.77650  0.16490  0.19010  1.0000
  C   C70       1.0  0.22350  0.16490  0.30990  1.0000
  C   C71       1.0  0.27650  0.66490  0.19010  1.0000
  C   C72       1.0  0.72350  0.66490  0.30990  1.0000
  C   C73       1.0  0.22350  0.83510  0.80990  1.0000
  C   C74       1.0  0.77650  0.83510  0.69010  1.0000
  C   C75       1.0  0.72350  0.33510  0.80990  1.0000
  C   C76       1.0  0.27650  0.33510  0.69010  1.0000
  H   H21       1.0  0.75650  0.22400  0.15610  1.0000
  H   H22       1.0  0.24350  0.22400  0.34390  1.0000
  H   H23       1.0  0.25650  0.72400  0.15610  1.0000
  H   H24       1.0  0.74350  0.72400  0.34390  1.0000
  H   H25       1.0  0.24350  0.77600  0.84390  1.0000
  H   H26       1.0  0.75650  0.77600  0.65610  1.0000
  H   H27       1.0  0.74350  0.27600  0.84390  1.0000
  H   H28       1.0  0.25650  0.27600  0.65610  1.0000
  C   C77       1.0  0.73460  0.12770  0.23480  1.0000
  C   C78       1.0  0.26540  0.12770  0.26520  1.0000
  C   C79       1.0  0.23460  0.62770  0.23480  1.0000
  C   C80       1.0  0.76540  0.62770  0.26520  1.0000
  C   C81       1.0  0.26540  0.87230  0.76520  1.0000
  C   C82       1.0  0.73460  0.87230  0.73480  1.0000
  C   C83       1.0  0.76540  0.37230  0.76520  1.0000
  C   C84       1.0  0.23460  0.37230  0.73480  1.0000
  H   H29       1.0  0.68540  0.16070  0.23000  1.0000
  H   H30       1.0  0.31460  0.16070  0.27000  1.0000
  H   H31       1.0  0.18540  0.66070  0.23000  1.0000
  H   H32       1.0  0.81460  0.66070  0.27000  1.0000
  H   H33       1.0  0.31460  0.83930  0.77000  1.0000
  H   H34       1.0  0.68540  0.83930  0.73000  1.0000
  H   H35       1.0  0.81460  0.33930  0.77000  1.0000
  H   H36       1.0  0.18540  0.33930  0.73000  1.0000
  C   C85       1.0  0.89270  0.70490  0.85810  1.0000
  C   C86       1.0  0.10730  0.70490  0.64190  1.0000
  C   C87       1.0  0.39270  0.20490  0.85810  1.0000
  C   C88       1.0  0.60730  0.20490  0.64190  1.0000
  C   C89       1.0  0.10730  0.29510  0.14190  1.0000
  C   C90       1.0  0.89270  0.29510  0.35810  1.0000
  C   C91       1.0  0.60730  0.79510  0.14190  1.0000
  C   C92       1.0  0.39270  0.79510  0.35810  1.0000
  H   H37       1.0  0.90440  0.66780  0.82070  1.0000
  H   H38       1.0  0.09560  0.66780  0.67930  1.0000
  H   H39       1.0  0.40440  0.16780  0.82070  1.0000
  H   H40       1.0  0.59560  0.16780  0.67930  1.0000
  H   H41       1.0  0.09560  0.33220  0.17930  1.0000
  H   H42       1.0  0.90440  0.33220  0.32070  1.0000
  H   H43       1.0  0.59560  0.83220  0.17930  1.0000
  H   H44       1.0  0.40440  0.83220  0.32070  1.0000
  C   C93       1.0  0.89350  0.82610  0.94380  1.0000
  C   C94       1.0  0.10650  0.82610  0.55620  1.0000
  C   C95       1.0  0.39350  0.32610  0.94380  1.0000
  C   C96       1.0  0.60650  0.32610  0.55620  1.0000
  C   C97       1.0  0.10650  0.17390  0.05620  1.0000
  C   C98       1.0  0.89350  0.17390  0.44380  1.0000
  C   C99       1.0  0.60650  0.67390  0.05620  1.0000
  C   C100      1.0  0.39350  0.67390  0.44380  1.0000
  H   H45       1.0  0.90700  0.89020  0.97520  1.0000
  H   H46       1.0  0.09300  0.89020  0.52480  1.0000
  H   H47       1.0  0.40700  0.39020  0.97520  1.0000
  H   H48       1.0  0.59300  0.39020  0.52480  1.0000
  H   H49       1.0  0.09300  0.10980  0.02480  1.0000
  H   H50       1.0  0.90700  0.10980  0.47520  1.0000
  H   H51       1.0  0.59300  0.60980  0.02480  1.0000
  H   H52       1.0  0.40700  0.60980  0.47520  1.0000
  C   C101      1.0  0.83290  0.67660  0.88350  1.0000
  C   C102      1.0  0.16710  0.67660  0.61650  1.0000
  C   C103      1.0  0.33290  0.17660  0.88350  1.0000
  C   C104      1.0  0.66710  0.17660  0.61650  1.0000
  C   C105      1.0  0.16710  0.32340  0.11650  1.0000
  C   C106      1.0  0.83290  0.32340  0.38350  1.0000
  C   C107      1.0  0.66710  0.82340  0.11650  1.0000
  C   C108      1.0  0.33290  0.82340  0.38350  1.0000
  H   H53       1.0  0.79620  0.61580  0.86650  1.0000
  H   H54       1.0  0.20380  0.61580  0.63350  1.0000
  H   H55       1.0  0.29620  0.11580  0.86650  1.0000
  H   H56       1.0  0.70380  0.11580  0.63350  1.0000
  H   H57       1.0  0.20380  0.38420  0.13350  1.0000
  H   H58       1.0  0.79620  0.38420  0.36650  1.0000
  H   H59       1.0  0.70380  0.88420  0.13350  1.0000
  H   H60       1.0  0.29620  0.88420  0.36650  1.0000
  N   N21       1.0  0.93210  0.79820  0.89780  1.0000
  N   N22       1.0  0.06790  0.79820  0.60220  1.0000
  N   N23       1.0  0.43210  0.29820  0.89780  1.0000
  N   N24       1.0  0.56790  0.29820  0.60220  1.0000
  N   N25       1.0  0.06790  0.20180  0.10220  1.0000
  N   N26       1.0  0.93210  0.20180  0.39780  1.0000
  N   N27       1.0  0.56790  0.70180  0.10220  1.0000
  N   N28       1.0  0.43210  0.70180  0.39780  1.0000
  H   H61       1.0  0.97370  0.83260  0.89420  1.0000
  H   H62       1.0  0.02630  0.83260  0.60580  1.0000
  H   H63       1.0  0.47370  0.33260  0.89420  1.0000
  H   H64       1.0  0.52630  0.33260  0.60580  1.0000
  H   H65       1.0  0.02630  0.16740  0.10580  1.0000
  H   H66       1.0  0.97370  0.16740  0.39420  1.0000
  H   H67       1.0  0.52630  0.66740  0.10580  1.0000
  H   H68       1.0  0.47370  0.66740  0.39420  1.0000
  H   H69       1.0  0.73630  0.51380  0.99110  1.0000
  H   H70       1.0  0.26370  0.51380  0.50890  1.0000
  H   H71       1.0  0.23630  0.01380  0.99110  1.0000
  H   H72       1.0  0.76370  0.01380  0.50890  1.0000
  H   H73       1.0  0.26370  0.48620  0.00890  1.0000
  H   H74       1.0  0.73630  0.48620  0.49110  1.0000
  H   H75       1.0  0.76370  0.98620  0.00890  1.0000
  H   H76       1.0  0.23630  0.98620  0.49110  1.0000
  H   H77       1.0  0.68090  0.59520  0.92460  1.0000
  H   H78       1.0  0.31910  0.59520  0.57540  1.0000
  H   H79       1.0  0.18090  0.09520  0.92460  1.0000
  H   H80       1.0  0.81910  0.09520  0.57540  1.0000
  H   H81       1.0  0.31910  0.40480  0.07540  1.0000
  H   H82       1.0  0.68090  0.40480  0.42460  1.0000
  H   H83       1.0  0.81910  0.90480  0.07540  1.0000
  H   H84       1.0  0.18090  0.90480  0.42460  1.0000
