data_image0
_chemical_formula_structural       Cd3Si2O10C2H2O2C6O2C8H2C10H2C2H2C2H2C2H2C2H2C2H2C2H2C2H2C2H2C2H2C2H2C2H2C4H2C2H2O2C2
_chemical_formula_sum              "Cd3 Si2 O16 C56 H32"
_cell_length_a       13.875
_cell_length_b       14.072
_cell_length_c       14.208
_cell_angle_alpha    116.3
_cell_angle_beta     109.724
_cell_angle_gamma    101.428

_space_group_name_H-M_alt    "P 1"
_space_group_IT_number       1

loop_
  _space_group_symop_operation_xyz
  'x, y, z'

loop_
  _atom_site_type_symbol
  _atom_site_label
  _atom_site_symmetry_multiplicity
  _atom_site_fract_x
  _atom_site_fract_y
  _atom_site_fract_z
  _atom_site_occupancy
  Cd  Cd1       1.0  0.00000  0.00000  0.00000  1.0000
  Cd  Cd2       1.0  0.29469  0.12624  0.11388  1.0000
  Cd  Cd3       1.0  0.70531  0.87376  0.88612  1.0000
  Si  Si1       1.0  0.01012  0.34604  0.61091  1.0000
  Si  Si2       1.0  0.98988  0.65396  0.38909  1.0000
  O   O1        1.0  0.28320  0.28710  0.27510  1.0000
  O   O2        1.0  0.71680  0.71290  0.72490  1.0000
  O   O3        1.0  0.16650  0.10310  0.18200  1.0000
  O   O4        1.0  0.83350  0.89690  0.81800  1.0000
  O   O5        1.0  0.43690  0.15470  0.28900  1.0000
  O   O6        1.0  0.56310  0.84530  0.71100  1.0000
  O   O7        1.0  0.48750  0.22040  0.19030  1.0000
  O   O8        1.0  0.51250  0.77960  0.80970  1.0000
  O   O9        1.0  0.23230  0.17060  0.98080  1.0000
  O   O10       1.0  0.76770  0.82940  0.01920  1.0000
  C   C1        1.0  0.17910  0.57790  0.80370  1.0000
  C   C2        1.0  0.82090  0.42210  0.19630  1.0000
  H   H1        1.0  0.23100  0.54310  0.81030  1.0000
  H   H2        1.0  0.76900  0.45690  0.18970  1.0000
  O   O11       1.0  0.28370  0.94350  0.01180  1.0000
  O   O12       1.0  0.71630  0.05650  0.98820  1.0000
  C   C3        1.0  0.08020  0.31010  0.51550  1.0000
  C   C4        1.0  0.91980  0.68990  0.48450  1.0000
  C   C5        1.0  0.03860  0.27850  0.69940  1.0000
  C   C6        1.0  0.96140  0.72150  0.30060  1.0000
  C   C7        1.0  0.85690  0.29450  0.50730  1.0000
  C   C8        1.0  0.14310  0.70550  0.49270  1.0000
  O   O13       1.0  0.06250  0.13690  0.97060  1.0000
  O   O14       1.0  0.93750  0.86310  0.02940  1.0000
  C   C9        1.0  0.16610  0.24470  0.35450  1.0000
  C   C10       1.0  0.83390  0.75530  0.64550  1.0000
  C   C11       1.0  0.51040  0.20280  0.27350  1.0000
  C   C12       1.0  0.48960  0.79720  0.72650  1.0000
  C   C13       1.0  0.20900  0.21150  0.26570  1.0000
  C   C14       1.0  0.79100  0.78850  0.73430  1.0000
  C   C15       1.0  0.71350  0.26200  0.32640  1.0000
  C   C16       1.0  0.28650  0.73800  0.67360  1.0000
  H   H3        1.0  0.69430  0.26010  0.25460  1.0000
  H   H4        1.0  0.30570  0.73990  0.74540  1.0000
  C   C17       1.0  0.63170  0.23890  0.35690  1.0000
  C   C18       1.0  0.36830  0.76110  0.64310  1.0000
  C   C19       1.0  0.06520  0.50740  0.71880  1.0000
  C   C20       1.0  0.93480  0.49260  0.28120  1.0000
  C   C21       1.0  0.13390  0.16530  0.94130  1.0000
  C   C22       1.0  0.86610  0.83470  0.05870  1.0000
  C   C23       1.0  0.09870  0.19960  0.85300  1.0000
  C   C24       1.0  0.90130  0.80040  0.14700  1.0000
  C   C25       1.0  0.15920  0.39370  0.52100  1.0000
  C   C26       1.0  0.84080  0.60630  0.47900  1.0000
  H   H5        1.0  0.18410  0.47370  0.57980  1.0000
  H   H6        1.0  0.81590  0.52630  0.42020  1.0000
  C   C27       1.0  0.21730  0.69780  0.87860  1.0000
  C   C28       1.0  0.78270  0.30220  0.12140  1.0000
  H   H7        1.0  0.29490  0.74410  0.93470  1.0000
  H   H8        1.0  0.70510  0.25590  0.06530  1.0000
  C   C29       1.0  0.04650  0.19210  0.42810  1.0000
  C   C30       1.0  0.95350  0.80790  0.57190  1.0000
  H   H9        1.0  0.99410  0.13330  0.42370  1.0000
  H   H10       1.0  0.00590  0.86670  0.57630  1.0000
  C   C31       1.0  0.20240  0.36210  0.44200  1.0000
  C   C32       1.0  0.79760  0.63790  0.55800  1.0000
  H   H11       1.0  0.25660  0.42040  0.44740  1.0000
  H   H12       1.0  0.74340  0.57960  0.55260  1.0000
  C   C33       1.0  0.08870  0.16070  0.34880  1.0000
  C   C34       1.0  0.91130  0.83930  0.65120  1.0000
  H   H13       1.0  0.06420  0.08080  0.28990  1.0000
  H   H14       1.0  0.93580  0.91920  0.71010  1.0000
  C   C35       1.0  0.82440  0.28810  0.40000  1.0000
  C   C36       1.0  0.17560  0.71190  0.60000  1.0000
  H   H15       1.0  0.87920  0.30190  0.37620  1.0000
  H   H16       1.0  0.12080  0.69810  0.62380  1.0000
  C   C37       1.0  0.99150  0.56170  0.71500  1.0000
  C   C38       1.0  0.00850  0.43830  0.28500  1.0000
  H   H17       1.0  0.91370  0.51600  0.65920  1.0000
  H   H18       1.0  0.08630  0.48400  0.34080  1.0000
  C   C39       1.0  0.16010  0.21280  0.79850  1.0000
  C   C40       1.0  0.83990  0.78720  0.20150  1.0000
  H   H19       1.0  0.22450  0.19570  0.81280  1.0000
  H   H20       1.0  0.77550  0.80430  0.18720  1.0000
  C   C41       1.0  0.12940  0.25080  0.72240  1.0000
  C   C42       1.0  0.87060  0.74920  0.27760  1.0000
  H   H21       1.0  0.17310  0.25790  0.68480  1.0000
  H   H22       1.0  0.82690  0.74210  0.31520  1.0000
  C   C43       1.0  0.77310  0.27360  0.53740  1.0000
  C   C44       1.0  0.22690  0.72640  0.46260  1.0000
  H   H23       1.0  0.79250  0.27890  0.61090  1.0000
  H   H24       1.0  0.20750  0.72110  0.38910  1.0000
  C   C45       1.0  0.98140  0.27110  0.76160  1.0000
  C   C46       1.0  0.01860  0.72890  0.23840  1.0000
  H   H25       1.0  0.92160  0.29550  0.75390  1.0000
  H   H26       1.0  0.07840  0.70450  0.24610  1.0000
  C   C47       1.0  0.00910  0.22910  0.83450  1.0000
  C   C48       1.0  0.99090  0.77090  0.16550  1.0000
  H   H27       1.0  0.96550  0.22080  0.87160  1.0000
  H   H28       1.0  0.03450  0.77920  0.12840  1.0000
  C   C49       1.0  0.14240  0.75040  0.87160  1.0000
  C   C50       1.0  0.85760  0.24960  0.12840  1.0000
  C   C51       1.0  0.02950  0.68160  0.79130  1.0000
  C   C52       1.0  0.97050  0.31840  0.20870  1.0000
  H   H29       1.0  0.97730  0.71630  0.78800  1.0000
  H   H30       1.0  0.02270  0.28370  0.21200  1.0000
  C   C53       1.0  0.66120  0.24520  0.46310  1.0000
  C   C54       1.0  0.33880  0.75480  0.53690  1.0000
  H   H31       1.0  0.60580  0.23040  0.48570  1.0000
  H   H32       1.0  0.39420  0.76960  0.51430  1.0000
  O   O15       1.0  0.10700  0.91990  0.93260  1.0000
  O   O16       1.0  0.89300  0.08010  0.06740  1.0000
  C   C55       1.0  0.18050  0.88060  0.94460  1.0000
  C   C56       1.0  0.81950  0.11940  0.05540  1.0000
