data_image0
_chemical_formula_structural       Zn24P32O96C8H16C8H16C8H16C8H16
_chemical_formula_sum              "Zn24 P32 O96 C32 H64"
_cell_length_a       28.419
_cell_length_b       8.5688
_cell_length_c       14.951
_cell_angle_alpha    90
_cell_angle_beta     100.925
_cell_angle_gamma    90

_space_group_name_H-M_alt    "P 1"
_space_group_IT_number       1

loop_
  _space_group_symop_operation_xyz
  'x, y, z'

loop_
  _atom_site_type_symbol
  _atom_site_label
  _atom_site_symmetry_multiplicity
  _atom_site_fract_x
  _atom_site_fract_y
  _atom_site_fract_z
  _atom_site_occupancy
  Zn  Zn1       1.0  0.19902  0.22593  0.22132  1.0000
  Zn  Zn2       1.0  0.69902  0.72593  0.22132  1.0000
  Zn  Zn3       1.0  0.80098  0.22593  0.27868  1.0000
  Zn  Zn4       1.0  0.30098  0.72593  0.27868  1.0000
  Zn  Zn5       1.0  0.80098  0.77407  0.77868  1.0000
  Zn  Zn6       1.0  0.30098  0.27407  0.77868  1.0000
  Zn  Zn7       1.0  0.19902  0.77407  0.72132  1.0000
  Zn  Zn8       1.0  0.69902  0.27407  0.72132  1.0000
  Zn  Zn9       1.0  0.09628  0.99514  0.16133  1.0000
  Zn  Zn10      1.0  0.59628  0.49514  0.16133  1.0000
  Zn  Zn11      1.0  0.90372  0.99514  0.33867  1.0000
  Zn  Zn12      1.0  0.40372  0.49514  0.33867  1.0000
  Zn  Zn13      1.0  0.90372  0.00486  0.83867  1.0000
  Zn  Zn14      1.0  0.40372  0.50486  0.83867  1.0000
  Zn  Zn15      1.0  0.09628  0.00486  0.66133  1.0000
  Zn  Zn16      1.0  0.59628  0.50486  0.66133  1.0000
  Zn  Zn17      1.0  0.06833  0.50436  0.44610  1.0000
  Zn  Zn18      1.0  0.56833  0.00436  0.44610  1.0000
  Zn  Zn19      1.0  0.93167  0.50436  0.05390  1.0000
  Zn  Zn20      1.0  0.43167  0.00436  0.05390  1.0000
  Zn  Zn21      1.0  0.93167  0.49564  0.55390  1.0000
  Zn  Zn22      1.0  0.43167  0.99564  0.55390  1.0000
  Zn  Zn23      1.0  0.06833  0.49564  0.94610  1.0000
  Zn  Zn24      1.0  0.56833  0.99564  0.94610  1.0000
  P   P1        1.0  0.19523  0.87327  0.27132  1.0000
  P   P2        1.0  0.69523  0.37327  0.27132  1.0000
  P   P3        1.0  0.80477  0.87327  0.22868  1.0000
  P   P4        1.0  0.30477  0.37327  0.22868  1.0000
  P   P5        1.0  0.80477  0.12673  0.72868  1.0000
  P   P6        1.0  0.30477  0.62673  0.72868  1.0000
  P   P7        1.0  0.19523  0.12673  0.77132  1.0000
  P   P8        1.0  0.69523  0.62673  0.77132  1.0000
  P   P9        1.0  0.13970  0.77915  0.52467  1.0000
  P   P10       1.0  0.63970  0.27915  0.52467  1.0000
  P   P11       1.0  0.86030  0.77915  0.97533  1.0000
  P   P12       1.0  0.36030  0.27915  0.97533  1.0000
  P   P13       1.0  0.86030  0.22085  0.47533  1.0000
  P   P14       1.0  0.36030  0.72085  0.47533  1.0000
  P   P15       1.0  0.13970  0.22085  0.02467  1.0000
  P   P16       1.0  0.63970  0.72085  0.02467  1.0000
  P   P17       1.0  0.09865  0.31207  0.26967  1.0000
  P   P18       1.0  0.59865  0.81207  0.26967  1.0000
  P   P19       1.0  0.90135  0.31207  0.23033  1.0000
  P   P20       1.0  0.40135  0.81207  0.23033  1.0000
  P   P21       1.0  0.90135  0.68793  0.73033  1.0000
  P   P22       1.0  0.40135  0.18793  0.73033  1.0000
  P   P23       1.0  0.09865  0.68793  0.76967  1.0000
  P   P24       1.0  0.59865  0.18793  0.76967  1.0000
  P   P25       1.0  0.02737  0.70000  0.10383  1.0000
  P   P26       1.0  0.52737  0.20000  0.10383  1.0000
  P   P27       1.0  0.97263  0.70000  0.39617  1.0000
  P   P28       1.0  0.47263  0.20000  0.39617  1.0000
  P   P29       1.0  0.97263  0.30000  0.89617  1.0000
  P   P30       1.0  0.47263  0.80000  0.89617  1.0000
  P   P31       1.0  0.02737  0.30000  0.60383  1.0000
  P   P32       1.0  0.52737  0.80000  0.60383  1.0000
  O   O1        1.0  0.20546  0.04270  0.29970  1.0000
  O   O2        1.0  0.70546  0.54270  0.29970  1.0000
  O   O3        1.0  0.79454  0.04270  0.20030  1.0000
  O   O4        1.0  0.29454  0.54270  0.20030  1.0000
  O   O5        1.0  0.79454  0.95730  0.70030  1.0000
  O   O6        1.0  0.29454  0.45730  0.70030  1.0000
  O   O7        1.0  0.20546  0.95730  0.79970  1.0000
  O   O8        1.0  0.70546  0.45730  0.79970  1.0000
  O   O9        1.0  0.23699  0.79930  0.23664  1.0000
  O   O10       1.0  0.73699  0.29930  0.23664  1.0000
  O   O11       1.0  0.76301  0.79930  0.26336  1.0000
  O   O12       1.0  0.26301  0.29930  0.26336  1.0000
  O   O13       1.0  0.76301  0.20070  0.76336  1.0000
  O   O14       1.0  0.26301  0.70070  0.76336  1.0000
  O   O15       1.0  0.23699  0.20070  0.73664  1.0000
  O   O16       1.0  0.73699  0.70070  0.73664  1.0000
  O   O17       1.0  0.15011  0.85660  0.19701  1.0000
  O   O18       1.0  0.65011  0.35660  0.19701  1.0000
  O   O19       1.0  0.84989  0.85660  0.30299  1.0000
  O   O20       1.0  0.34989  0.35660  0.30299  1.0000
  O   O21       1.0  0.84989  0.14340  0.80299  1.0000
  O   O22       1.0  0.34989  0.64340  0.80299  1.0000
  O   O23       1.0  0.15011  0.14340  0.69701  1.0000
  O   O24       1.0  0.65011  0.64340  0.69701  1.0000
  O   O25       1.0  0.18812  0.79650  0.58902  1.0000
  O   O26       1.0  0.68812  0.29650  0.58902  1.0000
  O   O27       1.0  0.81188  0.79650  0.91098  1.0000
  O   O28       1.0  0.31188  0.29650  0.91098  1.0000
  O   O29       1.0  0.81188  0.20350  0.41098  1.0000
  O   O30       1.0  0.31188  0.70350  0.41098  1.0000
  O   O31       1.0  0.18812  0.20350  0.08902  1.0000
  O   O32       1.0  0.68812  0.70350  0.08902  1.0000
  O   O33       1.0  0.12499  0.60660  0.51688  1.0000
  O   O34       1.0  0.62499  0.10660  0.51688  1.0000
  O   O35       1.0  0.87501  0.60660  0.98312  1.0000
  O   O36       1.0  0.37501  0.10660  0.98312  1.0000
  O   O37       1.0  0.87501  0.39340  0.48312  1.0000
  O   O38       1.0  0.37501  0.89340  0.48312  1.0000
  O   O39       1.0  0.12499  0.39340  0.01688  1.0000
  O   O40       1.0  0.62499  0.89340  0.01688  1.0000
  O   O41       1.0  0.10093  0.88260  0.55243  1.0000
  O   O42       1.0  0.60093  0.38260  0.55243  1.0000
  O   O43       1.0  0.89907  0.88260  0.94757  1.0000
  O   O44       1.0  0.39907  0.38260  0.94757  1.0000
  O   O45       1.0  0.89907  0.11740  0.44757  1.0000
  O   O46       1.0  0.39907  0.61740  0.44757  1.0000
  O   O47       1.0  0.10093  0.11740  0.05243  1.0000
  O   O48       1.0  0.60093  0.61740  0.05243  1.0000
  O   O49       1.0  0.14832  0.35230  0.25237  1.0000
  O   O50       1.0  0.64832  0.85230  0.25237  1.0000
  O   O51       1.0  0.85168  0.35230  0.24763  1.0000
  O   O52       1.0  0.35168  0.85230  0.24763  1.0000
  O   O53       1.0  0.85168  0.64770  0.74763  1.0000
  O   O54       1.0  0.35168  0.14770  0.74763  1.0000
  O   O55       1.0  0.14832  0.64770  0.75237  1.0000
  O   O56       1.0  0.64832  0.14770  0.75237  1.0000
  O   O57       1.0  0.09170  0.36310  0.36340  1.0000
  O   O58       1.0  0.59170  0.86310  0.36340  1.0000
  O   O59       1.0  0.90830  0.36310  0.13660  1.0000
  O   O60       1.0  0.40830  0.86310  0.13660  1.0000
  O   O61       1.0  0.90830  0.63690  0.63660  1.0000
  O   O62       1.0  0.40830  0.13690  0.63660  1.0000
  O   O63       1.0  0.09170  0.63690  0.86340  1.0000
  O   O64       1.0  0.59170  0.13690  0.86340  1.0000
  O   O65       1.0  0.08709  0.13600  0.25815  1.0000
  O   O66       1.0  0.58709  0.63600  0.25815  1.0000
  O   O67       1.0  0.91291  0.13600  0.24185  1.0000
  O   O68       1.0  0.41291  0.63600  0.24185  1.0000
  O   O69       1.0  0.91291  0.86400  0.74185  1.0000
  O   O70       1.0  0.41291  0.36400  0.74185  1.0000
  O   O71       1.0  0.08709  0.86400  0.75815  1.0000
  O   O72       1.0  0.58709  0.36400  0.75815  1.0000
  O   O73       1.0  0.04024  0.65490  0.01238  1.0000
  O   O74       1.0  0.54024  0.15490  0.01238  1.0000
  O   O75       1.0  0.95976  0.65490  0.48762  1.0000
  O   O76       1.0  0.45976  0.15490  0.48762  1.0000
  O   O77       1.0  0.95976  0.34510  0.98762  1.0000
  O   O78       1.0  0.45976  0.84510  0.98762  1.0000
  O   O79       1.0  0.04024  0.34510  0.51238  1.0000
  O   O80       1.0  0.54024  0.84510  0.51238  1.0000
  O   O81       1.0  0.97485  0.66860  0.10598  1.0000
  O   O82       1.0  0.47485  0.16860  0.10598  1.0000
  O   O83       1.0  0.02515  0.66860  0.39402  1.0000
  O   O84       1.0  0.52515  0.16860  0.39402  1.0000
  O   O85       1.0  0.02515  0.33140  0.89402  1.0000
  O   O86       1.0  0.52515  0.83140  0.89402  1.0000
  O   O87       1.0  0.97485  0.33140  0.60598  1.0000
  O   O88       1.0  0.47485  0.83140  0.60598  1.0000
  O   O89       1.0  0.03786  0.87440  0.12283  1.0000
  O   O90       1.0  0.53786  0.37440  0.12283  1.0000
  O   O91       1.0  0.96214  0.87440  0.37717  1.0000
  O   O92       1.0  0.46214  0.37440  0.37717  1.0000
  O   O93       1.0  0.96214  0.12560  0.87717  1.0000
  O   O94       1.0  0.46214  0.62560  0.87717  1.0000
  O   O95       1.0  0.03786  0.12560  0.62283  1.0000
  O   O96       1.0  0.53786  0.62560  0.62283  1.0000
  C   C1        1.0  0.18600  0.77080  0.37210  1.0000
  C   C2        1.0  0.68600  0.27080  0.37210  1.0000
  C   C3        1.0  0.81400  0.77080  0.12790  1.0000
  C   C4        1.0  0.31400  0.27080  0.12790  1.0000
  C   C5        1.0  0.81400  0.22920  0.62790  1.0000
  C   C6        1.0  0.31400  0.72920  0.62790  1.0000
  C   C7        1.0  0.18600  0.22920  0.87210  1.0000
  C   C8        1.0  0.68600  0.72920  0.87210  1.0000
  H   H1        1.0  0.17760  0.66310  0.35660  1.0000
  H   H2        1.0  0.67760  0.16310  0.35660  1.0000
  H   H3        1.0  0.82240  0.66310  0.14340  1.0000
  H   H4        1.0  0.32240  0.16310  0.14340  1.0000
  H   H5        1.0  0.82240  0.33690  0.64340  1.0000
  H   H6        1.0  0.32240  0.83690  0.64340  1.0000
  H   H7        1.0  0.17760  0.33690  0.85660  1.0000
  H   H8        1.0  0.67760  0.83690  0.85660  1.0000
  H   H9        1.0  0.21550  0.77120  0.41700  1.0000
  H   H10       1.0  0.71550  0.27120  0.41700  1.0000
  H   H11       1.0  0.78450  0.77120  0.08300  1.0000
  H   H12       1.0  0.28450  0.27120  0.08300  1.0000
  H   H13       1.0  0.78450  0.22880  0.58300  1.0000
  H   H14       1.0  0.28450  0.72880  0.58300  1.0000
  H   H15       1.0  0.21550  0.22880  0.91700  1.0000
  H   H16       1.0  0.71550  0.72880  0.91700  1.0000
  C   C9        1.0  0.14581  0.84700  0.41340  1.0000
  C   C10       1.0  0.64581  0.34700  0.41340  1.0000
  C   C11       1.0  0.85419  0.84700  0.08660  1.0000
  C   C12       1.0  0.35419  0.34700  0.08660  1.0000
  C   C13       1.0  0.85419  0.15300  0.58660  1.0000
  C   C14       1.0  0.35419  0.65300  0.58660  1.0000
  C   C15       1.0  0.14581  0.15300  0.91340  1.0000
  C   C16       1.0  0.64581  0.65300  0.91340  1.0000
  H   H17       1.0  0.15140  0.95870  0.41680  1.0000
  H   H18       1.0  0.65140  0.45870  0.41680  1.0000
  H   H19       1.0  0.84860  0.95870  0.08320  1.0000
  H   H20       1.0  0.34860  0.45870  0.08320  1.0000
  H   H21       1.0  0.84860  0.04130  0.58320  1.0000
  H   H22       1.0  0.34860  0.54130  0.58320  1.0000
  H   H23       1.0  0.15140  0.04130  0.91680  1.0000
  H   H24       1.0  0.65140  0.54130  0.91680  1.0000
  H   H25       1.0  0.11560  0.82980  0.37190  1.0000
  H   H26       1.0  0.61560  0.32980  0.37190  1.0000
  H   H27       1.0  0.88440  0.82980  0.12810  1.0000
  H   H28       1.0  0.38440  0.32980  0.12810  1.0000
  H   H29       1.0  0.88440  0.17020  0.62810  1.0000
  H   H30       1.0  0.38440  0.67020  0.62810  1.0000
  H   H31       1.0  0.11560  0.17020  0.87190  1.0000
  H   H32       1.0  0.61560  0.67020  0.87190  1.0000
  C   C17       1.0  0.05606  0.41400  0.18570  1.0000
  C   C18       1.0  0.55606  0.91400  0.18570  1.0000
  C   C19       1.0  0.94394  0.41400  0.31430  1.0000
  C   C20       1.0  0.44394  0.91400  0.31430  1.0000
  C   C21       1.0  0.94394  0.58600  0.81430  1.0000
  C   C22       1.0  0.44394  0.08600  0.81430  1.0000
  C   C23       1.0  0.05606  0.58600  0.68570  1.0000
  C   C24       1.0  0.55606  0.08600  0.68570  1.0000
  H   H33       1.0  0.05900  0.37860  0.12540  1.0000
  H   H34       1.0  0.55900  0.87860  0.12540  1.0000
  H   H35       1.0  0.94100  0.37860  0.37460  1.0000
  H   H36       1.0  0.44100  0.87860  0.37460  1.0000
  H   H37       1.0  0.94100  0.62140  0.87460  1.0000
  H   H38       1.0  0.44100  0.12140  0.87460  1.0000
  H   H39       1.0  0.05900  0.62140  0.62540  1.0000
  H   H40       1.0  0.55900  0.12140  0.62540  1.0000
  H   H41       1.0  0.02390  0.39030  0.19440  1.0000
  H   H42       1.0  0.52390  0.89030  0.19440  1.0000
  H   H43       1.0  0.97610  0.39030  0.30560  1.0000
  H   H44       1.0  0.47610  0.89030  0.30560  1.0000
  H   H45       1.0  0.97610  0.60970  0.80560  1.0000
  H   H46       1.0  0.47610  0.10970  0.80560  1.0000
  H   H47       1.0  0.02390  0.60970  0.69440  1.0000
  H   H48       1.0  0.52390  0.10970  0.69440  1.0000
  C   C25       1.0  0.06425  0.59190  0.19260  1.0000
  C   C26       1.0  0.56425  0.09190  0.19260  1.0000
  C   C27       1.0  0.93575  0.59190  0.30740  1.0000
  C   C28       1.0  0.43575  0.09190  0.30740  1.0000
  C   C29       1.0  0.93575  0.40810  0.80740  1.0000
  C   C30       1.0  0.43575  0.90810  0.80740  1.0000
  C   C31       1.0  0.06425  0.40810  0.69260  1.0000
  C   C32       1.0  0.56425  0.90810  0.69260  1.0000
  H   H49       1.0  0.09760  0.61340  0.19110  1.0000
  H   H50       1.0  0.59760  0.11340  0.19110  1.0000
  H   H51       1.0  0.90240  0.61340  0.30890  1.0000
  H   H52       1.0  0.40240  0.11340  0.30890  1.0000
  H   H53       1.0  0.90240  0.38660  0.80890  1.0000
  H   H54       1.0  0.40240  0.88660  0.80890  1.0000
  H   H55       1.0  0.09760  0.38660  0.69110  1.0000
  H   H56       1.0  0.59760  0.88660  0.69110  1.0000
  H   H57       1.0  0.05810  0.62770  0.25080  1.0000
  H   H58       1.0  0.55810  0.12770  0.25080  1.0000
  H   H59       1.0  0.94190  0.62770  0.24920  1.0000
  H   H60       1.0  0.44190  0.12770  0.24920  1.0000
  H   H61       1.0  0.94190  0.37230  0.74920  1.0000
  H   H62       1.0  0.44190  0.87230  0.74920  1.0000
  H   H63       1.0  0.05810  0.37230  0.75080  1.0000
  H   H64       1.0  0.55810  0.87230  0.75080  1.0000
