data_image0
_chemical_formula_structural       Zn12P16O48C8H16C8H16C8H16
_chemical_formula_sum              "Zn12 P16 O48 C24 H48"
_cell_length_a       10.0172
_cell_length_b       20.938
_cell_length_c       8.7611
_cell_angle_alpha    90
_cell_angle_beta     90
_cell_angle_gamma    90

_space_group_name_H-M_alt    "P 1"
_space_group_IT_number       1

loop_
  _space_group_symop_operation_xyz
  'x, y, z'

loop_
  _atom_site_type_symbol
  _atom_site_label
  _atom_site_symmetry_multiplicity
  _atom_site_fract_x
  _atom_site_fract_y
  _atom_site_fract_z
  _atom_site_occupancy
  Zn  Zn1       1.0  0.16393  0.20050  0.42245  1.0000
  Zn  Zn2       1.0  0.33607  0.29950  0.92245  1.0000
  Zn  Zn3       1.0  0.83607  0.20050  0.07755  1.0000
  Zn  Zn4       1.0  0.66393  0.29950  0.57755  1.0000
  Zn  Zn5       1.0  0.83607  0.79950  0.57755  1.0000
  Zn  Zn6       1.0  0.66393  0.70050  0.07755  1.0000
  Zn  Zn7       1.0  0.16393  0.79950  0.92245  1.0000
  Zn  Zn8       1.0  0.33607  0.70050  0.42245  1.0000
  Zn  Zn9       1.0  0.50000  0.01183  0.25000  1.0000
  Zn  Zn10      1.0  0.00000  0.48817  0.75000  1.0000
  Zn  Zn11      1.0  0.50000  0.98817  0.75000  1.0000
  Zn  Zn12      1.0  0.00000  0.51183  0.25000  1.0000
  P   P1        1.0  0.15032  0.18654  0.04641  1.0000
  P   P2        1.0  0.34968  0.31346  0.54641  1.0000
  P   P3        1.0  0.84968  0.18654  0.45359  1.0000
  P   P4        1.0  0.65032  0.31346  0.95359  1.0000
  P   P5        1.0  0.84968  0.81346  0.95359  1.0000
  P   P6        1.0  0.65032  0.68654  0.45359  1.0000
  P   P7        1.0  0.15032  0.81346  0.54641  1.0000
  P   P8        1.0  0.34968  0.68654  0.04641  1.0000
  P   P9        1.0  0.31141  0.93070  0.01050  1.0000
  P   P10       1.0  0.18859  0.56930  0.51050  1.0000
  P   P11       1.0  0.68859  0.93070  0.48950  1.0000
  P   P12       1.0  0.81141  0.56930  0.98950  1.0000
  P   P13       1.0  0.68859  0.06930  0.98950  1.0000
  P   P14       1.0  0.81141  0.43070  0.48950  1.0000
  P   P15       1.0  0.31141  0.06930  0.51050  1.0000
  P   P16       1.0  0.18859  0.43070  0.01050  1.0000
  O   O1        1.0  0.19040  0.18140  0.21070  1.0000
  O   O2        1.0  0.30960  0.31860  0.71070  1.0000
  O   O3        1.0  0.80960  0.18140  0.28930  1.0000
  O   O4        1.0  0.69040  0.31860  0.78930  1.0000
  O   O5        1.0  0.80960  0.81860  0.78930  1.0000
  O   O6        1.0  0.69040  0.68140  0.28930  1.0000
  O   O7        1.0  0.19040  0.81860  0.71070  1.0000
  O   O8        1.0  0.30960  0.68140  0.21070  1.0000
  O   O9        1.0  0.26080  0.21546  0.94980  1.0000
  O   O10       1.0  0.23920  0.28454  0.44980  1.0000
  O   O11       1.0  0.73920  0.21546  0.55020  1.0000
  O   O12       1.0  0.76080  0.28454  0.05020  1.0000
  O   O13       1.0  0.73920  0.78454  0.05020  1.0000
  O   O14       1.0  0.76080  0.71546  0.55020  1.0000
  O   O15       1.0  0.26080  0.78454  0.44980  1.0000
  O   O16       1.0  0.23920  0.71546  0.94980  1.0000
  O   O17       1.0  0.01990  0.22440  0.02420  1.0000
  O   O18       1.0  0.48010  0.27560  0.52420  1.0000
  O   O19       1.0  0.98010  0.22440  0.47580  1.0000
  O   O20       1.0  0.51990  0.27560  0.97580  1.0000
  O   O21       1.0  0.98010  0.77560  0.97580  1.0000
  O   O22       1.0  0.51990  0.72440  0.47580  1.0000
  O   O23       1.0  0.01990  0.77560  0.52420  1.0000
  O   O24       1.0  0.48010  0.72440  0.02420  1.0000
  O   O25       1.0  0.38740  0.94937  0.15290  1.0000
  O   O26       1.0  0.11260  0.55063  0.65290  1.0000
  O   O27       1.0  0.61260  0.94937  0.34710  1.0000
  O   O28       1.0  0.88740  0.55063  0.84710  1.0000
  O   O29       1.0  0.61260  0.05063  0.84710  1.0000
  O   O30       1.0  0.88740  0.44937  0.34710  1.0000
  O   O31       1.0  0.38740  0.05063  0.65290  1.0000
  O   O32       1.0  0.11260  0.44937  0.15290  1.0000
  O   O33       1.0  0.40100  0.92781  0.87070  1.0000
  O   O34       1.0  0.09900  0.57219  0.37070  1.0000
  O   O35       1.0  0.59900  0.92781  0.62930  1.0000
  O   O36       1.0  0.90100  0.57219  0.12930  1.0000
  O   O37       1.0  0.59900  0.07219  0.12930  1.0000
  O   O38       1.0  0.90100  0.42781  0.62930  1.0000
  O   O39       1.0  0.40100  0.07219  0.37070  1.0000
  O   O40       1.0  0.09900  0.42781  0.87070  1.0000
  O   O41       1.0  0.24380  0.86676  0.03830  1.0000
  O   O42       1.0  0.25620  0.63324  0.53830  1.0000
  O   O43       1.0  0.75620  0.86676  0.46170  1.0000
  O   O44       1.0  0.74380  0.63324  0.96170  1.0000
  O   O45       1.0  0.75620  0.13324  0.96170  1.0000
  O   O46       1.0  0.74380  0.36676  0.46170  1.0000
  O   O47       1.0  0.24380  0.13324  0.53830  1.0000
  O   O48       1.0  0.25620  0.36676  0.03830  1.0000
  C   C1        1.0  0.12110  0.10780  0.97460  1.0000
  C   C2        1.0  0.37890  0.39220  0.47460  1.0000
  C   C3        1.0  0.87890  0.10780  0.52540  1.0000
  C   C4        1.0  0.62110  0.39220  0.02540  1.0000
  C   C5        1.0  0.87890  0.89220  0.02540  1.0000
  C   C6        1.0  0.62110  0.60780  0.52540  1.0000
  C   C7        1.0  0.12110  0.89220  0.47460  1.0000
  C   C8        1.0  0.37890  0.60780  0.97460  1.0000
  H   H1        1.0  0.04200  0.09300  0.02300  1.0000
  H   H2        1.0  0.45800  0.40700  0.52300  1.0000
  H   H3        1.0  0.95800  0.09300  0.47700  1.0000
  H   H4        1.0  0.54200  0.40700  0.97700  1.0000
  H   H5        1.0  0.95800  0.90700  0.97700  1.0000
  H   H6        1.0  0.54200  0.59300  0.47700  1.0000
  H   H7        1.0  0.04200  0.90700  0.52300  1.0000
  H   H8        1.0  0.45800  0.59300  0.02300  1.0000
  H   H9        1.0  0.08600  0.10800  0.87300  1.0000
  H   H10       1.0  0.41400  0.39200  0.37300  1.0000
  H   H11       1.0  0.91400  0.10800  0.62700  1.0000
  H   H12       1.0  0.58600  0.39200  0.12700  1.0000
  H   H13       1.0  0.91400  0.89200  0.12700  1.0000
  H   H14       1.0  0.58600  0.60800  0.62700  1.0000
  H   H15       1.0  0.08600  0.89200  0.37300  1.0000
  H   H16       1.0  0.41400  0.60800  0.87300  1.0000
  C   C9        1.0  0.23310  0.05990  0.00200  1.0000
  C   C10       1.0  0.26690  0.44010  0.50200  1.0000
  C   C11       1.0  0.76690  0.05990  0.49800  1.0000
  C   C12       1.0  0.73310  0.44010  0.99800  1.0000
  C   C13       1.0  0.76690  0.94010  0.99800  1.0000
  C   C14       1.0  0.73310  0.55990  0.49800  1.0000
  C   C15       1.0  0.23310  0.94010  0.50200  1.0000
  C   C16       1.0  0.26690  0.55990  0.00200  1.0000
  H   H17       1.0  0.31000  0.06600  0.95100  1.0000
  H   H18       1.0  0.19000  0.43400  0.45100  1.0000
  H   H19       1.0  0.69000  0.06600  0.54900  1.0000
  H   H20       1.0  0.81000  0.43400  0.04900  1.0000
  H   H21       1.0  0.69000  0.93400  0.04900  1.0000
  H   H22       1.0  0.81000  0.56600  0.54900  1.0000
  H   H23       1.0  0.31000  0.93400  0.45100  1.0000
  H   H24       1.0  0.19000  0.56600  0.95100  1.0000
  H   H25       1.0  0.27000  0.06400  0.10700  1.0000
  H   H26       1.0  0.23000  0.43600  0.60700  1.0000
  H   H27       1.0  0.73000  0.06400  0.39300  1.0000
  H   H28       1.0  0.77000  0.43600  0.89300  1.0000
  H   H29       1.0  0.73000  0.93600  0.89300  1.0000
  H   H30       1.0  0.77000  0.56400  0.39300  1.0000
  H   H31       1.0  0.27000  0.93600  0.60700  1.0000
  H   H32       1.0  0.23000  0.56400  0.10700  1.0000
  C   C17       1.0  0.18620  0.99050  0.97970  1.0000
  C   C18       1.0  0.31380  0.50950  0.47970  1.0000
  C   C19       1.0  0.81380  0.99050  0.52030  1.0000
  C   C20       1.0  0.68620  0.50950  0.02030  1.0000
  C   C21       1.0  0.81380  0.00950  0.02030  1.0000
  C   C22       1.0  0.68620  0.49050  0.52030  1.0000
  C   C23       1.0  0.18620  0.00950  0.47970  1.0000
  C   C24       1.0  0.31380  0.49050  0.97970  1.0000
  H   H33       1.0  0.15200  0.98300  0.86900  1.0000
  H   H34       1.0  0.34800  0.51700  0.36900  1.0000
  H   H35       1.0  0.84800  0.98300  0.63100  1.0000
  H   H36       1.0  0.65200  0.51700  0.13100  1.0000
  H   H37       1.0  0.84800  0.01700  0.13100  1.0000
  H   H38       1.0  0.65200  0.48300  0.63100  1.0000
  H   H39       1.0  0.15200  0.01700  0.36900  1.0000
  H   H40       1.0  0.34800  0.48300  0.86900  1.0000
  H   H41       1.0  0.10800  0.97800  0.04700  1.0000
  H   H42       1.0  0.39200  0.52200  0.54700  1.0000
  H   H43       1.0  0.89200  0.97800  0.45300  1.0000
  H   H44       1.0  0.60800  0.52200  0.95300  1.0000
  H   H45       1.0  0.89200  0.02200  0.95300  1.0000
  H   H46       1.0  0.60800  0.47800  0.45300  1.0000
  H   H47       1.0  0.10800  0.02200  0.54700  1.0000
  H   H48       1.0  0.39200  0.47800  0.04700  1.0000
