data_image0
_chemical_formula_structural       Mn4O20C4H4C4H4C12H4C4H4C4H4C4H4C16
_chemical_formula_sum              "Mn4 O20 C48 H24"
_cell_length_a       7.512
_cell_length_b       16.53
_cell_length_c       14.154
_cell_angle_alpha    90
_cell_angle_beta     90.71
_cell_angle_gamma    90

_space_group_name_H-M_alt    "P 1"
_space_group_IT_number       1

loop_
  _space_group_symop_operation_xyz
  'x, y, z'

loop_
  _atom_site_type_symbol
  _atom_site_label
  _atom_site_symmetry_multiplicity
  _atom_site_fract_x
  _atom_site_fract_y
  _atom_site_fract_z
  _atom_site_occupancy
  Mn  Mn1       1.0  0.00000  0.50000  0.50000  1.0000
  Mn  Mn2       1.0  0.50000  0.00000  0.00000  1.0000
  Mn  Mn3       1.0  0.50000  0.50000  0.50000  1.0000
  Mn  Mn4       1.0  0.00000  0.00000  0.00000  1.0000
  O   O1        1.0  0.41090  0.39264  0.56980  1.0000
  O   O2        1.0  0.08910  0.89264  0.93020  1.0000
  O   O3        1.0  0.58910  0.60736  0.43020  1.0000
  O   O4        1.0  0.91090  0.10736  0.06980  1.0000
  O   O5        1.0  0.12270  0.41291  0.59680  1.0000
  O   O6        1.0  0.37730  0.91291  0.90320  1.0000
  O   O7        1.0  0.87730  0.58709  0.40320  1.0000
  O   O8        1.0  0.62270  0.08709  0.09680  1.0000
  O   O9        1.0  0.12160  0.07761  0.89830  1.0000
  O   O10       1.0  0.37840  0.57761  0.60170  1.0000
  O   O11       1.0  0.87840  0.92239  0.10170  1.0000
  O   O12       1.0  0.62160  0.42239  0.39830  1.0000
  O   O13       1.0  0.40890  0.10248  0.92820  1.0000
  O   O14       1.0  0.09110  0.60248  0.57180  1.0000
  O   O15       1.0  0.59110  0.89752  0.07180  1.0000
  O   O16       1.0  0.90890  0.39752  0.42820  1.0000
  O   O17       1.0  0.24930  0.50623  0.40340  1.0000
  O   O18       1.0  0.25070  0.00623  0.09660  1.0000
  O   O19       1.0  0.75070  0.49377  0.59660  1.0000
  O   O20       1.0  0.74930  0.99377  0.90340  1.0000
  C   C1        1.0  0.33530  0.31610  0.76560  1.0000
  C   C2        1.0  0.16470  0.81610  0.73440  1.0000
  C   C3        1.0  0.66470  0.68390  0.23440  1.0000
  C   C4        1.0  0.83530  0.18390  0.26560  1.0000
  H   H1        1.0  0.38240  0.36610  0.78290  1.0000
  H   H2        1.0  0.11760  0.86610  0.71710  1.0000
  H   H3        1.0  0.61760  0.63390  0.21710  1.0000
  H   H4        1.0  0.88240  0.13390  0.28290  1.0000
  C   C5        1.0  0.33560  0.25280  0.83120  1.0000
  C   C6        1.0  0.16440  0.75280  0.66880  1.0000
  C   C7        1.0  0.66440  0.74720  0.16880  1.0000
  C   C8        1.0  0.83560  0.24720  0.33120  1.0000
  H   H5        1.0  0.38220  0.26160  0.89150  1.0000
  H   H6        1.0  0.11780  0.76160  0.60850  1.0000
  H   H7        1.0  0.61780  0.73840  0.10850  1.0000
  H   H8        1.0  0.88220  0.23840  0.39150  1.0000
  C   C9        1.0  0.26860  0.17810  0.80850  1.0000
  C   C10       1.0  0.23140  0.67810  0.69150  1.0000
  C   C11       1.0  0.73140  0.82190  0.19150  1.0000
  C   C12       1.0  0.76860  0.32190  0.30850  1.0000
  C   C13       1.0  0.20070  0.16350  0.71490  1.0000
  C   C14       1.0  0.29930  0.66350  0.78510  1.0000
  C   C15       1.0  0.79930  0.83650  0.28510  1.0000
  C   C16       1.0  0.70070  0.33650  0.21490  1.0000
  C   C17       1.0  0.14300  0.08640  0.68520  1.0000
  C   C18       1.0  0.35700  0.58640  0.81480  1.0000
  C   C19       1.0  0.85700  0.91360  0.31480  1.0000
  C   C20       1.0  0.64300  0.41360  0.18520  1.0000
  H   H9        1.0  0.14410  0.04360  0.72780  1.0000
  H   H10       1.0  0.35590  0.54360  0.77220  1.0000
  H   H11       1.0  0.85590  0.95640  0.27220  1.0000
  H   H12       1.0  0.64410  0.45640  0.22780  1.0000
  C   C21       1.0  0.08530  0.07410  0.59420  1.0000
  C   C22       1.0  0.41470  0.57410  0.90580  1.0000
  C   C23       1.0  0.91470  0.92590  0.40580  1.0000
  C   C24       1.0  0.58530  0.42590  0.09420  1.0000
  H   H13       1.0  0.05140  0.02250  0.57480  1.0000
  H   H14       1.0  0.44860  0.52250  0.92520  1.0000
  H   H15       1.0  0.94860  0.97750  0.42520  1.0000
  H   H16       1.0  0.55140  0.47750  0.07480  1.0000
  C   C25       1.0  0.07710  0.13860  0.53030  1.0000
  C   C26       1.0  0.42290  0.63860  0.96970  1.0000
  C   C27       1.0  0.92290  0.86140  0.46970  1.0000
  C   C28       1.0  0.57710  0.36140  0.03030  1.0000
  H   H17       1.0  0.03450  0.12980  0.46910  1.0000
  H   H18       1.0  0.46550  0.62980  0.03090  1.0000
  H   H19       1.0  0.96550  0.87020  0.53090  1.0000
  H   H20       1.0  0.53450  0.37020  0.96910  1.0000
  C   C29       1.0  0.13030  0.21340  0.55650  1.0000
  C   C30       1.0  0.36970  0.71340  0.94350  1.0000
  C   C31       1.0  0.86970  0.78660  0.44350  1.0000
  C   C32       1.0  0.63030  0.28660  0.05650  1.0000
  H   H21       1.0  0.12270  0.25570  0.51330  1.0000
  H   H22       1.0  0.37730  0.75570  0.98670  1.0000
  H   H23       1.0  0.87730  0.74430  0.48670  1.0000
  H   H24       1.0  0.62270  0.24430  0.01330  1.0000
  C   C33       1.0  0.19730  0.22850  0.64870  1.0000
  C   C34       1.0  0.30270  0.72850  0.85130  1.0000
  C   C35       1.0  0.80270  0.77150  0.35130  1.0000
  C   C36       1.0  0.69730  0.27150  0.14870  1.0000
  C   C37       1.0  0.26650  0.30550  0.67590  1.0000
  C   C38       1.0  0.23350  0.80550  0.82410  1.0000
  C   C39       1.0  0.73350  0.69450  0.32410  1.0000
  C   C40       1.0  0.76650  0.19450  0.17590  1.0000
  C   C41       1.0  0.26700  0.37530  0.60850  1.0000
  C   C42       1.0  0.23300  0.87530  0.89150  1.0000
  C   C43       1.0  0.73300  0.62470  0.39150  1.0000
  C   C44       1.0  0.76700  0.12470  0.10850  1.0000
  C   C45       1.0  0.26610  0.11450  0.88360  1.0000
  C   C46       1.0  0.23390  0.61450  0.61640  1.0000
  C   C47       1.0  0.73390  0.88550  0.11640  1.0000
  C   C48       1.0  0.76610  0.38550  0.38360  1.0000
