data_image0
_chemical_formula_structural       Dy4Br4Cu8O48N24C40H8C8H8C8H8C24H8C8H8C8H8C8H8C8H8C8H8C8H8C8H8C8H8
_chemical_formula_sum              "Dy4 Br4 Cu8 O48 N24 C144 H96"
_cell_length_a       18.968
_cell_length_b       15.522
_cell_length_c       19.472
_cell_angle_alpha    90
_cell_angle_beta     101.58
_cell_angle_gamma    90

_space_group_name_H-M_alt    "P 1"
_space_group_IT_number       1

loop_
  _space_group_symop_operation_xyz
  'x, y, z'

loop_
  _atom_site_type_symbol
  _atom_site_label
  _atom_site_symmetry_multiplicity
  _atom_site_fract_x
  _atom_site_fract_y
  _atom_site_fract_z
  _atom_site_occupancy
  Dy  Dy1       1.0  0.75000  0.59204  0.00000  1.0000
  Dy  Dy2       1.0  0.25000  0.09204  0.50000  1.0000
  Dy  Dy3       1.0  0.25000  0.40796  0.00000  1.0000
  Dy  Dy4       1.0  0.75000  0.90796  0.50000  1.0000
  Br  Br1       1.0  0.00000  0.00000  0.00000  1.0000
  Br  Br2       1.0  0.50000  0.00000  0.00000  1.0000
  Br  Br3       1.0  0.50000  0.50000  0.50000  1.0000
  Br  Br4       1.0  0.00000  0.50000  0.50000  1.0000
  Cu  Cu1       1.0  0.92306  0.07749  0.08070  1.0000
  Cu  Cu2       1.0  0.57694  0.07749  0.91930  1.0000
  Cu  Cu3       1.0  0.42306  0.57749  0.58070  1.0000
  Cu  Cu4       1.0  0.07694  0.57749  0.41930  1.0000
  Cu  Cu5       1.0  0.07694  0.92251  0.91930  1.0000
  Cu  Cu6       1.0  0.42306  0.92251  0.08070  1.0000
  Cu  Cu7       1.0  0.57694  0.42251  0.41930  1.0000
  Cu  Cu8       1.0  0.92306  0.42251  0.58070  1.0000
  O   O1        1.0  0.82792  0.49524  0.96817  1.0000
  O   O2        1.0  0.67208  0.49524  0.03183  1.0000
  O   O3        1.0  0.32792  0.99524  0.46817  1.0000
  O   O4        1.0  0.17208  0.99524  0.53183  1.0000
  O   O5        1.0  0.17208  0.50476  0.03183  1.0000
  O   O6        1.0  0.32792  0.50476  0.96817  1.0000
  O   O7        1.0  0.67208  0.00476  0.53183  1.0000
  O   O8        1.0  0.82792  0.00476  0.46817  1.0000
  O   O9        1.0  0.92887  0.48440  0.92677  1.0000
  O   O10       1.0  0.57113  0.48440  0.07323  1.0000
  O   O11       1.0  0.42887  0.98440  0.42677  1.0000
  O   O12       1.0  0.07113  0.98440  0.57323  1.0000
  O   O13       1.0  0.07113  0.51560  0.07323  1.0000
  O   O14       1.0  0.42887  0.51560  0.92677  1.0000
  O   O15       1.0  0.57113  0.01560  0.57323  1.0000
  O   O16       1.0  0.92887  0.01560  0.42677  1.0000
  O   O17       1.0  0.12440  0.13115  0.42948  1.0000
  O   O18       1.0  0.37560  0.13115  0.57052  1.0000
  O   O19       1.0  0.62440  0.63115  0.92948  1.0000
  O   O20       1.0  0.87560  0.63115  0.07052  1.0000
  O   O21       1.0  0.87560  0.86885  0.57052  1.0000
  O   O22       1.0  0.62440  0.86885  0.42948  1.0000
  O   O23       1.0  0.37560  0.36885  0.07052  1.0000
  O   O24       1.0  0.12440  0.36885  0.92948  1.0000
  O   O25       1.0  0.19378  0.04270  0.38383  1.0000
  O   O26       1.0  0.30622  0.04270  0.61617  1.0000
  O   O27       1.0  0.69378  0.54270  0.88383  1.0000
  O   O28       1.0  0.80622  0.54270  0.11617  1.0000
  O   O29       1.0  0.80622  0.95730  0.61617  1.0000
  O   O30       1.0  0.69378  0.95730  0.38383  1.0000
  O   O31       1.0  0.30622  0.45730  0.11617  1.0000
  O   O32       1.0  0.19378  0.45730  0.88383  1.0000
  O   O33       1.0  0.72097  0.69937  0.06909  1.0000
  O   O34       1.0  0.77903  0.69937  0.93091  1.0000
  O   O35       1.0  0.22097  0.19937  0.56909  1.0000
  O   O36       1.0  0.27903  0.19937  0.43091  1.0000
  O   O37       1.0  0.27903  0.30063  0.93091  1.0000
  O   O38       1.0  0.22097  0.30063  0.06909  1.0000
  O   O39       1.0  0.77903  0.80063  0.43091  1.0000
  O   O40       1.0  0.72097  0.80063  0.56909  1.0000
  O   O41       1.0  0.64730  0.78610  0.11060  1.0000
  O   O42       1.0  0.85270  0.78610  0.88940  1.0000
  O   O43       1.0  0.14730  0.28610  0.61060  1.0000
  O   O44       1.0  0.35270  0.28610  0.38940  1.0000
  O   O45       1.0  0.35270  0.21390  0.88940  1.0000
  O   O46       1.0  0.14730  0.21390  0.11060  1.0000
  O   O47       1.0  0.85270  0.71390  0.38940  1.0000
  O   O48       1.0  0.64730  0.71390  0.61060  1.0000
  N   N1        1.0  0.99090  0.08420  0.17867  1.0000
  N   N2        1.0  0.50910  0.08420  0.82133  1.0000
  N   N3        1.0  0.49090  0.58420  0.67867  1.0000
  N   N4        1.0  0.00910  0.58420  0.32133  1.0000
  N   N5        1.0  0.00910  0.91580  0.82133  1.0000
  N   N6        1.0  0.49090  0.91580  0.17867  1.0000
  N   N7        1.0  0.50910  0.41580  0.32133  1.0000
  N   N8        1.0  0.99090  0.41580  0.67867  1.0000
  N   N9        1.0  0.85122  0.98350  0.08536  1.0000
  N   N10       1.0  0.64878  0.98350  0.91464  1.0000
  N   N11       1.0  0.35122  0.48350  0.58536  1.0000
  N   N12       1.0  0.14878  0.48350  0.41464  1.0000
  N   N13       1.0  0.14878  0.01650  0.91464  1.0000
  N   N14       1.0  0.35122  0.01650  0.08536  1.0000
  N   N15       1.0  0.64878  0.51650  0.41464  1.0000
  N   N16       1.0  0.85122  0.51650  0.58536  1.0000
  N   N17       1.0  0.91359  0.19940  0.04557  1.0000
  N   N18       1.0  0.58641  0.19940  0.95443  1.0000
  N   N19       1.0  0.41359  0.69940  0.54557  1.0000
  N   N20       1.0  0.08641  0.69940  0.45443  1.0000
  N   N21       1.0  0.08641  0.80060  0.95443  1.0000
  N   N22       1.0  0.41359  0.80060  0.04557  1.0000
  N   N23       1.0  0.58641  0.30060  0.45443  1.0000
  N   N24       1.0  0.91359  0.30060  0.54557  1.0000
  C   C1        1.0  0.13760  0.08790  0.37900  1.0000
  C   C2        1.0  0.36240  0.08790  0.62100  1.0000
  C   C3        1.0  0.63760  0.58790  0.87900  1.0000
  C   C4        1.0  0.86240  0.58790  0.12100  1.0000
  C   C5        1.0  0.86240  0.91210  0.62100  1.0000
  C   C6        1.0  0.63760  0.91210  0.37900  1.0000
  C   C7        1.0  0.36240  0.41210  0.12100  1.0000
  C   C8        1.0  0.13760  0.41210  0.87900  1.0000
  C   C9        1.0  0.08550  0.08900  0.30910  1.0000
  C   C10       1.0  0.41450  0.08900  0.69090  1.0000
  C   C11       1.0  0.58550  0.58900  0.80910  1.0000
  C   C12       1.0  0.91450  0.58900  0.19090  1.0000
  C   C13       1.0  0.91450  0.91100  0.69090  1.0000
  C   C14       1.0  0.58550  0.91100  0.30910  1.0000
  C   C15       1.0  0.41450  0.41100  0.19090  1.0000
  C   C16       1.0  0.08550  0.41100  0.80910  1.0000
  C   C17       1.0  0.89810  0.36940  0.99520  1.0000
  C   C18       1.0  0.60190  0.36940  0.00480  1.0000
  C   C19       1.0  0.39810  0.86940  0.49520  1.0000
  C   C20       1.0  0.10190  0.86940  0.50480  1.0000
  C   C21       1.0  0.10190  0.63060  0.00480  1.0000
  C   C22       1.0  0.39810  0.63060  0.99520  1.0000
  C   C23       1.0  0.60190  0.13060  0.50480  1.0000
  C   C24       1.0  0.89810  0.13060  0.49520  1.0000
  C   C25       1.0  0.88530  0.45800  0.96150  1.0000
  C   C26       1.0  0.61470  0.45800  0.03850  1.0000
  C   C27       1.0  0.38530  0.95800  0.46150  1.0000
  C   C28       1.0  0.11470  0.95800  0.53850  1.0000
  C   C29       1.0  0.11470  0.54200  0.03850  1.0000
  C   C30       1.0  0.38530  0.54200  0.96150  1.0000
  C   C31       1.0  0.61470  0.04200  0.53850  1.0000
  C   C32       1.0  0.88530  0.04200  0.46150  1.0000
  C   C33       1.0  0.95850  0.32050  0.99000  1.0000
  C   C34       1.0  0.54150  0.32050  0.01000  1.0000
  C   C35       1.0  0.45850  0.82050  0.49000  1.0000
  C   C36       1.0  0.04150  0.82050  0.51000  1.0000
  C   C37       1.0  0.04150  0.67950  0.01000  1.0000
  C   C38       1.0  0.45850  0.67950  0.99000  1.0000
  C   C39       1.0  0.54150  0.17950  0.51000  1.0000
  C   C40       1.0  0.95850  0.17950  0.49000  1.0000
  H   H1        1.0  0.99489  0.34373  0.97004  1.0000
  H   H2        1.0  0.50511  0.34373  0.02996  1.0000
  H   H3        1.0  0.49489  0.84373  0.47004  1.0000
  H   H4        1.0  0.00511  0.84373  0.52996  1.0000
  H   H5        1.0  0.00511  0.65627  0.02996  1.0000
  H   H6        1.0  0.49489  0.65627  0.97004  1.0000
  H   H7        1.0  0.50511  0.15627  0.52996  1.0000
  H   H8        1.0  0.99489  0.15627  0.47004  1.0000
  C   C41       1.0  0.82760  0.83160  0.08730  1.0000
  C   C42       1.0  0.67240  0.83160  0.91270  1.0000
  C   C43       1.0  0.32760  0.33160  0.58730  1.0000
  C   C44       1.0  0.17240  0.33160  0.41270  1.0000
  C   C45       1.0  0.17240  0.16840  0.91270  1.0000
  C   C46       1.0  0.32760  0.16840  0.08730  1.0000
  C   C47       1.0  0.67240  0.66840  0.41270  1.0000
  C   C48       1.0  0.82760  0.66840  0.58730  1.0000
  H   H9        1.0  0.84499  0.77563  0.08691  1.0000
  H   H10       1.0  0.65501  0.77563  0.91309  1.0000
  H   H11       1.0  0.34499  0.27563  0.58691  1.0000
  H   H12       1.0  0.15501  0.27563  0.41309  1.0000
  H   H13       1.0  0.15501  0.22437  0.91309  1.0000
  H   H14       1.0  0.34499  0.22437  0.08691  1.0000
  H   H15       1.0  0.65501  0.72437  0.41309  1.0000
  H   H16       1.0  0.84499  0.72437  0.58691  1.0000
  C   C49       1.0  0.87300  0.90100  0.08620  1.0000
  C   C50       1.0  0.62700  0.90100  0.91380  1.0000
  C   C51       1.0  0.37300  0.40100  0.58620  1.0000
  C   C52       1.0  0.12700  0.40100  0.41380  1.0000
  C   C53       1.0  0.12700  0.09900  0.91380  1.0000
  C   C54       1.0  0.37300  0.09900  0.08620  1.0000
  C   C55       1.0  0.62700  0.59900  0.41380  1.0000
  C   C56       1.0  0.87300  0.59900  0.58620  1.0000
  H   H17       1.0  0.92120  0.89004  0.08603  1.0000
  H   H18       1.0  0.57880  0.89004  0.91397  1.0000
  H   H19       1.0  0.42120  0.39004  0.58603  1.0000
  H   H20       1.0  0.07880  0.39004  0.41397  1.0000
  H   H21       1.0  0.07880  0.10996  0.91397  1.0000
  H   H22       1.0  0.42120  0.10996  0.08603  1.0000
  H   H23       1.0  0.57880  0.60996  0.41397  1.0000
  H   H24       1.0  0.92120  0.60996  0.58603  1.0000
  C   C57       1.0  0.75590  0.84620  0.08910  1.0000
  C   C58       1.0  0.74410  0.84620  0.91090  1.0000
  C   C59       1.0  0.25590  0.34620  0.58910  1.0000
  C   C60       1.0  0.24410  0.34620  0.41090  1.0000
  C   C61       1.0  0.24410  0.15380  0.91090  1.0000
  C   C62       1.0  0.25590  0.15380  0.08910  1.0000
  C   C63       1.0  0.74410  0.65380  0.41090  1.0000
  C   C64       1.0  0.75590  0.65380  0.58910  1.0000
  C   C65       1.0  0.70370  0.77150  0.08950  1.0000
  C   C66       1.0  0.79630  0.77150  0.91050  1.0000
  C   C67       1.0  0.20370  0.27150  0.58950  1.0000
  C   C68       1.0  0.29630  0.27150  0.41050  1.0000
  C   C69       1.0  0.29630  0.22850  0.91050  1.0000
  C   C70       1.0  0.20370  0.22850  0.08950  1.0000
  C   C71       1.0  0.79630  0.72850  0.41050  1.0000
  C   C72       1.0  0.70370  0.72850  0.58950  1.0000
  C   C73       1.0  0.84880  0.33350  0.03060  1.0000
  C   C74       1.0  0.65120  0.33350  0.96940  1.0000
  C   C75       1.0  0.34880  0.83350  0.53060  1.0000
  C   C76       1.0  0.15120  0.83350  0.46940  1.0000
  C   C77       1.0  0.15120  0.66650  0.96940  1.0000
  C   C78       1.0  0.34880  0.66650  0.03060  1.0000
  C   C79       1.0  0.65120  0.16650  0.46940  1.0000
  C   C80       1.0  0.84880  0.16650  0.53060  1.0000
  H   H25       1.0  0.80976  0.36570  0.03828  1.0000
  H   H26       1.0  0.69024  0.36570  0.96172  1.0000
  H   H27       1.0  0.30976  0.86570  0.53828  1.0000
  H   H28       1.0  0.19024  0.86570  0.46172  1.0000
  H   H29       1.0  0.19024  0.63430  0.96172  1.0000
  H   H30       1.0  0.30976  0.63430  0.03828  1.0000
  H   H31       1.0  0.69024  0.13430  0.46172  1.0000
  H   H32       1.0  0.80976  0.13430  0.53828  1.0000
  C   C81       1.0  0.10990  0.07600  0.24750  1.0000
  C   C82       1.0  0.39010  0.07600  0.75250  1.0000
  C   C83       1.0  0.60990  0.57600  0.74750  1.0000
  C   C84       1.0  0.89010  0.57600  0.25250  1.0000
  C   C85       1.0  0.89010  0.92400  0.75250  1.0000
  C   C86       1.0  0.60990  0.92400  0.24750  1.0000
  C   C87       1.0  0.39010  0.42400  0.25250  1.0000
  C   C88       1.0  0.10990  0.42400  0.74750  1.0000
  H   H33       1.0  0.15877  0.06778  0.24900  1.0000
  H   H34       1.0  0.34123  0.06778  0.75100  1.0000
  H   H35       1.0  0.65877  0.56778  0.74900  1.0000
  H   H36       1.0  0.84123  0.56778  0.25100  1.0000
  H   H37       1.0  0.84123  0.93222  0.75100  1.0000
  H   H38       1.0  0.65877  0.93222  0.24900  1.0000
  H   H39       1.0  0.34123  0.43222  0.25100  1.0000
  H   H40       1.0  0.15877  0.43222  0.74900  1.0000
  C   C89       1.0  0.01240  0.10080  0.30320  1.0000
  C   C90       1.0  0.48760  0.10080  0.69680  1.0000
  C   C91       1.0  0.51240  0.60080  0.80320  1.0000
  C   C92       1.0  0.98760  0.60080  0.19680  1.0000
  C   C93       1.0  0.98760  0.89920  0.69680  1.0000
  C   C94       1.0  0.51240  0.89920  0.30320  1.0000
  C   C95       1.0  0.48760  0.39920  0.19680  1.0000
  C   C96       1.0  0.01240  0.39920  0.80320  1.0000
  H   H41       1.0  0.99346  0.11067  0.34292  1.0000
  H   H42       1.0  0.50654  0.11067  0.65708  1.0000
  H   H43       1.0  0.49346  0.61067  0.84292  1.0000
  H   H44       1.0  0.00654  0.61067  0.15708  1.0000
  H   H45       1.0  0.00654  0.88933  0.65708  1.0000
  H   H46       1.0  0.49346  0.88933  0.34292  1.0000
  H   H47       1.0  0.50654  0.38933  0.15708  1.0000
  H   H48       1.0  0.99346  0.38933  0.84292  1.0000
  C   C97       1.0  0.96340  0.23650  0.01510  1.0000
  C   C98       1.0  0.53660  0.23650  0.98490  1.0000
  C   C99       1.0  0.46340  0.73650  0.51510  1.0000
  C   C100      1.0  0.03660  0.73650  0.48490  1.0000
  C   C101      1.0  0.03660  0.76350  0.98490  1.0000
  C   C102      1.0  0.46340  0.76350  0.01510  1.0000
  C   C103      1.0  0.53660  0.26350  0.48490  1.0000
  C   C104      1.0  0.96340  0.26350  0.51510  1.0000
  H   H49       1.0  0.00347  0.20416  0.01064  1.0000
  H   H50       1.0  0.49653  0.20416  0.98936  1.0000
  H   H51       1.0  0.50347  0.70416  0.51064  1.0000
  H   H52       1.0  0.99653  0.70416  0.48936  1.0000
  H   H53       1.0  0.99653  0.79584  0.98936  1.0000
  H   H54       1.0  0.50347  0.79584  0.01064  1.0000
  H   H55       1.0  0.49653  0.29584  0.48936  1.0000
  H   H56       1.0  0.00347  0.29584  0.51064  1.0000
  C   C105      1.0  0.06210  0.07530  0.18410  1.0000
  C   C106      1.0  0.43790  0.07530  0.81590  1.0000
  C   C107      1.0  0.56210  0.57530  0.68410  1.0000
  C   C108      1.0  0.93790  0.57530  0.31590  1.0000
  C   C109      1.0  0.93790  0.92470  0.81590  1.0000
  C   C110      1.0  0.56210  0.92470  0.18410  1.0000
  C   C111      1.0  0.43790  0.42470  0.31590  1.0000
  C   C112      1.0  0.06210  0.42470  0.68410  1.0000
  H   H57       1.0  0.07997  0.06827  0.14333  1.0000
  H   H58       1.0  0.42003  0.06827  0.85667  1.0000
  H   H59       1.0  0.57997  0.56827  0.64333  1.0000
  H   H60       1.0  0.92003  0.56827  0.35667  1.0000
  H   H61       1.0  0.92003  0.93173  0.85667  1.0000
  H   H62       1.0  0.57997  0.93173  0.14333  1.0000
  H   H63       1.0  0.42003  0.43173  0.35667  1.0000
  H   H64       1.0  0.07997  0.43173  0.64333  1.0000
  C   C113      1.0  0.96780  0.09770  0.23810  1.0000
  C   C114      1.0  0.53220  0.09770  0.76190  1.0000
  C   C115      1.0  0.46780  0.59770  0.73810  1.0000
  C   C116      1.0  0.03220  0.59770  0.26190  1.0000
  C   C117      1.0  0.03220  0.90230  0.76190  1.0000
  C   C118      1.0  0.46780  0.90230  0.23810  1.0000
  C   C119      1.0  0.53220  0.40230  0.26190  1.0000
  C   C120      1.0  0.96780  0.40230  0.73810  1.0000
  H   H65       1.0  0.91871  0.10557  0.23546  1.0000
  H   H66       1.0  0.58129  0.10557  0.76454  1.0000
  H   H67       1.0  0.41871  0.60557  0.73546  1.0000
  H   H68       1.0  0.08129  0.60557  0.26454  1.0000
  H   H69       1.0  0.08129  0.89443  0.76454  1.0000
  H   H70       1.0  0.41871  0.89443  0.23546  1.0000
  H   H71       1.0  0.58129  0.39443  0.26454  1.0000
  H   H72       1.0  0.91871  0.39443  0.73546  1.0000
  C   C121      1.0  0.78170  0.99670  0.08710  1.0000
  C   C122      1.0  0.71830  0.99670  0.91290  1.0000
  C   C123      1.0  0.28170  0.49670  0.58710  1.0000
  C   C124      1.0  0.21830  0.49670  0.41290  1.0000
  C   C125      1.0  0.21830  0.00330  0.91290  1.0000
  C   C126      1.0  0.28170  0.00330  0.08710  1.0000
  C   C127      1.0  0.71830  0.50330  0.41290  1.0000
  C   C128      1.0  0.78170  0.50330  0.58710  1.0000
  H   H73       1.0  0.76541  0.05319  0.08688  1.0000
  H   H74       1.0  0.73459  0.05319  0.91312  1.0000
  H   H75       1.0  0.26541  0.55319  0.58688  1.0000
  H   H76       1.0  0.23459  0.55319  0.41312  1.0000
  H   H77       1.0  0.23459  0.94681  0.91312  1.0000
  H   H78       1.0  0.26541  0.94681  0.08688  1.0000
  H   H79       1.0  0.73459  0.44681  0.41312  1.0000
  H   H80       1.0  0.76541  0.44681  0.58688  1.0000
  C   C129      1.0  0.85790  0.24940  0.05450  1.0000
  C   C130      1.0  0.64210  0.24940  0.94550  1.0000
  C   C131      1.0  0.35790  0.74940  0.55450  1.0000
  C   C132      1.0  0.14210  0.74940  0.44550  1.0000
  C   C133      1.0  0.14210  0.75060  0.94550  1.0000
  C   C134      1.0  0.35790  0.75060  0.05450  1.0000
  C   C135      1.0  0.64210  0.25060  0.44550  1.0000
  C   C136      1.0  0.85790  0.25060  0.55450  1.0000
  H   H81       1.0  0.82401  0.22630  0.07774  1.0000
  H   H82       1.0  0.67599  0.22630  0.92226  1.0000
  H   H83       1.0  0.32401  0.72630  0.57774  1.0000
  H   H84       1.0  0.17599  0.72630  0.42226  1.0000
  H   H85       1.0  0.17599  0.77370  0.92226  1.0000
  H   H86       1.0  0.32401  0.77370  0.07774  1.0000
  H   H87       1.0  0.67599  0.27370  0.42226  1.0000
  H   H88       1.0  0.82401  0.27370  0.57774  1.0000
  C   C137      1.0  0.73280  0.93070  0.08910  1.0000
  C   C138      1.0  0.76720  0.93070  0.91090  1.0000
  C   C139      1.0  0.23280  0.43070  0.58910  1.0000
  C   C140      1.0  0.26720  0.43070  0.41090  1.0000
  C   C141      1.0  0.26720  0.06930  0.91090  1.0000
  C   C142      1.0  0.23280  0.06930  0.08910  1.0000
  C   C143      1.0  0.76720  0.56930  0.41090  1.0000
  C   C144      1.0  0.73280  0.56930  0.58910  1.0000
  H   H89       1.0  0.68516  0.94312  0.09041  1.0000
  H   H90       1.0  0.81484  0.94312  0.90959  1.0000
  H   H91       1.0  0.18516  0.44312  0.59041  1.0000
  H   H92       1.0  0.31484  0.44312  0.40959  1.0000
  H   H93       1.0  0.31484  0.05688  0.90959  1.0000
  H   H94       1.0  0.18516  0.05688  0.09041  1.0000
  H   H95       1.0  0.81484  0.55688  0.40959  1.0000
  H   H96       1.0  0.68516  0.55688  0.59041  1.0000
