data_image0
_chemical_formula_structural       Gd4Br4Cu8O48N24C16H8C32H8C8H8C8H8C8H8C16H8C8H8C8H8C16H8C8H8C8H8C8H8
_chemical_formula_sum              "Gd4 Br4 Cu8 O48 N24 C144 H96"
_cell_length_a       18.95
_cell_length_b       15.55
_cell_length_c       19.36
_cell_angle_alpha    90
_cell_angle_beta     101.39
_cell_angle_gamma    90

_space_group_name_H-M_alt    "P 1"
_space_group_IT_number       1

loop_
  _space_group_symop_operation_xyz
  'x, y, z'

loop_
  _atom_site_type_symbol
  _atom_site_label
  _atom_site_symmetry_multiplicity
  _atom_site_fract_x
  _atom_site_fract_y
  _atom_site_fract_z
  _atom_site_occupancy
  Gd  Gd1       1.0  0.25000  0.59182  0.00000  1.0000
  Gd  Gd2       1.0  0.75000  0.09182  0.50000  1.0000
  Gd  Gd3       1.0  0.75000  0.40818  0.00000  1.0000
  Gd  Gd4       1.0  0.25000  0.90818  0.50000  1.0000
  Br  Br1       1.0  0.50000  0.00000  0.00000  1.0000
  Br  Br2       1.0  0.00000  0.00000  0.00000  1.0000
  Br  Br3       1.0  0.00000  0.50000  0.50000  1.0000
  Br  Br4       1.0  0.50000  0.50000  0.50000  1.0000
  Cu  Cu1       1.0  0.42259  0.07795  0.08045  1.0000
  Cu  Cu2       1.0  0.07741  0.07795  0.91955  1.0000
  Cu  Cu3       1.0  0.92259  0.57795  0.58045  1.0000
  Cu  Cu4       1.0  0.57741  0.57795  0.41955  1.0000
  Cu  Cu5       1.0  0.57741  0.92205  0.91955  1.0000
  Cu  Cu6       1.0  0.92259  0.92205  0.08045  1.0000
  Cu  Cu7       1.0  0.07741  0.42205  0.41955  1.0000
  Cu  Cu8       1.0  0.42259  0.42205  0.58045  1.0000
  O   O1        1.0  0.22060  0.69970  0.06920  1.0000
  O   O2        1.0  0.27940  0.69970  0.93080  1.0000
  O   O3        1.0  0.72060  0.19970  0.56920  1.0000
  O   O4        1.0  0.77940  0.19970  0.43080  1.0000
  O   O5        1.0  0.77940  0.30030  0.93080  1.0000
  O   O6        1.0  0.72060  0.30030  0.06920  1.0000
  O   O7        1.0  0.27940  0.80030  0.43080  1.0000
  O   O8        1.0  0.22060  0.80030  0.56920  1.0000
  O   O9        1.0  0.14730  0.78730  0.11150  1.0000
  O   O10       1.0  0.35270  0.78730  0.88850  1.0000
  O   O11       1.0  0.64730  0.28730  0.61150  1.0000
  O   O12       1.0  0.85270  0.28730  0.38850  1.0000
  O   O13       1.0  0.85270  0.21270  0.88850  1.0000
  O   O14       1.0  0.64730  0.21270  0.11150  1.0000
  O   O15       1.0  0.35270  0.71270  0.38850  1.0000
  O   O16       1.0  0.14730  0.71270  0.61150  1.0000
  O   O17       1.0  0.69380  0.04300  0.38320  1.0000
  O   O18       1.0  0.80620  0.04300  0.61680  1.0000
  O   O19       1.0  0.19380  0.54300  0.88320  1.0000
  O   O20       1.0  0.30620  0.54300  0.11680  1.0000
  O   O21       1.0  0.30620  0.95700  0.61680  1.0000
  O   O22       1.0  0.19380  0.95700  0.38320  1.0000
  O   O23       1.0  0.80620  0.45700  0.11680  1.0000
  O   O24       1.0  0.69380  0.45700  0.88320  1.0000
  O   O25       1.0  0.62400  0.13130  0.42810  1.0000
  O   O26       1.0  0.87600  0.13130  0.57190  1.0000
  O   O27       1.0  0.12400  0.63130  0.92810  1.0000
  O   O28       1.0  0.37600  0.63130  0.07190  1.0000
  O   O29       1.0  0.37600  0.86870  0.57190  1.0000
  O   O30       1.0  0.12400  0.86870  0.42810  1.0000
  O   O31       1.0  0.87600  0.36870  0.07190  1.0000
  O   O32       1.0  0.62400  0.36870  0.92810  1.0000
  O   O33       1.0  0.32920  0.49530  0.96720  1.0000
  O   O34       1.0  0.17080  0.49530  0.03280  1.0000
  O   O35       1.0  0.82920  0.99530  0.46720  1.0000
  O   O36       1.0  0.67080  0.99530  0.53280  1.0000
  O   O37       1.0  0.67080  0.50470  0.03280  1.0000
  O   O38       1.0  0.82920  0.50470  0.96720  1.0000
  O   O39       1.0  0.17080  0.00470  0.53280  1.0000
  O   O40       1.0  0.32920  0.00470  0.46720  1.0000
  O   O41       1.0  0.43070  0.48400  0.92630  1.0000
  O   O42       1.0  0.06930  0.48400  0.07370  1.0000
  O   O43       1.0  0.93070  0.98400  0.42630  1.0000
  O   O44       1.0  0.56930  0.98400  0.57370  1.0000
  O   O45       1.0  0.56930  0.51600  0.07370  1.0000
  O   O46       1.0  0.93070  0.51600  0.92630  1.0000
  O   O47       1.0  0.06930  0.01600  0.57370  1.0000
  O   O48       1.0  0.43070  0.01600  0.42630  1.0000
  N   N1        1.0  0.41370  0.19850  0.04440  1.0000
  N   N2        1.0  0.08630  0.19850  0.95560  1.0000
  N   N3        1.0  0.91370  0.69850  0.54440  1.0000
  N   N4        1.0  0.58630  0.69850  0.45560  1.0000
  N   N5        1.0  0.58630  0.80150  0.95560  1.0000
  N   N6        1.0  0.91370  0.80150  0.04440  1.0000
  N   N7        1.0  0.08630  0.30150  0.45560  1.0000
  N   N8        1.0  0.41370  0.30150  0.54440  1.0000
  N   N9        1.0  0.35020  0.98390  0.08470  1.0000
  N   N10       1.0  0.14980  0.98390  0.91530  1.0000
  N   N11       1.0  0.85020  0.48390  0.58470  1.0000
  N   N12       1.0  0.64980  0.48390  0.41530  1.0000
  N   N13       1.0  0.64980  0.01610  0.91530  1.0000
  N   N14       1.0  0.85020  0.01610  0.08470  1.0000
  N   N15       1.0  0.14980  0.51610  0.41530  1.0000
  N   N16       1.0  0.35020  0.51610  0.58470  1.0000
  N   N17       1.0  0.49110  0.08430  0.17780  1.0000
  N   N18       1.0  0.00890  0.08430  0.82220  1.0000
  N   N19       1.0  0.99110  0.58430  0.67780  1.0000
  N   N20       1.0  0.50890  0.58430  0.32220  1.0000
  N   N21       1.0  0.50890  0.91570  0.82220  1.0000
  N   N22       1.0  0.99110  0.91570  0.17780  1.0000
  N   N23       1.0  0.00890  0.41570  0.32220  1.0000
  N   N24       1.0  0.49110  0.41570  0.67780  1.0000
  C   C1        1.0  0.63650  0.08760  0.37750  1.0000
  C   C2        1.0  0.86350  0.08760  0.62250  1.0000
  C   C3        1.0  0.13650  0.58760  0.87750  1.0000
  C   C4        1.0  0.36350  0.58760  0.12250  1.0000
  C   C5        1.0  0.36350  0.91240  0.62250  1.0000
  C   C6        1.0  0.13650  0.91240  0.37750  1.0000
  C   C7        1.0  0.86350  0.41240  0.12250  1.0000
  C   C8        1.0  0.63650  0.41240  0.87750  1.0000
  C   C9        1.0  0.32800  0.83210  0.08830  1.0000
  C   C10       1.0  0.17200  0.83210  0.91170  1.0000
  C   C11       1.0  0.82800  0.33210  0.58830  1.0000
  C   C12       1.0  0.67200  0.33210  0.41170  1.0000
  C   C13       1.0  0.67200  0.16790  0.91170  1.0000
  C   C14       1.0  0.82800  0.16790  0.08830  1.0000
  C   C15       1.0  0.17200  0.66790  0.41170  1.0000
  C   C16       1.0  0.32800  0.66790  0.58830  1.0000
  H   H1        1.0  0.34572  0.77632  0.08883  1.0000
  H   H2        1.0  0.15428  0.77632  0.91117  1.0000
  H   H3        1.0  0.84572  0.27632  0.58883  1.0000
  H   H4        1.0  0.65428  0.27632  0.41117  1.0000
  H   H5        1.0  0.65428  0.22368  0.91117  1.0000
  H   H6        1.0  0.84572  0.22368  0.08883  1.0000
  H   H7        1.0  0.15428  0.72368  0.41117  1.0000
  H   H8        1.0  0.34572  0.72368  0.58883  1.0000
  C   C17       1.0  0.39910  0.36860  0.99420  1.0000
  C   C18       1.0  0.10090  0.36860  0.00580  1.0000
  C   C19       1.0  0.89910  0.86860  0.49420  1.0000
  C   C20       1.0  0.60090  0.86860  0.50580  1.0000
  C   C21       1.0  0.60090  0.63140  0.00580  1.0000
  C   C22       1.0  0.89910  0.63140  0.99420  1.0000
  C   C23       1.0  0.10090  0.13140  0.50580  1.0000
  C   C24       1.0  0.39910  0.13140  0.49420  1.0000
  C   C25       1.0  0.25590  0.84640  0.08990  1.0000
  C   C26       1.0  0.24410  0.84640  0.91010  1.0000
  C   C27       1.0  0.75590  0.34640  0.58990  1.0000
  C   C28       1.0  0.74410  0.34640  0.41010  1.0000
  C   C29       1.0  0.74410  0.15360  0.91010  1.0000
  C   C30       1.0  0.75590  0.15360  0.08990  1.0000
  C   C31       1.0  0.24410  0.65360  0.41010  1.0000
  C   C32       1.0  0.25590  0.65360  0.58990  1.0000
  C   C33       1.0  0.38620  0.45660  0.96050  1.0000
  C   C34       1.0  0.11380  0.45660  0.03950  1.0000
  C   C35       1.0  0.88620  0.95660  0.46050  1.0000
  C   C36       1.0  0.61380  0.95660  0.53950  1.0000
  C   C37       1.0  0.61380  0.54340  0.03950  1.0000
  C   C38       1.0  0.88620  0.54340  0.96050  1.0000
  C   C39       1.0  0.11380  0.04340  0.53950  1.0000
  C   C40       1.0  0.38620  0.04340  0.46050  1.0000
  C   C41       1.0  0.45830  0.31800  0.98930  1.0000
  C   C42       1.0  0.04170  0.31800  0.01070  1.0000
  C   C43       1.0  0.95830  0.81800  0.48930  1.0000
  C   C44       1.0  0.54170  0.81800  0.51070  1.0000
  C   C45       1.0  0.54170  0.68200  0.01070  1.0000
  C   C46       1.0  0.95830  0.68200  0.98930  1.0000
  C   C47       1.0  0.04170  0.18200  0.51070  1.0000
  C   C48       1.0  0.45830  0.18200  0.48930  1.0000
  H   H9        1.0  0.49487  0.34079  0.96915  1.0000
  H   H10       1.0  0.00513  0.34079  0.03085  1.0000
  H   H11       1.0  0.99487  0.84079  0.46915  1.0000
  H   H12       1.0  0.50513  0.84079  0.53085  1.0000
  H   H13       1.0  0.50513  0.65921  0.03085  1.0000
  H   H14       1.0  0.99487  0.65921  0.96915  1.0000
  H   H15       1.0  0.00513  0.15921  0.53085  1.0000
  H   H16       1.0  0.49487  0.15921  0.46915  1.0000
  C   C49       1.0  0.46360  0.23500  0.01350  1.0000
  C   C50       1.0  0.03640  0.23500  0.98650  1.0000
  C   C51       1.0  0.96360  0.73500  0.51350  1.0000
  C   C52       1.0  0.53640  0.73500  0.48650  1.0000
  C   C53       1.0  0.53640  0.76500  0.98650  1.0000
  C   C54       1.0  0.96360  0.76500  0.01350  1.0000
  C   C55       1.0  0.03640  0.26500  0.48650  1.0000
  C   C56       1.0  0.46360  0.26500  0.51350  1.0000
  H   H17       1.0  0.50348  0.20264  0.00829  1.0000
  H   H18       1.0  0.99652  0.20264  0.99171  1.0000
  H   H19       1.0  0.00348  0.70264  0.50829  1.0000
  H   H20       1.0  0.49652  0.70264  0.49171  1.0000
  H   H21       1.0  0.49652  0.79736  0.99171  1.0000
  H   H22       1.0  0.00348  0.79736  0.00829  1.0000
  H   H23       1.0  0.99652  0.29736  0.49171  1.0000
  H   H24       1.0  0.50348  0.29736  0.50829  1.0000
  C   C57       1.0  0.34980  0.33220  0.02990  1.0000
  C   C58       1.0  0.15020  0.33220  0.97010  1.0000
  C   C59       1.0  0.84980  0.83220  0.52990  1.0000
  C   C60       1.0  0.65020  0.83220  0.47010  1.0000
  C   C61       1.0  0.65020  0.66780  0.97010  1.0000
  C   C62       1.0  0.84980  0.66780  0.02990  1.0000
  C   C63       1.0  0.15020  0.16780  0.47010  1.0000
  C   C64       1.0  0.34980  0.16780  0.52990  1.0000
  H   H25       1.0  0.31081  0.36452  0.03769  1.0000
  H   H26       1.0  0.18919  0.36452  0.96231  1.0000
  H   H27       1.0  0.81081  0.86452  0.53769  1.0000
  H   H28       1.0  0.68919  0.86452  0.46231  1.0000
  H   H29       1.0  0.68919  0.63548  0.96231  1.0000
  H   H30       1.0  0.81081  0.63548  0.03769  1.0000
  H   H31       1.0  0.18919  0.13548  0.46231  1.0000
  H   H32       1.0  0.31081  0.13548  0.53769  1.0000
  C   C65       1.0  0.35780  0.25060  0.05320  1.0000
  C   C66       1.0  0.14220  0.25060  0.94680  1.0000
  C   C67       1.0  0.85780  0.75060  0.55320  1.0000
  C   C68       1.0  0.64220  0.75060  0.44680  1.0000
  C   C69       1.0  0.64220  0.74940  0.94680  1.0000
  C   C70       1.0  0.85780  0.74940  0.05320  1.0000
  C   C71       1.0  0.14220  0.24940  0.44680  1.0000
  C   C72       1.0  0.35780  0.24940  0.55320  1.0000
  H   H33       1.0  0.32351  0.22826  0.07659  1.0000
  H   H34       1.0  0.17649  0.22826  0.92341  1.0000
  H   H35       1.0  0.82351  0.72826  0.57659  1.0000
  H   H36       1.0  0.67649  0.72826  0.42341  1.0000
  H   H37       1.0  0.67649  0.77174  0.92341  1.0000
  H   H38       1.0  0.82351  0.77174  0.07659  1.0000
  H   H39       1.0  0.17649  0.27174  0.42341  1.0000
  H   H40       1.0  0.32351  0.27174  0.57659  1.0000
  C   C73       1.0  0.20300  0.77220  0.08980  1.0000
  C   C74       1.0  0.29700  0.77220  0.91020  1.0000
  C   C75       1.0  0.70300  0.27220  0.58980  1.0000
  C   C76       1.0  0.79700  0.27220  0.41020  1.0000
  C   C77       1.0  0.79700  0.22780  0.91020  1.0000
  C   C78       1.0  0.70300  0.22780  0.08980  1.0000
  C   C79       1.0  0.29700  0.72780  0.41020  1.0000
  C   C80       1.0  0.20300  0.72780  0.58980  1.0000
  C   C81       1.0  0.23280  0.93100  0.08950  1.0000
  C   C82       1.0  0.26720  0.93100  0.91050  1.0000
  C   C83       1.0  0.73280  0.43100  0.58950  1.0000
  C   C84       1.0  0.76720  0.43100  0.41050  1.0000
  C   C85       1.0  0.76720  0.06900  0.91050  1.0000
  C   C86       1.0  0.73280  0.06900  0.08950  1.0000
  C   C87       1.0  0.26720  0.56900  0.41050  1.0000
  C   C88       1.0  0.23280  0.56900  0.58950  1.0000
  H   H41       1.0  0.18507  0.94349  0.09064  1.0000
  H   H42       1.0  0.31493  0.94349  0.90936  1.0000
  H   H43       1.0  0.68507  0.44349  0.59064  1.0000
  H   H44       1.0  0.81493  0.44349  0.40936  1.0000
  H   H45       1.0  0.81493  0.05651  0.90936  1.0000
  H   H46       1.0  0.68507  0.05651  0.09064  1.0000
  H   H47       1.0  0.31493  0.55651  0.40936  1.0000
  H   H48       1.0  0.18507  0.55651  0.59064  1.0000
  C   C89       1.0  0.37260  0.90060  0.08610  1.0000
  C   C90       1.0  0.12740  0.90060  0.91390  1.0000
  C   C91       1.0  0.87260  0.40060  0.58610  1.0000
  C   C92       1.0  0.62740  0.40060  0.41390  1.0000
  C   C93       1.0  0.62740  0.09940  0.91390  1.0000
  C   C94       1.0  0.87260  0.09940  0.08610  1.0000
  C   C95       1.0  0.12740  0.59940  0.41390  1.0000
  C   C96       1.0  0.37260  0.59940  0.58610  1.0000
  H   H49       1.0  0.42071  0.88975  0.08543  1.0000
  H   H50       1.0  0.07929  0.88975  0.91457  1.0000
  H   H51       1.0  0.92071  0.38975  0.58543  1.0000
  H   H52       1.0  0.57929  0.38975  0.41457  1.0000
  H   H53       1.0  0.57929  0.11025  0.91457  1.0000
  H   H54       1.0  0.92071  0.11025  0.08543  1.0000
  H   H55       1.0  0.07929  0.61025  0.41457  1.0000
  H   H56       1.0  0.42071  0.61025  0.58543  1.0000
  C   C97       1.0  0.28160  0.99670  0.08730  1.0000
  C   C98       1.0  0.21840  0.99670  0.91270  1.0000
  C   C99       1.0  0.78160  0.49670  0.58730  1.0000
  C   C100      1.0  0.71840  0.49670  0.41270  1.0000
  C   C101      1.0  0.71840  0.00330  0.91270  1.0000
  C   C102      1.0  0.78160  0.00330  0.08730  1.0000
  C   C103      1.0  0.21840  0.50330  0.41270  1.0000
  C   C104      1.0  0.28160  0.50330  0.58730  1.0000
  H   H57       1.0  0.26526  0.05309  0.08768  1.0000
  H   H58       1.0  0.23474  0.05309  0.91232  1.0000
  H   H59       1.0  0.76526  0.55309  0.58768  1.0000
  H   H60       1.0  0.73474  0.55309  0.41232  1.0000
  H   H61       1.0  0.73474  0.94691  0.91232  1.0000
  H   H62       1.0  0.76526  0.94691  0.08768  1.0000
  H   H63       1.0  0.23474  0.44691  0.41232  1.0000
  H   H64       1.0  0.26526  0.44691  0.58768  1.0000
  C   C105      1.0  0.58540  0.08810  0.30820  1.0000
  C   C106      1.0  0.91460  0.08810  0.69180  1.0000
  C   C107      1.0  0.08540  0.58810  0.80820  1.0000
  C   C108      1.0  0.41460  0.58810  0.19180  1.0000
  C   C109      1.0  0.41460  0.91190  0.69180  1.0000
  C   C110      1.0  0.08540  0.91190  0.30820  1.0000
  C   C111      1.0  0.91460  0.41190  0.19180  1.0000
  C   C112      1.0  0.58540  0.41190  0.80820  1.0000
  C   C113      1.0  0.51180  0.10200  0.30180  1.0000
  C   C114      1.0  0.98820  0.10200  0.69820  1.0000
  C   C115      1.0  0.01180  0.60200  0.80180  1.0000
  C   C116      1.0  0.48820  0.60200  0.19820  1.0000
  C   C117      1.0  0.48820  0.89800  0.69820  1.0000
  C   C118      1.0  0.01180  0.89800  0.30180  1.0000
  C   C119      1.0  0.98820  0.39800  0.19820  1.0000
  C   C120      1.0  0.51180  0.39800  0.80180  1.0000
  H   H65       1.0  0.49306  0.11391  0.34164  1.0000
  H   H66       1.0  0.00694  0.11391  0.65836  1.0000
  H   H67       1.0  0.99306  0.61391  0.84164  1.0000
  H   H68       1.0  0.50694  0.61391  0.15836  1.0000
  H   H69       1.0  0.50694  0.88609  0.65836  1.0000
  H   H70       1.0  0.99306  0.88609  0.34164  1.0000
  H   H71       1.0  0.00694  0.38609  0.15836  1.0000
  H   H72       1.0  0.49306  0.38609  0.84164  1.0000
  C   C121      1.0  0.60860  0.07640  0.24620  1.0000
  C   C122      1.0  0.89140  0.07640  0.75380  1.0000
  C   C123      1.0  0.10860  0.57640  0.74620  1.0000
  C   C124      1.0  0.39140  0.57640  0.25380  1.0000
  C   C125      1.0  0.39140  0.92360  0.75380  1.0000
  C   C126      1.0  0.10860  0.92360  0.24620  1.0000
  C   C127      1.0  0.89140  0.42360  0.25380  1.0000
  C   C128      1.0  0.60860  0.42360  0.74620  1.0000
  H   H73       1.0  0.65747  0.06917  0.24687  1.0000
  H   H74       1.0  0.84253  0.06917  0.75313  1.0000
  H   H75       1.0  0.15747  0.56917  0.74687  1.0000
  H   H76       1.0  0.34253  0.56917  0.25313  1.0000
  H   H77       1.0  0.34253  0.93083  0.75313  1.0000
  H   H78       1.0  0.15747  0.93083  0.24687  1.0000
  H   H79       1.0  0.84253  0.43083  0.25313  1.0000
  H   H80       1.0  0.65747  0.43083  0.74687  1.0000
  C   C129      1.0  0.56140  0.07530  0.18430  1.0000
  C   C130      1.0  0.93860  0.07530  0.81570  1.0000
  C   C131      1.0  0.06140  0.57530  0.68430  1.0000
  C   C132      1.0  0.43860  0.57530  0.31570  1.0000
  C   C133      1.0  0.43860  0.92470  0.81570  1.0000
  C   C134      1.0  0.06140  0.92470  0.18430  1.0000
  C   C135      1.0  0.93860  0.42470  0.31570  1.0000
  C   C136      1.0  0.56140  0.42470  0.68430  1.0000
  H   H81       1.0  0.57952  0.06762  0.14346  1.0000
  H   H82       1.0  0.92048  0.06762  0.85654  1.0000
  H   H83       1.0  0.07952  0.56762  0.64346  1.0000
  H   H84       1.0  0.42048  0.56762  0.35654  1.0000
  H   H85       1.0  0.42048  0.93238  0.85654  1.0000
  H   H86       1.0  0.07952  0.93238  0.14346  1.0000
  H   H87       1.0  0.92048  0.43238  0.35654  1.0000
  H   H88       1.0  0.57952  0.43238  0.64346  1.0000
  C   C137      1.0  0.46690  0.09810  0.23710  1.0000
  C   C138      1.0  0.03310  0.09810  0.76290  1.0000
  C   C139      1.0  0.96690  0.59810  0.73710  1.0000
  C   C140      1.0  0.53310  0.59810  0.26290  1.0000
  C   C141      1.0  0.53310  0.90190  0.76290  1.0000
  C   C142      1.0  0.96690  0.90190  0.23710  1.0000
  C   C143      1.0  0.03310  0.40190  0.26290  1.0000
  C   C144      1.0  0.46690  0.40190  0.73710  1.0000
  H   H89       1.0  0.41767  0.10540  0.23444  1.0000
  H   H90       1.0  0.08233  0.10540  0.76556  1.0000
  H   H91       1.0  0.91767  0.60540  0.73444  1.0000
  H   H92       1.0  0.58233  0.60540  0.26556  1.0000
  H   H93       1.0  0.58233  0.89460  0.76556  1.0000
  H   H94       1.0  0.91767  0.89460  0.23444  1.0000
  H   H95       1.0  0.08233  0.39460  0.26556  1.0000
  H   H96       1.0  0.41767  0.39460  0.73444  1.0000
