data_image0
_chemical_formula_structural       Sm4Br4Cu8O48N24C8H8C8H8C8H8C16H8C24H8C8H8C16H8C8H8C8H8C8H8C16H8C16H8
_chemical_formula_sum              "Sm4 Br4 Cu8 O48 N24 C144 H96"
_cell_length_a       18.971
_cell_length_b       15.5933
_cell_length_c       19.549
_cell_angle_alpha    90
_cell_angle_beta     101.681
_cell_angle_gamma    90

_space_group_name_H-M_alt    "P 1"
_space_group_IT_number       1

loop_
  _space_group_symop_operation_xyz
  'x, y, z'

loop_
  _atom_site_type_symbol
  _atom_site_label
  _atom_site_symmetry_multiplicity
  _atom_site_fract_x
  _atom_site_fract_y
  _atom_site_fract_z
  _atom_site_occupancy
  Sm  Sm1       1.0  0.75000  0.59227  0.00000  1.0000
  Sm  Sm2       1.0  0.25000  0.09227  0.50000  1.0000
  Sm  Sm3       1.0  0.25000  0.40773  0.00000  1.0000
  Sm  Sm4       1.0  0.75000  0.90773  0.50000  1.0000
  Br  Br1       1.0  0.00000  0.00000  0.00000  1.0000
  Br  Br2       1.0  0.50000  0.00000  0.00000  1.0000
  Br  Br3       1.0  0.50000  0.50000  0.50000  1.0000
  Br  Br4       1.0  0.00000  0.50000  0.50000  1.0000
  Cu  Cu1       1.0  0.92304  0.07790  0.07959  1.0000
  Cu  Cu2       1.0  0.57696  0.07790  0.92041  1.0000
  Cu  Cu3       1.0  0.42304  0.57790  0.57959  1.0000
  Cu  Cu4       1.0  0.07696  0.57790  0.42041  1.0000
  Cu  Cu5       1.0  0.07696  0.92210  0.92041  1.0000
  Cu  Cu6       1.0  0.42304  0.92210  0.07959  1.0000
  Cu  Cu7       1.0  0.57696  0.42210  0.42041  1.0000
  Cu  Cu8       1.0  0.92304  0.42210  0.57959  1.0000
  O   O1        1.0  0.72050  0.70150  0.07050  1.0000
  O   O2        1.0  0.77950  0.70150  0.92950  1.0000
  O   O3        1.0  0.22050  0.20150  0.57050  1.0000
  O   O4        1.0  0.27950  0.20150  0.42950  1.0000
  O   O5        1.0  0.27950  0.29850  0.92950  1.0000
  O   O6        1.0  0.22050  0.29850  0.07050  1.0000
  O   O7        1.0  0.77950  0.79850  0.42950  1.0000
  O   O8        1.0  0.72050  0.79850  0.57050  1.0000
  O   O9        1.0  0.83050  0.49560  0.96710  1.0000
  O   O10       1.0  0.66950  0.49560  0.03290  1.0000
  O   O11       1.0  0.33050  0.99560  0.46710  1.0000
  O   O12       1.0  0.16950  0.99560  0.53290  1.0000
  O   O13       1.0  0.16950  0.50440  0.03290  1.0000
  O   O14       1.0  0.33050  0.50440  0.96710  1.0000
  O   O15       1.0  0.66950  0.00440  0.53290  1.0000
  O   O16       1.0  0.83050  0.00440  0.46710  1.0000
  O   O17       1.0  0.12250  0.13110  0.42660  1.0000
  O   O18       1.0  0.37750  0.13110  0.57340  1.0000
  O   O19       1.0  0.62250  0.63110  0.92660  1.0000
  O   O20       1.0  0.87750  0.63110  0.07340  1.0000
  O   O21       1.0  0.87750  0.86890  0.57340  1.0000
  O   O22       1.0  0.62250  0.86890  0.42660  1.0000
  O   O23       1.0  0.37750  0.36890  0.07340  1.0000
  O   O24       1.0  0.12250  0.36890  0.92660  1.0000
  O   O25       1.0  0.93050  0.48350  0.92570  1.0000
  O   O26       1.0  0.56950  0.48350  0.07430  1.0000
  O   O27       1.0  0.43050  0.98350  0.42570  1.0000
  O   O28       1.0  0.06950  0.98350  0.57430  1.0000
  O   O29       1.0  0.06950  0.51650  0.07430  1.0000
  O   O30       1.0  0.43050  0.51650  0.92570  1.0000
  O   O31       1.0  0.56950  0.01650  0.57430  1.0000
  O   O32       1.0  0.93050  0.01650  0.42570  1.0000
  O   O33       1.0  0.64830  0.78810  0.11330  1.0000
  O   O34       1.0  0.85170  0.78810  0.88670  1.0000
  O   O35       1.0  0.14830  0.28810  0.61330  1.0000
  O   O36       1.0  0.35170  0.28810  0.38670  1.0000
  O   O37       1.0  0.35170  0.21190  0.88670  1.0000
  O   O38       1.0  0.14830  0.21190  0.11330  1.0000
  O   O39       1.0  0.85170  0.71190  0.38670  1.0000
  O   O40       1.0  0.64830  0.71190  0.61330  1.0000
  O   O41       1.0  0.19270  0.04140  0.38230  1.0000
  O   O42       1.0  0.30730  0.04140  0.61770  1.0000
  O   O43       1.0  0.69270  0.54140  0.88230  1.0000
  O   O44       1.0  0.80730  0.54140  0.11770  1.0000
  O   O45       1.0  0.80730  0.95860  0.61770  1.0000
  O   O46       1.0  0.69270  0.95860  0.38230  1.0000
  O   O47       1.0  0.30730  0.45860  0.11770  1.0000
  O   O48       1.0  0.19270  0.45860  0.88230  1.0000
  N   N1        1.0  0.85010  0.98460  0.08480  1.0000
  N   N2        1.0  0.64990  0.98460  0.91520  1.0000
  N   N3        1.0  0.35010  0.48460  0.58480  1.0000
  N   N4        1.0  0.14990  0.48460  0.41520  1.0000
  N   N5        1.0  0.14990  0.01540  0.91520  1.0000
  N   N6        1.0  0.35010  0.01540  0.08480  1.0000
  N   N7        1.0  0.64990  0.51540  0.41520  1.0000
  N   N8        1.0  0.85010  0.51540  0.58480  1.0000
  N   N9        1.0  0.98940  0.08470  0.17750  1.0000
  N   N10       1.0  0.51060  0.08470  0.82250  1.0000
  N   N11       1.0  0.48940  0.58470  0.67750  1.0000
  N   N12       1.0  0.01060  0.58470  0.32250  1.0000
  N   N13       1.0  0.01060  0.91530  0.82250  1.0000
  N   N14       1.0  0.48940  0.91530  0.17750  1.0000
  N   N15       1.0  0.51060  0.41530  0.32250  1.0000
  N   N16       1.0  0.98940  0.41530  0.67750  1.0000
  N   N17       1.0  0.91410  0.19900  0.04400  1.0000
  N   N18       1.0  0.58590  0.19900  0.95600  1.0000
  N   N19       1.0  0.41410  0.69900  0.54400  1.0000
  N   N20       1.0  0.08590  0.69900  0.45600  1.0000
  N   N21       1.0  0.08590  0.80100  0.95600  1.0000
  N   N22       1.0  0.41410  0.80100  0.04400  1.0000
  N   N23       1.0  0.58590  0.30100  0.45600  1.0000
  N   N24       1.0  0.91410  0.30100  0.54400  1.0000
  C   C1        1.0  0.01160  0.10090  0.30090  1.0000
  C   C2        1.0  0.48840  0.10090  0.69910  1.0000
  C   C3        1.0  0.51160  0.60090  0.80090  1.0000
  C   C4        1.0  0.98840  0.60090  0.19910  1.0000
  C   C5        1.0  0.98840  0.89910  0.69910  1.0000
  C   C6        1.0  0.51160  0.89910  0.30090  1.0000
  C   C7        1.0  0.48840  0.39910  0.19910  1.0000
  C   C8        1.0  0.01160  0.39910  0.80090  1.0000
  H   H1        1.0  0.99253  0.11125  0.34041  1.0000
  H   H2        1.0  0.50747  0.11125  0.65959  1.0000
  H   H3        1.0  0.49253  0.61125  0.84041  1.0000
  H   H4        1.0  0.00747  0.61125  0.15959  1.0000
  H   H5        1.0  0.00747  0.88875  0.65959  1.0000
  H   H6        1.0  0.49253  0.88875  0.34041  1.0000
  H   H7        1.0  0.50747  0.38875  0.15959  1.0000
  H   H8        1.0  0.99253  0.38875  0.84041  1.0000
  C   C9        1.0  0.85040  0.33380  0.02840  1.0000
  C   C10       1.0  0.64960  0.33380  0.97160  1.0000
  C   C11       1.0  0.35040  0.83380  0.52840  1.0000
  C   C12       1.0  0.14960  0.83380  0.47160  1.0000
  C   C13       1.0  0.14960  0.66620  0.97160  1.0000
  C   C14       1.0  0.35040  0.66620  0.02840  1.0000
  C   C15       1.0  0.64960  0.16620  0.47160  1.0000
  C   C16       1.0  0.85040  0.16620  0.52840  1.0000
  H   H9        1.0  0.81136  0.36624  0.03555  1.0000
  H   H10       1.0  0.68864  0.36624  0.96445  1.0000
  H   H11       1.0  0.31136  0.86624  0.53555  1.0000
  H   H12       1.0  0.18864  0.86624  0.46445  1.0000
  H   H13       1.0  0.18864  0.63376  0.96445  1.0000
  H   H14       1.0  0.31136  0.63376  0.03555  1.0000
  H   H15       1.0  0.68864  0.13376  0.46445  1.0000
  H   H16       1.0  0.81136  0.13376  0.53555  1.0000
  C   C17       1.0  0.85890  0.24970  0.05240  1.0000
  C   C18       1.0  0.64110  0.24970  0.94760  1.0000
  C   C19       1.0  0.35890  0.74970  0.55240  1.0000
  C   C20       1.0  0.14110  0.74970  0.44760  1.0000
  C   C21       1.0  0.14110  0.75030  0.94760  1.0000
  C   C22       1.0  0.35890  0.75030  0.05240  1.0000
  C   C23       1.0  0.64110  0.25030  0.44760  1.0000
  C   C24       1.0  0.85890  0.25030  0.55240  1.0000
  H   H17       1.0  0.82464  0.22727  0.07543  1.0000
  H   H18       1.0  0.67536  0.22727  0.92457  1.0000
  H   H19       1.0  0.32464  0.72727  0.57543  1.0000
  H   H20       1.0  0.17536  0.72727  0.42457  1.0000
  H   H21       1.0  0.17536  0.77273  0.92457  1.0000
  H   H22       1.0  0.32464  0.77273  0.07543  1.0000
  H   H23       1.0  0.67536  0.27273  0.42457  1.0000
  H   H24       1.0  0.82464  0.27273  0.57543  1.0000
  C   C25       1.0  0.70290  0.77380  0.09040  1.0000
  C   C26       1.0  0.79710  0.77380  0.90960  1.0000
  C   C27       1.0  0.20290  0.27380  0.59040  1.0000
  C   C28       1.0  0.29710  0.27380  0.40960  1.0000
  C   C29       1.0  0.29710  0.22620  0.90960  1.0000
  C   C30       1.0  0.20290  0.22620  0.09040  1.0000
  C   C31       1.0  0.79710  0.72620  0.40960  1.0000
  C   C32       1.0  0.70290  0.72620  0.59040  1.0000
  C   C33       1.0  0.06110  0.07470  0.18400  1.0000
  C   C34       1.0  0.43890  0.07470  0.81600  1.0000
  C   C35       1.0  0.56110  0.57470  0.68400  1.0000
  C   C36       1.0  0.93890  0.57470  0.31600  1.0000
  C   C37       1.0  0.93890  0.92530  0.81600  1.0000
  C   C38       1.0  0.56110  0.92530  0.18400  1.0000
  C   C39       1.0  0.43890  0.42530  0.31600  1.0000
  C   C40       1.0  0.06110  0.42530  0.68400  1.0000
  H   H25       1.0  0.07926  0.06729  0.14366  1.0000
  H   H26       1.0  0.42074  0.06729  0.85634  1.0000
  H   H27       1.0  0.57926  0.56729  0.64366  1.0000
  H   H28       1.0  0.92074  0.56729  0.35634  1.0000
  H   H29       1.0  0.92074  0.93271  0.85634  1.0000
  H   H30       1.0  0.57926  0.93271  0.14366  1.0000
  H   H31       1.0  0.42074  0.43271  0.35634  1.0000
  H   H32       1.0  0.07926  0.43271  0.64366  1.0000
  C   C41       1.0  0.13740  0.08720  0.37760  1.0000
  C   C42       1.0  0.36260  0.08720  0.62240  1.0000
  C   C43       1.0  0.63740  0.58720  0.87760  1.0000
  C   C44       1.0  0.86260  0.58720  0.12240  1.0000
  C   C45       1.0  0.86260  0.91280  0.62240  1.0000
  C   C46       1.0  0.63740  0.91280  0.37760  1.0000
  C   C47       1.0  0.36260  0.41280  0.12240  1.0000
  C   C48       1.0  0.13740  0.41280  0.87760  1.0000
  C   C49       1.0  0.88750  0.45710  0.96030  1.0000
  C   C50       1.0  0.61250  0.45710  0.03970  1.0000
  C   C51       1.0  0.38750  0.95710  0.46030  1.0000
  C   C52       1.0  0.11250  0.95710  0.53970  1.0000
  C   C53       1.0  0.11250  0.54290  0.03970  1.0000
  C   C54       1.0  0.38750  0.54290  0.96030  1.0000
  C   C55       1.0  0.61250  0.04290  0.53970  1.0000
  C   C56       1.0  0.88750  0.04290  0.46030  1.0000
  C   C57       1.0  0.73330  0.93200  0.08990  1.0000
  C   C58       1.0  0.76670  0.93200  0.91010  1.0000
  C   C59       1.0  0.23330  0.43200  0.58990  1.0000
  C   C60       1.0  0.26670  0.43200  0.41010  1.0000
  C   C61       1.0  0.26670  0.06800  0.91010  1.0000
  C   C62       1.0  0.23330  0.06800  0.08990  1.0000
  C   C63       1.0  0.76670  0.56800  0.41010  1.0000
  C   C64       1.0  0.73330  0.56800  0.58990  1.0000
  H   H33       1.0  0.68574  0.94417  0.09202  1.0000
  H   H34       1.0  0.81426  0.94417  0.90798  1.0000
  H   H35       1.0  0.18574  0.44417  0.59202  1.0000
  H   H36       1.0  0.31426  0.44417  0.40798  1.0000
  H   H37       1.0  0.31426  0.05583  0.90798  1.0000
  H   H38       1.0  0.18574  0.05583  0.09202  1.0000
  H   H39       1.0  0.81426  0.55583  0.40798  1.0000
  H   H40       1.0  0.68574  0.55583  0.59202  1.0000
  C   C65       1.0  0.87320  0.90200  0.08570  1.0000
  C   C66       1.0  0.62680  0.90200  0.91430  1.0000
  C   C67       1.0  0.37320  0.40200  0.58570  1.0000
  C   C68       1.0  0.12680  0.40200  0.41430  1.0000
  C   C69       1.0  0.12680  0.09800  0.91430  1.0000
  C   C70       1.0  0.37320  0.09800  0.08570  1.0000
  C   C71       1.0  0.62680  0.59800  0.41430  1.0000
  C   C72       1.0  0.87320  0.59800  0.58570  1.0000
  H   H41       1.0  0.92118  0.89175  0.08448  1.0000
  H   H42       1.0  0.57882  0.89175  0.91552  1.0000
  H   H43       1.0  0.42118  0.39175  0.58448  1.0000
  H   H44       1.0  0.07882  0.39175  0.41552  1.0000
  H   H45       1.0  0.07882  0.10825  0.91552  1.0000
  H   H46       1.0  0.42118  0.10825  0.08448  1.0000
  H   H47       1.0  0.57882  0.60825  0.41552  1.0000
  H   H48       1.0  0.92118  0.60825  0.58448  1.0000
  C   C73       1.0  0.75660  0.84720  0.08990  1.0000
  C   C74       1.0  0.74340  0.84720  0.91010  1.0000
  C   C75       1.0  0.25660  0.34720  0.58990  1.0000
  C   C76       1.0  0.24340  0.34720  0.41010  1.0000
  C   C77       1.0  0.24340  0.15280  0.91010  1.0000
  C   C78       1.0  0.25660  0.15280  0.08990  1.0000
  C   C79       1.0  0.74340  0.65280  0.41010  1.0000
  C   C80       1.0  0.75660  0.65280  0.58990  1.0000
  C   C81       1.0  0.96380  0.23540  0.01390  1.0000
  C   C82       1.0  0.53620  0.23540  0.98610  1.0000
  C   C83       1.0  0.46380  0.73540  0.51390  1.0000
  C   C84       1.0  0.03620  0.73540  0.48610  1.0000
  C   C85       1.0  0.03620  0.76460  0.98610  1.0000
  C   C86       1.0  0.46380  0.76460  0.01390  1.0000
  C   C87       1.0  0.53620  0.26460  0.48610  1.0000
  C   C88       1.0  0.96380  0.26460  0.51390  1.0000
  H   H49       1.0  0.00391  0.20327  0.00962  1.0000
  H   H50       1.0  0.49609  0.20327  0.99038  1.0000
  H   H51       1.0  0.50391  0.70327  0.50962  1.0000
  H   H52       1.0  0.99609  0.70327  0.49038  1.0000
  H   H53       1.0  0.99609  0.79673  0.99038  1.0000
  H   H54       1.0  0.50391  0.79673  0.00962  1.0000
  H   H55       1.0  0.49609  0.29673  0.49038  1.0000
  H   H56       1.0  0.00391  0.29673  0.50962  1.0000
  C   C89       1.0  0.96620  0.09810  0.23560  1.0000
  C   C90       1.0  0.53380  0.09810  0.76440  1.0000
  C   C91       1.0  0.46620  0.59810  0.73560  1.0000
  C   C92       1.0  0.03380  0.59810  0.26440  1.0000
  C   C93       1.0  0.03380  0.90190  0.76440  1.0000
  C   C94       1.0  0.46620  0.90190  0.23560  1.0000
  C   C95       1.0  0.53380  0.40190  0.26440  1.0000
  C   C96       1.0  0.96620  0.40190  0.73560  1.0000
  H   H57       1.0  0.91716  0.10596  0.23287  1.0000
  H   H58       1.0  0.58284  0.10596  0.76713  1.0000
  H   H59       1.0  0.41716  0.60596  0.73287  1.0000
  H   H60       1.0  0.08284  0.60596  0.26713  1.0000
  H   H61       1.0  0.08284  0.89404  0.76713  1.0000
  H   H62       1.0  0.41716  0.89404  0.23287  1.0000
  H   H63       1.0  0.58284  0.39404  0.26713  1.0000
  H   H64       1.0  0.91716  0.39404  0.73287  1.0000
  C   C97       1.0  0.78140  0.99780  0.08690  1.0000
  C   C98       1.0  0.71860  0.99780  0.91310  1.0000
  C   C99       1.0  0.28140  0.49780  0.58690  1.0000
  C   C100      1.0  0.21860  0.49780  0.41310  1.0000
  C   C101      1.0  0.21860  0.00220  0.91310  1.0000
  C   C102      1.0  0.28140  0.00220  0.08690  1.0000
  C   C103      1.0  0.71860  0.50220  0.41310  1.0000
  C   C104      1.0  0.78140  0.50220  0.58690  1.0000
  H   H65       1.0  0.76486  0.05404  0.08629  1.0000
  H   H66       1.0  0.73514  0.05404  0.91371  1.0000
  H   H67       1.0  0.26486  0.55404  0.58629  1.0000
  H   H68       1.0  0.23514  0.55404  0.41371  1.0000
  H   H69       1.0  0.23514  0.94596  0.91371  1.0000
  H   H70       1.0  0.26486  0.94596  0.08629  1.0000
  H   H71       1.0  0.73514  0.44596  0.41371  1.0000
  H   H72       1.0  0.76486  0.44596  0.58629  1.0000
  C   C105      1.0  0.95850  0.31910  0.98860  1.0000
  C   C106      1.0  0.54150  0.31910  0.01140  1.0000
  C   C107      1.0  0.45850  0.81910  0.48860  1.0000
  C   C108      1.0  0.04150  0.81910  0.51140  1.0000
  C   C109      1.0  0.04150  0.68090  0.01140  1.0000
  C   C110      1.0  0.45850  0.68090  0.98860  1.0000
  C   C111      1.0  0.54150  0.18090  0.51140  1.0000
  C   C112      1.0  0.95850  0.18090  0.48860  1.0000
  H   H73       1.0  0.99459  0.34139  0.96788  1.0000
  H   H74       1.0  0.50541  0.34139  0.03212  1.0000
  H   H75       1.0  0.49459  0.84139  0.46788  1.0000
  H   H76       1.0  0.00541  0.84139  0.53212  1.0000
  H   H77       1.0  0.00541  0.65861  0.03212  1.0000
  H   H78       1.0  0.49459  0.65861  0.96788  1.0000
  H   H79       1.0  0.50541  0.15861  0.53212  1.0000
  H   H80       1.0  0.99459  0.15861  0.46788  1.0000
  C   C113      1.0  0.90020  0.36890  0.99400  1.0000
  C   C114      1.0  0.59980  0.36890  0.00600  1.0000
  C   C115      1.0  0.40020  0.86890  0.49400  1.0000
  C   C116      1.0  0.09980  0.86890  0.50600  1.0000
  C   C117      1.0  0.09980  0.63110  0.00600  1.0000
  C   C118      1.0  0.40020  0.63110  0.99400  1.0000
  C   C119      1.0  0.59980  0.13110  0.50600  1.0000
  C   C120      1.0  0.90020  0.13110  0.49400  1.0000
  C   C121      1.0  0.10870  0.07490  0.24730  1.0000
  C   C122      1.0  0.39130  0.07490  0.75270  1.0000
  C   C123      1.0  0.60870  0.57490  0.74730  1.0000
  C   C124      1.0  0.89130  0.57490  0.25270  1.0000
  C   C125      1.0  0.89130  0.92510  0.75270  1.0000
  C   C126      1.0  0.60870  0.92510  0.24730  1.0000
  C   C127      1.0  0.39130  0.42510  0.25270  1.0000
  C   C128      1.0  0.10870  0.42510  0.74730  1.0000
  H   H81       1.0  0.15745  0.06576  0.24914  1.0000
  H   H82       1.0  0.34255  0.06576  0.75086  1.0000
  H   H83       1.0  0.65745  0.56576  0.74914  1.0000
  H   H84       1.0  0.84255  0.56576  0.25086  1.0000
  H   H85       1.0  0.84255  0.93424  0.75086  1.0000
  H   H86       1.0  0.65745  0.93424  0.24914  1.0000
  H   H87       1.0  0.34255  0.43424  0.25086  1.0000
  H   H88       1.0  0.15745  0.43424  0.74914  1.0000
  C   C129      1.0  0.08390  0.08870  0.30780  1.0000
  C   C130      1.0  0.41610  0.08870  0.69220  1.0000
  C   C131      1.0  0.58390  0.58870  0.80780  1.0000
  C   C132      1.0  0.91610  0.58870  0.19220  1.0000
  C   C133      1.0  0.91610  0.91130  0.69220  1.0000
  C   C134      1.0  0.58390  0.91130  0.30780  1.0000
  C   C135      1.0  0.41610  0.41130  0.19220  1.0000
  C   C136      1.0  0.08390  0.41130  0.80780  1.0000
  C   C137      1.0  0.82890  0.83330  0.08820  1.0000
  C   C138      1.0  0.67110  0.83330  0.91180  1.0000
  C   C139      1.0  0.32890  0.33330  0.58820  1.0000
  C   C140      1.0  0.17110  0.33330  0.41180  1.0000
  C   C141      1.0  0.17110  0.16670  0.91180  1.0000
  C   C142      1.0  0.32890  0.16670  0.08820  1.0000
  C   C143      1.0  0.67110  0.66670  0.41180  1.0000
  C   C144      1.0  0.82890  0.66670  0.58820  1.0000
  H   H89       1.0  0.84689  0.77779  0.08885  1.0000
  H   H90       1.0  0.65311  0.77779  0.91115  1.0000
  H   H91       1.0  0.34689  0.27779  0.58885  1.0000
  H   H92       1.0  0.15311  0.27779  0.41115  1.0000
  H   H93       1.0  0.15311  0.22221  0.91115  1.0000
  H   H94       1.0  0.34689  0.22221  0.08885  1.0000
  H   H95       1.0  0.65311  0.72221  0.41115  1.0000
  H   H96       1.0  0.84689  0.72221  0.58885  1.0000
