data_image0
_chemical_formula_structural       C12H4C16H4C4H4C16H4C16H4C4H4C24H4C16H4C4H4C16H4C16H4C4H4C12Ni16O68H4O4H4O4H8O4H8
_chemical_formula_sum              "C160 H72 Ni16 O80"
_cell_length_a       14.0702
_cell_length_b       19.5904
_cell_length_c       21.0485
_cell_angle_alpha    90
_cell_angle_beta     92.309
_cell_angle_gamma    90

_space_group_name_H-M_alt    "P 1"
_space_group_IT_number       1

loop_
  _space_group_symop_operation_xyz
  'x, y, z'

loop_
  _atom_site_type_symbol
  _atom_site_label
  _atom_site_symmetry_multiplicity
  _atom_site_fract_x
  _atom_site_fract_y
  _atom_site_fract_z
  _atom_site_occupancy
  C   C1        1.0  0.70930  0.05190  0.75570  1.0000
  C   C2        1.0  0.79070  0.55190  0.74430  1.0000
  C   C3        1.0  0.29070  0.94810  0.24430  1.0000
  C   C4        1.0  0.20930  0.44810  0.25570  1.0000
  C   C5        1.0  0.81330  0.05570  0.74190  1.0000
  C   C6        1.0  0.68670  0.55570  0.75810  1.0000
  C   C7        1.0  0.18670  0.94430  0.25810  1.0000
  C   C8        1.0  0.31330  0.44430  0.24190  1.0000
  C   C9        1.0  0.85040  0.12050  0.74080  1.0000
  C   C10       1.0  0.64960  0.62050  0.75920  1.0000
  C   C11       1.0  0.14960  0.87950  0.25920  1.0000
  C   C12       1.0  0.35040  0.37950  0.24080  1.0000
  H   H1        1.0  0.80920  0.15880  0.74360  1.0000
  H   H2        1.0  0.69080  0.65880  0.75640  1.0000
  H   H3        1.0  0.19080  0.84120  0.25640  1.0000
  H   H4        1.0  0.30920  0.34120  0.24360  1.0000
  C   C13       1.0  0.94710  0.13082  0.73570  1.0000
  C   C14       1.0  0.55290  0.63082  0.76430  1.0000
  C   C15       1.0  0.05290  0.86918  0.26430  1.0000
  C   C16       1.0  0.44710  0.36918  0.23570  1.0000
  C   C17       1.0  0.97980  0.20330  0.74199  1.0000
  C   C18       1.0  0.52020  0.70330  0.75801  1.0000
  C   C19       1.0  0.02020  0.79670  0.25801  1.0000
  C   C20       1.0  0.47980  0.29670  0.24199  1.0000
  C   C21       1.0  0.00820  0.07470  0.72790  1.0000
  C   C22       1.0  0.49180  0.57470  0.77210  1.0000
  C   C23       1.0  0.99180  0.92530  0.27210  1.0000
  C   C24       1.0  0.50820  0.42530  0.22790  1.0000
  C   C25       1.0  0.10770  0.08140  0.72060  1.0000
  C   C26       1.0  0.39230  0.58140  0.77940  1.0000
  C   C27       1.0  0.89230  0.91860  0.27940  1.0000
  C   C28       1.0  0.60770  0.41860  0.22060  1.0000
  H   H5        1.0  0.13490  0.12580  0.71980  1.0000
  H   H6        1.0  0.36510  0.62580  0.78020  1.0000
  H   H7        1.0  0.86510  0.87420  0.28020  1.0000
  H   H8        1.0  0.63490  0.37420  0.21980  1.0000
  C   C29       1.0  0.16460  0.02680  0.71500  1.0000
  C   C30       1.0  0.33540  0.52680  0.78500  1.0000
  C   C31       1.0  0.83540  0.97320  0.28500  1.0000
  C   C32       1.0  0.66460  0.47320  0.21500  1.0000
  H   H9        1.0  0.23060  0.03400  0.70970  1.0000
  H   H10       1.0  0.26940  0.53400  0.79030  1.0000
  H   H11       1.0  0.76940  0.96600  0.29030  1.0000
  H   H12       1.0  0.73060  0.46600  0.20970  1.0000
  C   C33       1.0  0.12980  0.95850  0.71650  1.0000
  C   C34       1.0  0.37020  0.45850  0.78350  1.0000
  C   C35       1.0  0.87020  0.04150  0.28350  1.0000
  C   C36       1.0  0.62980  0.54150  0.21650  1.0000
  C   C37       1.0  0.18940  0.89960  0.71554  1.0000
  C   C38       1.0  0.31060  0.39960  0.78446  1.0000
  C   C39       1.0  0.81060  0.10040  0.28446  1.0000
  C   C40       1.0  0.68940  0.60040  0.21554  1.0000
  C   C41       1.0  0.29610  0.90264  0.71276  1.0000
  C   C42       1.0  0.20390  0.40264  0.78724  1.0000
  C   C43       1.0  0.70390  0.09736  0.28724  1.0000
  C   C44       1.0  0.79610  0.59736  0.21276  1.0000
  C   C45       1.0  0.14920  0.83570  0.71932  1.0000
  C   C46       1.0  0.35080  0.33570  0.78068  1.0000
  C   C47       1.0  0.85080  0.16430  0.28068  1.0000
  C   C48       1.0  0.64920  0.66430  0.21932  1.0000
  H   H13       1.0  0.19020  0.79720  0.71980  1.0000
  H   H14       1.0  0.30980  0.29720  0.78020  1.0000
  H   H15       1.0  0.80980  0.20280  0.28020  1.0000
  H   H16       1.0  0.69020  0.70280  0.21980  1.0000
  C   C49       1.0  0.05170  0.82455  0.72240  1.0000
  C   C50       1.0  0.44830  0.32455  0.77760  1.0000
  C   C51       1.0  0.94830  0.17545  0.27760  1.0000
  C   C52       1.0  0.55170  0.67545  0.22240  1.0000
  C   C53       1.0  0.01860  0.75130  0.73055  1.0000
  C   C54       1.0  0.48140  0.25130  0.76945  1.0000
  C   C55       1.0  0.98140  0.24870  0.26945  1.0000
  C   C56       1.0  0.51860  0.74870  0.23055  1.0000
  C   C57       1.0  0.99010  0.88220  0.72260  1.0000
  C   C58       1.0  0.50990  0.38220  0.77740  1.0000
  C   C59       1.0  0.00990  0.11780  0.27740  1.0000
  C   C60       1.0  0.49010  0.61780  0.22260  1.0000
  C   C61       1.0  0.89000  0.87550  0.72380  1.0000
  C   C62       1.0  0.61000  0.37550  0.77620  1.0000
  C   C63       1.0  0.11000  0.12450  0.27620  1.0000
  C   C64       1.0  0.39000  0.62450  0.22380  1.0000
  H   H17       1.0  0.86220  0.83130  0.72070  1.0000
  H   H18       1.0  0.63780  0.33130  0.77930  1.0000
  H   H19       1.0  0.13780  0.16870  0.27930  1.0000
  H   H20       1.0  0.36220  0.66870  0.22070  1.0000
  C   C65       1.0  0.83320  0.93030  0.72920  1.0000
  C   C66       1.0  0.66680  0.43030  0.77080  1.0000
  C   C67       1.0  0.16680  0.06970  0.27080  1.0000
  C   C68       1.0  0.33320  0.56970  0.22920  1.0000
  H   H21       1.0  0.76640  0.92390  0.73050  1.0000
  H   H22       1.0  0.73360  0.42390  0.76950  1.0000
  H   H23       1.0  0.23360  0.07610  0.26950  1.0000
  H   H24       1.0  0.26640  0.57610  0.23050  1.0000
  C   C69       1.0  0.87140  0.99860  0.73310  1.0000
  C   C70       1.0  0.62860  0.49860  0.76690  1.0000
  C   C71       1.0  0.12860  0.00140  0.26690  1.0000
  C   C72       1.0  0.37140  0.50140  0.23310  1.0000
  C   C73       1.0  0.96930  0.00720  0.72660  1.0000
  C   C74       1.0  0.53070  0.50720  0.77340  1.0000
  C   C75       1.0  0.03070  0.99280  0.27340  1.0000
  C   C76       1.0  0.46930  0.49280  0.22660  1.0000
  C   C77       1.0  0.03060  0.94880  0.72170  1.0000
  C   C78       1.0  0.46940  0.44880  0.77830  1.0000
  C   C79       1.0  0.96940  0.05120  0.27830  1.0000
  C   C80       1.0  0.53060  0.55120  0.22170  1.0000
  C   C81       1.0  0.58960  0.10063  0.89575  1.0000
  C   C82       1.0  0.91040  0.60063  0.60425  1.0000
  C   C83       1.0  0.41040  0.89937  0.10425  1.0000
  C   C84       1.0  0.08960  0.39937  0.39575  1.0000
  C   C85       1.0  0.63520  0.13230  0.95471  1.0000
  C   C86       1.0  0.86480  0.63230  0.54529  1.0000
  C   C87       1.0  0.36480  0.86770  0.04529  1.0000
  C   C88       1.0  0.13520  0.36770  0.45471  1.0000
  C   C89       1.0  0.60170  0.11240  0.01340  1.0000
  C   C90       1.0  0.89830  0.61240  0.48660  1.0000
  C   C91       1.0  0.39830  0.88760  0.98660  1.0000
  C   C92       1.0  0.10170  0.38760  0.51340  1.0000
  H   H25       1.0  0.55770  0.07580  0.01520  1.0000
  H   H26       1.0  0.94230  0.57580  0.48480  1.0000
  H   H27       1.0  0.44230  0.92420  0.98480  1.0000
  H   H28       1.0  0.05770  0.42420  0.51520  1.0000
  C   C93       1.0  0.63150  0.14520  0.06903  1.0000
  C   C94       1.0  0.86850  0.64520  0.43097  1.0000
  C   C95       1.0  0.36850  0.85480  0.93097  1.0000
  C   C96       1.0  0.13150  0.35480  0.56903  1.0000
  C   C97       1.0  0.58130  0.12580  0.12825  1.0000
  C   C98       1.0  0.91870  0.62580  0.37175  1.0000
  C   C99       1.0  0.41870  0.87420  0.87175  1.0000
  C   C100      1.0  0.08130  0.37420  0.62825  1.0000
  C   C101      1.0  0.70240  0.19570  0.06880  1.0000
  C   C102      1.0  0.79760  0.69570  0.43120  1.0000
  C   C103      1.0  0.29760  0.80430  0.93120  1.0000
  C   C104      1.0  0.20240  0.30430  0.56880  1.0000
  C   C105      1.0  0.73760  0.22950  0.12591  1.0000
  C   C106      1.0  0.76240  0.72950  0.37409  1.0000
  C   C107      1.0  0.26240  0.77050  0.87409  1.0000
  C   C108      1.0  0.23760  0.27050  0.62591  1.0000
  H   H29       1.0  0.71190  0.21750  0.16540  1.0000
  H   H30       1.0  0.78810  0.71750  0.33460  1.0000
  H   H31       1.0  0.28810  0.78250  0.83460  1.0000
  H   H32       1.0  0.21190  0.28250  0.66540  1.0000
  C   C109      1.0  0.80610  0.27770  0.12473  1.0000
  C   C110      1.0  0.69390  0.77770  0.37527  1.0000
  C   C111      1.0  0.19390  0.72230  0.87527  1.0000
  C   C112      1.0  0.30610  0.22230  0.62473  1.0000
  H   H33       1.0  0.82780  0.29910  0.16310  1.0000
  H   H34       1.0  0.67220  0.79910  0.33690  1.0000
  H   H35       1.0  0.17220  0.70090  0.83690  1.0000
  H   H36       1.0  0.32780  0.20090  0.66310  1.0000
  C   C113      1.0  0.84620  0.29662  0.06588  1.0000
  C   C114      1.0  0.65380  0.79662  0.43412  1.0000
  C   C115      1.0  0.15380  0.70338  0.93412  1.0000
  C   C116      1.0  0.34620  0.20338  0.56588  1.0000
  C   C117      1.0  0.91420  0.34968  0.06301  1.0000
  C   C118      1.0  0.58580  0.84968  0.43699  1.0000
  C   C119      1.0  0.08580  0.65032  0.93699  1.0000
  C   C120      1.0  0.41420  0.15032  0.56301  1.0000
  C   C121      1.0  0.94700  0.38857  0.12119  1.0000
  C   C122      1.0  0.55300  0.88857  0.37881  1.0000
  C   C123      1.0  0.05300  0.61143  0.87881  1.0000
  C   C124      1.0  0.44700  0.11143  0.62119  1.0000
  C   C125      1.0  0.95320  0.36711  0.00569  1.0000
  C   C126      1.0  0.54680  0.86711  0.49431  1.0000
  C   C127      1.0  0.04680  0.63289  0.99431  1.0000
  C   C128      1.0  0.45320  0.13289  0.50569  1.0000
  H   H37       1.0  0.99740  0.40370  0.00460  1.0000
  H   H38       1.0  0.50260  0.90370  0.49540  1.0000
  H   H39       1.0  0.00260  0.59630  0.99540  1.0000
  H   H40       1.0  0.49740  0.09630  0.50460  1.0000
  C   C129      1.0  0.92890  0.33230  0.94985  1.0000
  C   C130      1.0  0.57110  0.83230  0.55015  1.0000
  C   C131      1.0  0.07110  0.66770  0.05015  1.0000
  C   C132      1.0  0.42890  0.16770  0.44985  1.0000
  C   C133      1.0  0.97780  0.35510  0.89094  1.0000
  C   C134      1.0  0.52220  0.85510  0.60906  1.0000
  C   C135      1.0  0.02220  0.64490  0.10906  1.0000
  C   C136      1.0  0.47780  0.14490  0.39094  1.0000
  C   C137      1.0  0.85800  0.28114  0.94973  1.0000
  C   C138      1.0  0.64200  0.78114  0.55027  1.0000
  C   C139      1.0  0.14200  0.71886  0.05027  1.0000
  C   C140      1.0  0.35800  0.21886  0.44973  1.0000
  C   C141      1.0  0.82170  0.24790  0.89295  1.0000
  C   C142      1.0  0.67830  0.74790  0.60705  1.0000
  C   C143      1.0  0.17830  0.75210  0.10705  1.0000
  C   C144      1.0  0.32170  0.25210  0.39295  1.0000
  H   H41       1.0  0.84860  0.25860  0.85350  1.0000
  H   H42       1.0  0.65140  0.75860  0.64650  1.0000
  H   H43       1.0  0.15140  0.74140  0.14650  1.0000
  H   H44       1.0  0.34860  0.24140  0.35350  1.0000
  C   C145      1.0  0.74960  0.20140  0.89404  1.0000
  C   C146      1.0  0.75040  0.70140  0.60596  1.0000
  C   C147      1.0  0.25040  0.79860  0.10596  1.0000
  C   C148      1.0  0.24960  0.29860  0.39404  1.0000
  H   H45       1.0  0.72700  0.18130  0.85520  1.0000
  H   H46       1.0  0.77300  0.68130  0.64480  1.0000
  H   H47       1.0  0.27300  0.81870  0.14480  1.0000
  H   H48       1.0  0.22700  0.31870  0.35520  1.0000
  C   C149      1.0  0.70700  0.18190  0.95225  1.0000
  C   C150      1.0  0.79300  0.68190  0.54775  1.0000
  C   C151      1.0  0.29300  0.81810  0.04775  1.0000
  C   C152      1.0  0.20700  0.31810  0.45225  1.0000
  C   C153      1.0  0.74290  0.21310  0.00965  1.0000
  C   C154      1.0  0.75710  0.71310  0.49035  1.0000
  C   C155      1.0  0.25710  0.78690  0.99035  1.0000
  C   C156      1.0  0.24290  0.28690  0.50965  1.0000
  C   C157      1.0  0.81650  0.26380  0.00857  1.0000
  C   C158      1.0  0.68350  0.76380  0.49143  1.0000
  C   C159      1.0  0.18350  0.73620  0.99143  1.0000
  C   C160      1.0  0.31650  0.23620  0.50857  1.0000
  Ni  Ni1       1.0  0.55203  0.97498  0.82318  1.0000
  Ni  Ni2       1.0  0.94797  0.47498  0.67682  1.0000
  Ni  Ni3       1.0  0.44797  0.02502  0.17682  1.0000
  Ni  Ni4       1.0  0.05203  0.52502  0.32318  1.0000
  Ni  Ni5       1.0  0.52956  0.13167  0.75782  1.0000
  Ni  Ni6       1.0  0.97044  0.63167  0.74218  1.0000
  Ni  Ni7       1.0  0.47044  0.86833  0.24218  1.0000
  Ni  Ni8       1.0  0.02956  0.36833  0.25782  1.0000
  Ni  Ni9       1.0  0.02718  0.32268  0.75584  1.0000
  Ni  Ni10      1.0  0.47282  0.82268  0.74416  1.0000
  Ni  Ni11      1.0  0.97282  0.67732  0.24416  1.0000
  Ni  Ni12      1.0  0.52718  0.17732  0.25584  1.0000
  Ni  Ni13      1.0  0.02429  0.47751  0.81505  1.0000
  Ni  Ni14      1.0  0.47571  0.97751  0.68495  1.0000
  Ni  Ni15      1.0  0.97571  0.52249  0.18495  1.0000
  Ni  Ni16      1.0  0.52429  0.02249  0.31505  1.0000
  O   O1        1.0  0.68260  0.00661  0.79406  1.0000
  O   O2        1.0  0.81740  0.50661  0.70594  1.0000
  O   O3        1.0  0.31740  0.99339  0.20594  1.0000
  O   O4        1.0  0.18260  0.49339  0.29406  1.0000
  O   O5        1.0  0.65710  0.09640  0.73049  1.0000
  O   O6        1.0  0.84290  0.59640  0.76951  1.0000
  O   O7        1.0  0.34290  0.90360  0.26951  1.0000
  O   O8        1.0  0.15710  0.40360  0.23049  1.0000
  O   O9        1.0  0.91810  0.25060  0.73452  1.0000
  O   O10       1.0  0.58190  0.75060  0.76548  1.0000
  O   O11       1.0  0.08190  0.74940  0.26548  1.0000
  O   O12       1.0  0.41810  0.24940  0.23452  1.0000
  O   O13       1.0  0.06440  0.21815  0.75643  1.0000
  O   O14       1.0  0.43560  0.71815  0.74357  1.0000
  O   O15       1.0  0.93560  0.78185  0.24357  1.0000
  O   O16       1.0  0.56440  0.28185  0.25643  1.0000
  O   O17       1.0  0.33660  0.95527  0.69483  1.0000
  O   O18       1.0  0.16340  0.45527  0.80517  1.0000
  O   O19       1.0  0.66340  0.04473  0.30517  1.0000
  O   O20       1.0  0.83660  0.54473  0.19483  1.0000
  O   O21       1.0  0.33860  0.84914  0.72924  1.0000
  O   O22       1.0  0.16140  0.34914  0.77076  1.0000
  O   O23       1.0  0.66140  0.15086  0.27076  1.0000
  O   O24       1.0  0.83860  0.65086  0.22924  1.0000
  O   O25       1.0  0.07790  0.70419  0.71965  1.0000
  O   O26       1.0  0.42210  0.20419  0.78035  1.0000
  O   O27       1.0  0.92210  0.29581  0.28035  1.0000
  O   O28       1.0  0.57790  0.79581  0.21965  1.0000
  O   O29       1.0  0.93650  0.73782  0.74751  1.0000
  O   O30       1.0  0.56350  0.23782  0.75249  1.0000
  O   O31       1.0  0.06350  0.26218  0.25249  1.0000
  O   O32       1.0  0.43650  0.76218  0.24751  1.0000
  O   O33       1.0  0.57420  0.13878  0.84981  1.0000
  O   O34       1.0  0.92580  0.63878  0.65019  1.0000
  O   O35       1.0  0.42580  0.86122  0.15019  1.0000
  O   O36       1.0  0.07420  0.36122  0.34981  1.0000
  O   O37       1.0  0.56790  0.03864  0.89892  1.0000
  O   O38       1.0  0.93210  0.53864  0.60108  1.0000
  O   O39       1.0  0.43210  0.96136  0.10108  1.0000
  O   O40       1.0  0.06790  0.46136  0.39892  1.0000
  O   O41       1.0  0.56960  0.06418  0.13958  1.0000
  O   O42       1.0  0.93040  0.56418  0.36042  1.0000
  O   O43       1.0  0.43040  0.93582  0.86042  1.0000
  O   O44       1.0  0.06960  0.43582  0.63958  1.0000
  O   O45       1.0  0.54990  0.17583  0.16063  1.0000
  O   O46       1.0  0.95010  0.67583  0.33937  1.0000
  O   O47       1.0  0.45010  0.82417  0.83937  1.0000
  O   O48       1.0  0.04990  0.32417  0.66063  1.0000
  O   O49       1.0  0.99120  0.35518  0.16400  1.0000
  O   O50       1.0  0.50880  0.85518  0.33600  1.0000
  O   O51       1.0  0.00880  0.64482  0.83600  1.0000
  O   O52       1.0  0.49120  0.14482  0.66400  1.0000
  O   O53       1.0  0.93180  0.45052  0.12137  1.0000
  O   O54       1.0  0.56820  0.95052  0.37863  1.0000
  O   O55       1.0  0.06820  0.54948  0.87863  1.0000
  O   O56       1.0  0.43180  0.04948  0.62137  1.0000
  O   O57       1.0  0.00200  0.41539  0.88943  1.0000
  O   O58       1.0  0.49800  0.91539  0.61057  1.0000
  O   O59       1.0  0.99800  0.58461  0.11057  1.0000
  O   O60       1.0  0.50200  0.08461  0.38943  1.0000
  O   O61       1.0  0.99650  0.31113  0.84953  1.0000
  O   O62       1.0  0.50350  0.81113  0.65047  1.0000
  O   O63       1.0  0.00350  0.68887  0.15047  1.0000
  O   O64       1.0  0.49650  0.18887  0.34953  1.0000
  O   O65       1.0  0.47407  0.03844  0.76378  1.0000
  O   O66       1.0  0.02593  0.53844  0.73622  1.0000
  O   O67       1.0  0.52593  0.96156  0.23622  1.0000
  O   O68       1.0  0.97407  0.46156  0.26378  1.0000
  H   H49       1.0  0.41730  0.04450  0.77150  1.0000
  H   H50       1.0  0.08270  0.54450  0.72850  1.0000
  H   H51       1.0  0.58270  0.95550  0.22850  1.0000
  H   H52       1.0  0.91730  0.45550  0.27150  1.0000
  O   O69       1.0  0.95887  0.41146  0.75339  1.0000
  O   O70       1.0  0.54113  0.91146  0.74661  1.0000
  O   O71       1.0  0.04113  0.58854  0.24661  1.0000
  O   O72       1.0  0.45887  0.08854  0.25339  1.0000
  H   H53       1.0  0.90370  0.40430  0.76430  1.0000
  H   H54       1.0  0.59630  0.90430  0.73570  1.0000
  H   H55       1.0  0.09630  0.59570  0.23570  1.0000
  H   H56       1.0  0.40370  0.09570  0.26430  1.0000
  O   O73       1.0  0.63100  0.90360  0.87836  1.0000
  O   O74       1.0  0.86900  0.40360  0.62164  1.0000
  O   O75       1.0  0.36900  0.09640  0.12164  1.0000
  O   O76       1.0  0.13100  0.59640  0.37836  1.0000
  H   H57       1.0  0.68560  0.91480  0.86590  1.0000
  H   H58       1.0  0.81440  0.41480  0.63410  1.0000
  H   H59       1.0  0.31440  0.08520  0.13410  1.0000
  H   H60       1.0  0.18560  0.58520  0.36590  1.0000
  H   H61       1.0  0.62250  0.92100  0.91480  1.0000
  H   H62       1.0  0.87750  0.42100  0.58520  1.0000
  H   H63       1.0  0.37750  0.07900  0.08520  1.0000
  H   H64       1.0  0.12250  0.57900  0.41480  1.0000
  O   O77       1.0  0.88820  0.50240  0.85050  1.0000
  O   O78       1.0  0.61180  0.00240  0.64950  1.0000
  O   O79       1.0  0.11180  0.49760  0.14950  1.0000
  O   O80       1.0  0.38820  0.99760  0.35050  1.0000
  H   H65       1.0  0.87780  0.46320  0.86600  1.0000
  H   H66       1.0  0.62220  0.96320  0.63400  1.0000
  H   H67       1.0  0.12220  0.53680  0.13400  1.0000
  H   H68       1.0  0.37780  0.03680  0.36600  1.0000
  H   H69       1.0  0.90930  0.52900  0.87980  1.0000
  H   H70       1.0  0.59070  0.02900  0.62020  1.0000
  H   H71       1.0  0.09070  0.47100  0.12020  1.0000
  H   H72       1.0  0.40930  0.97100  0.37980  1.0000
