data_image0
_chemical_formula_structural       Cd18O36N72C72H18C18O18C18H18O18
_chemical_formula_sum              "Cd18 O72 N72 C108 H36"
_cell_length_a       32.068
_cell_length_b       32.068
_cell_length_c       8.244
_cell_angle_alpha    90
_cell_angle_beta     90
_cell_angle_gamma    120

_space_group_name_H-M_alt    "P 1"
_space_group_IT_number       1

loop_
  _space_group_symop_operation_xyz
  'x, y, z'

loop_
  _atom_site_type_symbol
  _atom_site_label
  _atom_site_symmetry_multiplicity
  _atom_site_fract_x
  _atom_site_fract_y
  _atom_site_fract_z
  _atom_site_occupancy
  Cd  Cd1       1.0  0.32999  0.38802  0.37032  1.0000
  Cd  Cd2       1.0  0.61198  0.94197  0.37032  1.0000
  Cd  Cd3       1.0  0.05803  0.67001  0.37032  1.0000
  Cd  Cd4       1.0  0.99666  0.72135  0.70365  1.0000
  Cd  Cd5       1.0  0.27865  0.27530  0.70365  1.0000
  Cd  Cd6       1.0  0.72470  0.00334  0.70365  1.0000
  Cd  Cd7       1.0  0.66332  0.05469  0.03699  1.0000
  Cd  Cd8       1.0  0.94531  0.60864  0.03699  1.0000
  Cd  Cd9       1.0  0.39136  0.33668  0.03699  1.0000
  Cd  Cd10      1.0  0.67001  0.61198  0.62968  1.0000
  Cd  Cd11      1.0  0.38802  0.05803  0.62968  1.0000
  Cd  Cd12      1.0  0.94197  0.32999  0.62968  1.0000
  Cd  Cd13      1.0  0.00334  0.27865  0.29635  1.0000
  Cd  Cd14      1.0  0.72135  0.72470  0.29635  1.0000
  Cd  Cd15      1.0  0.27530  0.99666  0.29635  1.0000
  Cd  Cd16      1.0  0.33668  0.94531  0.96301  1.0000
  Cd  Cd17      1.0  0.05469  0.39136  0.96301  1.0000
  Cd  Cd18      1.0  0.60864  0.66332  0.96301  1.0000
  O   O1        1.0  0.26870  0.33330  0.54350  1.0000
  O   O2        1.0  0.66670  0.93540  0.54350  1.0000
  O   O3        1.0  0.06460  0.73130  0.54350  1.0000
  O   O4        1.0  0.93537  0.66663  0.87683  1.0000
  O   O5        1.0  0.33337  0.26873  0.87683  1.0000
  O   O6        1.0  0.73127  0.06463  0.87683  1.0000
  O   O7        1.0  0.60203  0.99997  0.21017  1.0000
  O   O8        1.0  0.00003  0.60207  0.21017  1.0000
  O   O9        1.0  0.39793  0.39797  0.21017  1.0000
  O   O10       1.0  0.73130  0.66670  0.45650  1.0000
  O   O11       1.0  0.33330  0.06460  0.45650  1.0000
  O   O12       1.0  0.93540  0.26870  0.45650  1.0000
  O   O13       1.0  0.06463  0.33337  0.12317  1.0000
  O   O14       1.0  0.66663  0.73127  0.12317  1.0000
  O   O15       1.0  0.26873  0.93537  0.12317  1.0000
  O   O16       1.0  0.39797  0.00003  0.78983  1.0000
  O   O17       1.0  0.99997  0.39793  0.78983  1.0000
  O   O18       1.0  0.60207  0.60203  0.78983  1.0000
  O   O19       1.0  0.20850  0.26090  0.54400  1.0000
  O   O20       1.0  0.73910  0.94760  0.54400  1.0000
  O   O21       1.0  0.05240  0.79150  0.54400  1.0000
  O   O22       1.0  0.87517  0.59423  0.87733  1.0000
  O   O23       1.0  0.40577  0.28093  0.87733  1.0000
  O   O24       1.0  0.71907  0.12483  0.87733  1.0000
  O   O25       1.0  0.54183  0.92757  0.21067  1.0000
  O   O26       1.0  0.07243  0.61427  0.21067  1.0000
  O   O27       1.0  0.38573  0.45817  0.21067  1.0000
  O   O28       1.0  0.79150  0.73910  0.45600  1.0000
  O   O29       1.0  0.26090  0.05240  0.45600  1.0000
  O   O30       1.0  0.94760  0.20850  0.45600  1.0000
  O   O31       1.0  0.12483  0.40577  0.12267  1.0000
  O   O32       1.0  0.59423  0.71907  0.12267  1.0000
  O   O33       1.0  0.28093  0.87517  0.12267  1.0000
  O   O34       1.0  0.45817  0.07243  0.78933  1.0000
  O   O35       1.0  0.92757  0.38573  0.78933  1.0000
  O   O36       1.0  0.61427  0.54183  0.78933  1.0000
  N   N1        1.0  0.28090  0.33900  0.17150  1.0000
  N   N2        1.0  0.66100  0.94190  0.17150  1.0000
  N   N3        1.0  0.05810  0.71910  0.17150  1.0000
  N   N4        1.0  0.94757  0.67233  0.50483  1.0000
  N   N5        1.0  0.32767  0.27523  0.50483  1.0000
  N   N6        1.0  0.72477  0.05243  0.50483  1.0000
  N   N7        1.0  0.61423  0.00567  0.83817  1.0000
  N   N8        1.0  0.99433  0.60857  0.83817  1.0000
  N   N9        1.0  0.39143  0.38577  0.83817  1.0000
  N   N10       1.0  0.71910  0.66100  0.82850  1.0000
  N   N11       1.0  0.33900  0.05810  0.82850  1.0000
  N   N12       1.0  0.94190  0.28090  0.82850  1.0000
  N   N13       1.0  0.05243  0.32767  0.49517  1.0000
  N   N14       1.0  0.67233  0.72477  0.49517  1.0000
  N   N15       1.0  0.27523  0.94757  0.49517  1.0000
  N   N16       1.0  0.38577  0.99433  0.16183  1.0000
  N   N17       1.0  0.00567  0.39143  0.16183  1.0000
  N   N18       1.0  0.60857  0.61423  0.16183  1.0000
  N   N19       1.0  0.30010  0.32780  0.04490  1.0000
  N   N20       1.0  0.67220  0.97230  0.04490  1.0000
  N   N21       1.0  0.02770  0.69990  0.04490  1.0000
  N   N22       1.0  0.96677  0.66113  0.37823  1.0000
  N   N23       1.0  0.33887  0.30563  0.37823  1.0000
  N   N24       1.0  0.69437  0.03323  0.37823  1.0000
  N   N25       1.0  0.63343  0.99447  0.71157  1.0000
  N   N26       1.0  0.00553  0.63897  0.71157  1.0000
  N   N27       1.0  0.36103  0.36657  0.71157  1.0000
  N   N28       1.0  0.69990  0.67220  0.95510  1.0000
  N   N29       1.0  0.32780  0.02770  0.95510  1.0000
  N   N30       1.0  0.97230  0.30010  0.95510  1.0000
  N   N31       1.0  0.03323  0.33887  0.62177  1.0000
  N   N32       1.0  0.66113  0.69437  0.62177  1.0000
  N   N33       1.0  0.30563  0.96677  0.62177  1.0000
  N   N34       1.0  0.36657  0.00553  0.28843  1.0000
  N   N35       1.0  0.99447  0.36103  0.28843  1.0000
  N   N36       1.0  0.63897  0.63343  0.28843  1.0000
  N   N37       1.0  0.26520  0.30390  0.94210  1.0000
  N   N38       1.0  0.69610  0.96130  0.94210  1.0000
  N   N39       1.0  0.03870  0.73480  0.94210  1.0000
  N   N40       1.0  0.93187  0.63723  0.27543  1.0000
  N   N41       1.0  0.36277  0.29463  0.27543  1.0000
  N   N42       1.0  0.70537  0.06813  0.27543  1.0000
  N   N43       1.0  0.59853  0.97057  0.60877  1.0000
  N   N44       1.0  0.02943  0.62797  0.60877  1.0000
  N   N45       1.0  0.37203  0.40147  0.60877  1.0000
  N   N46       1.0  0.73480  0.69610  0.05790  1.0000
  N   N47       1.0  0.30390  0.03870  0.05790  1.0000
  N   N48       1.0  0.96130  0.26520  0.05790  1.0000
  N   N49       1.0  0.06813  0.36277  0.72457  1.0000
  N   N50       1.0  0.63723  0.70537  0.72457  1.0000
  N   N51       1.0  0.29463  0.93187  0.72457  1.0000
  N   N52       1.0  0.40147  0.02943  0.39123  1.0000
  N   N53       1.0  0.97057  0.37203  0.39123  1.0000
  N   N54       1.0  0.62797  0.59853  0.39123  1.0000
  N   N55       1.0  0.22250  0.29910  0.99380  1.0000
  N   N56       1.0  0.70090  0.92340  0.99380  1.0000
  N   N57       1.0  0.07660  0.77750  0.99380  1.0000
  N   N58       1.0  0.88917  0.63243  0.32713  1.0000
  N   N59       1.0  0.36757  0.25673  0.32713  1.0000
  N   N60       1.0  0.74327  0.11083  0.32713  1.0000
  N   N61       1.0  0.55583  0.96577  0.66047  1.0000
  N   N62       1.0  0.03423  0.59007  0.66047  1.0000
  N   N63       1.0  0.40993  0.44417  0.66047  1.0000
  N   N64       1.0  0.77750  0.70090  0.00620  1.0000
  N   N65       1.0  0.29910  0.07660  0.00620  1.0000
  N   N66       1.0  0.92340  0.22250  0.00620  1.0000
  N   N67       1.0  0.11083  0.36757  0.67287  1.0000
  N   N68       1.0  0.63243  0.74327  0.67287  1.0000
  N   N69       1.0  0.25673  0.88917  0.67287  1.0000
  N   N70       1.0  0.44417  0.03423  0.33953  1.0000
  N   N71       1.0  0.96577  0.40993  0.33953  1.0000
  N   N72       1.0  0.59007  0.55583  0.33953  1.0000
  C   C1        1.0  0.22680  0.30350  0.50040  1.0000
  C   C2        1.0  0.69650  0.92330  0.50040  1.0000
  C   C3        1.0  0.07670  0.77320  0.50040  1.0000
  C   C4        1.0  0.89347  0.63683  0.83373  1.0000
  C   C5        1.0  0.36317  0.25663  0.83373  1.0000
  C   C6        1.0  0.74337  0.10653  0.83373  1.0000
  C   C7        1.0  0.56013  0.97017  0.16707  1.0000
  C   C8        1.0  0.02983  0.58997  0.16707  1.0000
  C   C9        1.0  0.41003  0.43987  0.16707  1.0000
  C   C10       1.0  0.77320  0.69650  0.49960  1.0000
  C   C11       1.0  0.30350  0.07670  0.49960  1.0000
  C   C12       1.0  0.92330  0.22680  0.49960  1.0000
  C   C13       1.0  0.10653  0.36317  0.16627  1.0000
  C   C14       1.0  0.63683  0.74337  0.16627  1.0000
  C   C15       1.0  0.25663  0.89347  0.16627  1.0000
  C   C16       1.0  0.43987  0.02983  0.83293  1.0000
  C   C17       1.0  0.97017  0.41003  0.83293  1.0000
  C   C18       1.0  0.58997  0.56013  0.83293  1.0000
  C   C19       1.0  0.19730  0.32030  0.41130  1.0000
  C   C20       1.0  0.67970  0.87700  0.41130  1.0000
  C   C21       1.0  0.12300  0.80270  0.41130  1.0000
  C   C22       1.0  0.86397  0.65363  0.74463  1.0000
  C   C23       1.0  0.34637  0.21033  0.74463  1.0000
  C   C24       1.0  0.78967  0.13603  0.74463  1.0000
  C   C25       1.0  0.53063  0.98697  0.07797  1.0000
  C   C26       1.0  0.01303  0.54367  0.07797  1.0000
  C   C27       1.0  0.45633  0.46937  0.07797  1.0000
  C   C28       1.0  0.80270  0.67970  0.58870  1.0000
  C   C29       1.0  0.32030  0.12300  0.58870  1.0000
  C   C30       1.0  0.87700  0.19730  0.58870  1.0000
  C   C31       1.0  0.13603  0.34637  0.25537  1.0000
  C   C32       1.0  0.65363  0.78967  0.25537  1.0000
  C   C33       1.0  0.21033  0.86397  0.25537  1.0000
  C   C34       1.0  0.46937  0.01303  0.92203  1.0000
  C   C35       1.0  0.98697  0.45633  0.92203  1.0000
  C   C36       1.0  0.54367  0.53063  0.92203  1.0000
  C   C37       1.0  0.19980  0.32700  0.23970  1.0000
  C   C38       1.0  0.67300  0.87280  0.23970  1.0000
  C   C39       1.0  0.12720  0.80020  0.23970  1.0000
  C   C40       1.0  0.86647  0.66033  0.57303  1.0000
  C   C41       1.0  0.33967  0.20613  0.57303  1.0000
  C   C42       1.0  0.79387  0.13353  0.57303  1.0000
  C   C43       1.0  0.53313  0.99367  0.90637  1.0000
  C   C44       1.0  0.00633  0.53947  0.90637  1.0000
  C   C45       1.0  0.46053  0.46687  0.90637  1.0000
  C   C46       1.0  0.80020  0.67300  0.76030  1.0000
  C   C47       1.0  0.32700  0.12720  0.76030  1.0000
  C   C48       1.0  0.87280  0.19980  0.76030  1.0000
  C   C49       1.0  0.13353  0.33967  0.42697  1.0000
  C   C50       1.0  0.66033  0.79387  0.42697  1.0000
  C   C51       1.0  0.20613  0.86647  0.42697  1.0000
  C   C52       1.0  0.46687  0.00633  0.09363  1.0000
  C   C53       1.0  0.99367  0.46053  0.09363  1.0000
  C   C54       1.0  0.53947  0.53313  0.09363  1.0000
  C   C55       1.0  0.16460  0.32830  0.49610  1.0000
  C   C56       1.0  0.67170  0.83630  0.49610  1.0000
  C   C57       1.0  0.16370  0.83540  0.49610  1.0000
  C   C58       1.0  0.83127  0.66163  0.82943  1.0000
  C   C59       1.0  0.33837  0.16963  0.82943  1.0000
  C   C60       1.0  0.83037  0.16873  0.82943  1.0000
  C   C61       1.0  0.49793  0.99497  0.16277  1.0000
  C   C62       1.0  0.00503  0.50297  0.16277  1.0000
  C   C63       1.0  0.49703  0.50207  0.16277  1.0000
  C   C64       1.0  0.83540  0.67170  0.50390  1.0000
  C   C65       1.0  0.32830  0.16370  0.50390  1.0000
  C   C66       1.0  0.83630  0.16460  0.50390  1.0000
  C   C67       1.0  0.16873  0.33837  0.17057  1.0000
  C   C68       1.0  0.66163  0.83037  0.17057  1.0000
  C   C69       1.0  0.16963  0.83127  0.17057  1.0000
  C   C70       1.0  0.50207  0.00503  0.83723  1.0000
  C   C71       1.0  0.99497  0.49703  0.83723  1.0000
  C   C72       1.0  0.50297  0.49793  0.83723  1.0000
  H   H1        1.0  0.16410  0.32560  0.61090  1.0000
  H   H2        1.0  0.67440  0.83850  0.61090  1.0000
  H   H3        1.0  0.16150  0.83590  0.61090  1.0000
  H   H4        1.0  0.83077  0.65893  0.94423  1.0000
  H   H5        1.0  0.34107  0.17183  0.94423  1.0000
  H   H6        1.0  0.82817  0.16923  0.94423  1.0000
  H   H7        1.0  0.49743  0.99227  0.27757  1.0000
  H   H8        1.0  0.00773  0.50517  0.27757  1.0000
  H   H9        1.0  0.49483  0.50257  0.27757  1.0000
  H   H10       1.0  0.83590  0.67440  0.38910  1.0000
  H   H11       1.0  0.32560  0.16150  0.38910  1.0000
  H   H12       1.0  0.83850  0.16410  0.38910  1.0000
  H   H13       1.0  0.16923  0.34107  0.05577  1.0000
  H   H14       1.0  0.65893  0.82817  0.05577  1.0000
  H   H15       1.0  0.17183  0.83077  0.05577  1.0000
  H   H16       1.0  0.50257  0.00773  0.72243  1.0000
  H   H17       1.0  0.99227  0.49483  0.72243  1.0000
  H   H18       1.0  0.50517  0.49743  0.72243  1.0000
  C   C73       1.0  0.23340  0.32140  0.13840  1.0000
  C   C74       1.0  0.67860  0.91200  0.13840  1.0000
  C   C75       1.0  0.08800  0.76660  0.13840  1.0000
  C   C76       1.0  0.90007  0.65473  0.47173  1.0000
  C   C77       1.0  0.34527  0.24533  0.47173  1.0000
  C   C78       1.0  0.75467  0.09993  0.47173  1.0000
  C   C79       1.0  0.56673  0.98807  0.80507  1.0000
  C   C80       1.0  0.01193  0.57867  0.80507  1.0000
  C   C81       1.0  0.42133  0.43327  0.80507  1.0000
  C   C82       1.0  0.76660  0.67860  0.86160  1.0000
  C   C83       1.0  0.32140  0.08800  0.86160  1.0000
  C   C84       1.0  0.91200  0.23340  0.86160  1.0000
  C   C85       1.0  0.09993  0.34527  0.52827  1.0000
  C   C86       1.0  0.65473  0.75467  0.52827  1.0000
  C   C87       1.0  0.24533  0.90007  0.52827  1.0000
  C   C88       1.0  0.43327  0.01193  0.19493  1.0000
  C   C89       1.0  0.98807  0.42133  0.19493  1.0000
  C   C90       1.0  0.57867  0.56673  0.19493  1.0000
  O   O37       1.0  0.30650  0.44080  0.45000  1.0000
  O   O38       1.0  0.55920  0.86570  0.45000  1.0000
  O   O39       1.0  0.13430  0.69350  0.45000  1.0000
  O   O40       1.0  0.97317  0.77413  0.78333  1.0000
  O   O41       1.0  0.22587  0.19903  0.78333  1.0000
  O   O42       1.0  0.80097  0.02683  0.78333  1.0000
  O   O43       1.0  0.63983  0.10747  0.11667  1.0000
  O   O44       1.0  0.89253  0.53237  0.11667  1.0000
  O   O45       1.0  0.46763  0.36017  0.11667  1.0000
  O   O46       1.0  0.69350  0.55920  0.55000  1.0000
  O   O47       1.0  0.44080  0.13430  0.55000  1.0000
  O   O48       1.0  0.86570  0.30650  0.55000  1.0000
  O   O49       1.0  0.02683  0.22587  0.21667  1.0000
  O   O50       1.0  0.77413  0.80097  0.21667  1.0000
  O   O51       1.0  0.19903  0.97317  0.21667  1.0000
  O   O52       1.0  0.36017  0.89253  0.88333  1.0000
  O   O53       1.0  0.10747  0.46763  0.88333  1.0000
  O   O54       1.0  0.53237  0.63983  0.88333  1.0000
  C   C91       1.0  0.29080  0.45730  0.35700  1.0000
  C   C92       1.0  0.54270  0.83350  0.35700  1.0000
  C   C93       1.0  0.16650  0.70920  0.35700  1.0000
  C   C94       1.0  0.95747  0.79063  0.69033  1.0000
  C   C95       1.0  0.20937  0.16683  0.69033  1.0000
  C   C96       1.0  0.83317  0.04253  0.69033  1.0000
  C   C97       1.0  0.62413  0.12397  0.02367  1.0000
  C   C98       1.0  0.87603  0.50017  0.02367  1.0000
  C   C99       1.0  0.49983  0.37587  0.02367  1.0000
  C   C100      1.0  0.70920  0.54270  0.64300  1.0000
  C   C101      1.0  0.45730  0.16650  0.64300  1.0000
  C   C102      1.0  0.83350  0.29080  0.64300  1.0000
  C   C103      1.0  0.04253  0.20937  0.30967  1.0000
  C   C104      1.0  0.79063  0.83317  0.30967  1.0000
  C   C105      1.0  0.16683  0.95747  0.30967  1.0000
  C   C106      1.0  0.37587  0.87603  0.97633  1.0000
  C   C107      1.0  0.12397  0.49983  0.97633  1.0000
  C   C108      1.0  0.50017  0.62413  0.97633  1.0000
  H   H19       1.0  0.29040  0.48570  0.38710  1.0000
  H   H20       1.0  0.51430  0.80470  0.38710  1.0000
  H   H21       1.0  0.19530  0.70960  0.38710  1.0000
  H   H22       1.0  0.95707  0.81903  0.72043  1.0000
  H   H23       1.0  0.18097  0.13803  0.72043  1.0000
  H   H24       1.0  0.86197  0.04293  0.72043  1.0000
  H   H25       1.0  0.62373  0.15237  0.05377  1.0000
  H   H26       1.0  0.84763  0.47137  0.05377  1.0000
  H   H27       1.0  0.52863  0.37627  0.05377  1.0000
  H   H28       1.0  0.70960  0.51430  0.61290  1.0000
  H   H29       1.0  0.48570  0.19530  0.61290  1.0000
  H   H30       1.0  0.80470  0.29040  0.61290  1.0000
  H   H31       1.0  0.04293  0.18097  0.27957  1.0000
  H   H32       1.0  0.81903  0.86197  0.27957  1.0000
  H   H33       1.0  0.13803  0.95707  0.27957  1.0000
  H   H34       1.0  0.37627  0.84763  0.94623  1.0000
  H   H35       1.0  0.15237  0.52863  0.94623  1.0000
  H   H36       1.0  0.47137  0.62373  0.94623  1.0000
  O   O55       1.0  0.27480  0.43940  0.22300  1.0000
  O   O56       1.0  0.56060  0.83540  0.22300  1.0000
  O   O57       1.0  0.16460  0.72520  0.22300  1.0000
  O   O58       1.0  0.94147  0.77273  0.55633  1.0000
  O   O59       1.0  0.22727  0.16873  0.55633  1.0000
  O   O60       1.0  0.83127  0.05853  0.55633  1.0000
  O   O61       1.0  0.60813  0.10607  0.88967  1.0000
  O   O62       1.0  0.89393  0.50207  0.88967  1.0000
  O   O63       1.0  0.49793  0.39187  0.88967  1.0000
  O   O64       1.0  0.72520  0.56060  0.77700  1.0000
  O   O65       1.0  0.43940  0.16460  0.77700  1.0000
  O   O66       1.0  0.83540  0.27480  0.77700  1.0000
  O   O67       1.0  0.05853  0.22727  0.44367  1.0000
  O   O68       1.0  0.77273  0.83127  0.44367  1.0000
  O   O69       1.0  0.16873  0.94147  0.44367  1.0000
  O   O70       1.0  0.39187  0.89393  0.11033  1.0000
  O   O71       1.0  0.10607  0.49793  0.11033  1.0000
  O   O72       1.0  0.50207  0.60813  0.11033  1.0000
