data_image0
_chemical_formula_structural       Mn8S24N96C16H16C8H24C16H16C8H24C16H16C8H24
_chemical_formula_sum              "Mn8 S24 N96 C72 H120"
_cell_length_a       17.7842
_cell_length_b       18.5261
_cell_length_c       15.9295
_cell_angle_alpha    90
_cell_angle_beta     119.525
_cell_angle_gamma    90

_space_group_name_H-M_alt    "P 1"
_space_group_IT_number       1

loop_
  _space_group_symop_operation_xyz
  'x, y, z'

loop_
  _atom_site_type_symbol
  _atom_site_label
  _atom_site_symmetry_multiplicity
  _atom_site_fract_x
  _atom_site_fract_y
  _atom_site_fract_z
  _atom_site_occupancy
  Mn  Mn1       1.0  0.50000  0.00000  0.00000  1.0000
  Mn  Mn2       1.0  0.50000  0.00000  0.50000  1.0000
  Mn  Mn3       1.0  0.00000  0.50000  0.00000  1.0000
  Mn  Mn4       1.0  0.00000  0.50000  0.50000  1.0000
  Mn  Mn5       1.0  0.50000  0.97298  0.25000  1.0000
  Mn  Mn6       1.0  0.00000  0.47298  0.25000  1.0000
  Mn  Mn7       1.0  0.50000  0.02702  0.75000  1.0000
  Mn  Mn8       1.0  0.00000  0.52702  0.75000  1.0000
  S   S1        1.0  0.37898  0.21210  0.67356  1.0000
  S   S2        1.0  0.62102  0.21210  0.82644  1.0000
  S   S3        1.0  0.87898  0.71210  0.67356  1.0000
  S   S4        1.0  0.12102  0.71210  0.82644  1.0000
  S   S5        1.0  0.62102  0.78790  0.32644  1.0000
  S   S6        1.0  0.37898  0.78790  0.17356  1.0000
  S   S7        1.0  0.12102  0.28790  0.32644  1.0000
  S   S8        1.0  0.87898  0.28790  0.17356  1.0000
  S   S9        1.0  0.62464  0.18138  0.05276  1.0000
  S   S10       1.0  0.37536  0.18138  0.44724  1.0000
  S   S11       1.0  0.12464  0.68138  0.05276  1.0000
  S   S12       1.0  0.87536  0.68138  0.44724  1.0000
  S   S13       1.0  0.37536  0.81862  0.94724  1.0000
  S   S14       1.0  0.62464  0.81862  0.55276  1.0000
  S   S15       1.0  0.87536  0.31862  0.94724  1.0000
  S   S16       1.0  0.12464  0.31862  0.55276  1.0000
  S   S17       1.0  0.74464  0.02180  0.84370  1.0000
  S   S18       1.0  0.25536  0.02180  0.65630  1.0000
  S   S19       1.0  0.24464  0.52180  0.84370  1.0000
  S   S20       1.0  0.75536  0.52180  0.65630  1.0000
  S   S21       1.0  0.25536  0.97820  0.15630  1.0000
  S   S22       1.0  0.74464  0.97820  0.34370  1.0000
  S   S23       1.0  0.75536  0.47820  0.15630  1.0000
  S   S24       1.0  0.24464  0.47820  0.34370  1.0000
  N   N1        1.0  0.44080  0.09040  0.89140  1.0000
  N   N2        1.0  0.55920  0.09040  0.60860  1.0000
  N   N3        1.0  0.94080  0.59040  0.89140  1.0000
  N   N4        1.0  0.05920  0.59040  0.60860  1.0000
  N   N5        1.0  0.55920  0.90960  0.10860  1.0000
  N   N6        1.0  0.44080  0.90960  0.39140  1.0000
  N   N7        1.0  0.05920  0.40960  0.10860  1.0000
  N   N8        1.0  0.94080  0.40960  0.39140  1.0000
  N   N9        1.0  0.44050  0.10520  0.80800  1.0000
  N   N10       1.0  0.55950  0.10520  0.69200  1.0000
  N   N11       1.0  0.94050  0.60520  0.80800  1.0000
  N   N12       1.0  0.05950  0.60520  0.69200  1.0000
  N   N13       1.0  0.55950  0.89480  0.19200  1.0000
  N   N14       1.0  0.44050  0.89480  0.30800  1.0000
  N   N15       1.0  0.05950  0.39480  0.19200  1.0000
  N   N16       1.0  0.94050  0.39480  0.30800  1.0000
  N   N17       1.0  0.37400  0.19210  0.84080  1.0000
  N   N18       1.0  0.62600  0.19210  0.65920  1.0000
  N   N19       1.0  0.87400  0.69210  0.84080  1.0000
  N   N20       1.0  0.12600  0.69210  0.65920  1.0000
  N   N21       1.0  0.62600  0.80790  0.15920  1.0000
  N   N22       1.0  0.37400  0.80790  0.34080  1.0000
  N   N23       1.0  0.12600  0.30790  0.15920  1.0000
  N   N24       1.0  0.87400  0.30790  0.34080  1.0000
  N   N25       1.0  0.40100  0.14210  0.91000  1.0000
  N   N26       1.0  0.59900  0.14210  0.59000  1.0000
  N   N27       1.0  0.90100  0.64210  0.91000  1.0000
  N   N28       1.0  0.09900  0.64210  0.59000  1.0000
  N   N29       1.0  0.59900  0.85790  0.09000  1.0000
  N   N30       1.0  0.40100  0.85790  0.41000  1.0000
  N   N31       1.0  0.09900  0.35790  0.09000  1.0000
  N   N32       1.0  0.90100  0.35790  0.41000  1.0000
  N   N33       1.0  0.55790  0.07970  0.12120  1.0000
  N   N34       1.0  0.44210  0.07970  0.37880  1.0000
  N   N35       1.0  0.05790  0.57970  0.12120  1.0000
  N   N36       1.0  0.94210  0.57970  0.37880  1.0000
  N   N37       1.0  0.44210  0.92030  0.87880  1.0000
  N   N38       1.0  0.55790  0.92030  0.62120  1.0000
  N   N39       1.0  0.94210  0.42030  0.87880  1.0000
  N   N40       1.0  0.05790  0.42030  0.62120  1.0000
  N   N41       1.0  0.55570  0.06730  0.20350  1.0000
  N   N42       1.0  0.44430  0.06730  0.29650  1.0000
  N   N43       1.0  0.05570  0.56730  0.20350  1.0000
  N   N44       1.0  0.94430  0.56730  0.29650  1.0000
  N   N45       1.0  0.44430  0.93270  0.79650  1.0000
  N   N46       1.0  0.55570  0.93270  0.70350  1.0000
  N   N47       1.0  0.94430  0.43270  0.79650  1.0000
  N   N48       1.0  0.05570  0.43270  0.70350  1.0000
  N   N49       1.0  0.59240  0.12070  0.26120  1.0000
  N   N50       1.0  0.40760  0.12070  0.23880  1.0000
  N   N51       1.0  0.09240  0.62070  0.26120  1.0000
  N   N52       1.0  0.90760  0.62070  0.23880  1.0000
  N   N53       1.0  0.40760  0.87930  0.73880  1.0000
  N   N54       1.0  0.59240  0.87930  0.76120  1.0000
  N   N55       1.0  0.90760  0.37930  0.73880  1.0000
  N   N56       1.0  0.09240  0.37930  0.76120  1.0000
  N   N57       1.0  0.62170  0.16950  0.22240  1.0000
  N   N58       1.0  0.37830  0.16950  0.27760  1.0000
  N   N59       1.0  0.12170  0.66950  0.22240  1.0000
  N   N60       1.0  0.87830  0.66950  0.27760  1.0000
  N   N61       1.0  0.37830  0.83050  0.77760  1.0000
  N   N62       1.0  0.62170  0.83050  0.72240  1.0000
  N   N63       1.0  0.87830  0.33050  0.77760  1.0000
  N   N64       1.0  0.12170  0.33050  0.72240  1.0000
  N   N65       1.0  0.62110  0.01930  0.89560  1.0000
  N   N66       1.0  0.37890  0.01930  0.60440  1.0000
  N   N67       1.0  0.12110  0.51930  0.89560  1.0000
  N   N68       1.0  0.87890  0.51930  0.60440  1.0000
  N   N69       1.0  0.37890  0.98070  0.10440  1.0000
  N   N70       1.0  0.62110  0.98070  0.39560  1.0000
  N   N71       1.0  0.87890  0.48070  0.10440  1.0000
  N   N72       1.0  0.12110  0.48070  0.39560  1.0000
  N   N73       1.0  0.61780  0.00580  0.97800  1.0000
  N   N74       1.0  0.38220  0.00580  0.52200  1.0000
  N   N75       1.0  0.11780  0.50580  0.97800  1.0000
  N   N76       1.0  0.88220  0.50580  0.52200  1.0000
  N   N77       1.0  0.38220  0.99420  0.02200  1.0000
  N   N78       1.0  0.61780  0.99420  0.47800  1.0000
  N   N79       1.0  0.88220  0.49420  0.02200  1.0000
  N   N80       1.0  0.11780  0.49420  0.47800  1.0000
  N   N81       1.0  0.69410  0.98810  0.04760  1.0000
  N   N82       1.0  0.30590  0.98810  0.45240  1.0000
  N   N83       1.0  0.19410  0.48810  0.04760  1.0000
  N   N84       1.0  0.80590  0.48810  0.45240  1.0000
  N   N85       1.0  0.30590  0.01190  0.95240  1.0000
  N   N86       1.0  0.69410  0.01190  0.54760  1.0000
  N   N87       1.0  0.80590  0.51190  0.95240  1.0000
  N   N88       1.0  0.19410  0.51190  0.54760  1.0000
  N   N89       1.0  0.75090  0.98860  0.01470  1.0000
  N   N90       1.0  0.24910  0.98860  0.48530  1.0000
  N   N91       1.0  0.25090  0.48860  0.01470  1.0000
  N   N92       1.0  0.74910  0.48860  0.48530  1.0000
  N   N93       1.0  0.24910  0.01140  0.98530  1.0000
  N   N94       1.0  0.75090  0.01140  0.51470  1.0000
  N   N95       1.0  0.74910  0.51140  0.98530  1.0000
  N   N96       1.0  0.25090  0.51140  0.51470  1.0000
  C   C1        1.0  0.39870  0.16890  0.77930  1.0000
  C   C2        1.0  0.60130  0.16890  0.72070  1.0000
  C   C3        1.0  0.89870  0.66890  0.77930  1.0000
  C   C4        1.0  0.10130  0.66890  0.72070  1.0000
  C   C5        1.0  0.60130  0.83110  0.22070  1.0000
  C   C6        1.0  0.39870  0.83110  0.27930  1.0000
  C   C7        1.0  0.10130  0.33110  0.22070  1.0000
  C   C8        1.0  0.89870  0.33110  0.27930  1.0000
  C   C9        1.0  0.36930  0.30350  0.70660  1.0000
  C   C10       1.0  0.63070  0.30350  0.79340  1.0000
  C   C11       1.0  0.86930  0.80350  0.70660  1.0000
  C   C12       1.0  0.13070  0.80350  0.79340  1.0000
  C   C13       1.0  0.63070  0.69650  0.29340  1.0000
  C   C14       1.0  0.36930  0.69650  0.20660  1.0000
  C   C15       1.0  0.13070  0.19650  0.29340  1.0000
  C   C16       1.0  0.86930  0.19650  0.20660  1.0000
  H   H1        1.0  0.31780  0.30810  0.71260  1.0000
  H   H2        1.0  0.68220  0.30810  0.78740  1.0000
  H   H3        1.0  0.81780  0.80810  0.71260  1.0000
  H   H4        1.0  0.18220  0.80810  0.78740  1.0000
  H   H5        1.0  0.68220  0.69190  0.28740  1.0000
  H   H6        1.0  0.31780  0.69190  0.21260  1.0000
  H   H7        1.0  0.18220  0.19190  0.28740  1.0000
  H   H8        1.0  0.81780  0.19190  0.21260  1.0000
  H   H9        1.0  0.41900  0.31550  0.76830  1.0000
  H   H10       1.0  0.58100  0.31550  0.73170  1.0000
  H   H11       1.0  0.91900  0.81550  0.76830  1.0000
  H   H12       1.0  0.08100  0.81550  0.73170  1.0000
  H   H13       1.0  0.58100  0.68450  0.23170  1.0000
  H   H14       1.0  0.41900  0.68450  0.26830  1.0000
  H   H15       1.0  0.08100  0.18450  0.23170  1.0000
  H   H16       1.0  0.91900  0.18450  0.26830  1.0000
  C   C17       1.0  0.36390  0.35470  0.62970  1.0000
  C   C18       1.0  0.63610  0.35470  0.87030  1.0000
  C   C19       1.0  0.86390  0.85470  0.62970  1.0000
  C   C20       1.0  0.13610  0.85470  0.87030  1.0000
  C   C21       1.0  0.63610  0.64530  0.37030  1.0000
  C   C22       1.0  0.36390  0.64530  0.12970  1.0000
  C   C23       1.0  0.13610  0.14530  0.37030  1.0000
  C   C24       1.0  0.86390  0.14530  0.12970  1.0000
  H   H17       1.0  0.31670  0.34080  0.56820  1.0000
  H   H18       1.0  0.68330  0.34080  0.93180  1.0000
  H   H19       1.0  0.81670  0.84080  0.56820  1.0000
  H   H20       1.0  0.18330  0.84080  0.93180  1.0000
  H   H21       1.0  0.68330  0.65920  0.43180  1.0000
  H   H22       1.0  0.31670  0.65920  0.06820  1.0000
  H   H23       1.0  0.18330  0.15920  0.43180  1.0000
  H   H24       1.0  0.81670  0.15920  0.06820  1.0000
  H   H25       1.0  0.41690  0.35280  0.62760  1.0000
  H   H26       1.0  0.58310  0.35280  0.87240  1.0000
  H   H27       1.0  0.91690  0.85280  0.62760  1.0000
  H   H28       1.0  0.08310  0.85280  0.87240  1.0000
  H   H29       1.0  0.58310  0.64720  0.37240  1.0000
  H   H30       1.0  0.41690  0.64720  0.12760  1.0000
  H   H31       1.0  0.08310  0.14720  0.37240  1.0000
  H   H32       1.0  0.91690  0.14720  0.12760  1.0000
  H   H33       1.0  0.35470  0.40300  0.64470  1.0000
  H   H34       1.0  0.64530  0.40300  0.85530  1.0000
  H   H35       1.0  0.85470  0.90300  0.64470  1.0000
  H   H36       1.0  0.14530  0.90300  0.85530  1.0000
  H   H37       1.0  0.64530  0.59700  0.35530  1.0000
  H   H38       1.0  0.35470  0.59700  0.14470  1.0000
  H   H39       1.0  0.14530  0.09700  0.35530  1.0000
  H   H40       1.0  0.85470  0.09700  0.14470  1.0000
  C   C25       1.0  0.59970  0.14190  0.13570  1.0000
  C   C26       1.0  0.40030  0.14190  0.36430  1.0000
  C   C27       1.0  0.09970  0.64190  0.13570  1.0000
  C   C28       1.0  0.90030  0.64190  0.36430  1.0000
  C   C29       1.0  0.40030  0.85810  0.86430  1.0000
  C   C30       1.0  0.59970  0.85810  0.63570  1.0000
  C   C31       1.0  0.90030  0.35810  0.86430  1.0000
  C   C32       1.0  0.09970  0.35810  0.63570  1.0000
  C   C33       1.0  0.62650  0.27540  0.08340  1.0000
  C   C34       1.0  0.37350  0.27540  0.41660  1.0000
  C   C35       1.0  0.12650  0.77540  0.08340  1.0000
  C   C36       1.0  0.87350  0.77540  0.41660  1.0000
  C   C37       1.0  0.37350  0.72460  0.91660  1.0000
  C   C38       1.0  0.62650  0.72460  0.58340  1.0000
  C   C39       1.0  0.87350  0.22460  0.91660  1.0000
  C   C40       1.0  0.12650  0.22460  0.58340  1.0000
  H   H41       1.0  0.65700  0.28020  0.15300  1.0000
  H   H42       1.0  0.34300  0.28020  0.34700  1.0000
  H   H43       1.0  0.15700  0.78020  0.15300  1.0000
  H   H44       1.0  0.84300  0.78020  0.34700  1.0000
  H   H45       1.0  0.34300  0.71980  0.84700  1.0000
  H   H46       1.0  0.65700  0.71980  0.65300  1.0000
  H   H47       1.0  0.84300  0.21980  0.84700  1.0000
  H   H48       1.0  0.15700  0.21980  0.65300  1.0000
  H   H49       1.0  0.65860  0.30230  0.05890  1.0000
  H   H50       1.0  0.34140  0.30230  0.44110  1.0000
  H   H51       1.0  0.15860  0.80230  0.05890  1.0000
  H   H52       1.0  0.84140  0.80230  0.44110  1.0000
  H   H53       1.0  0.34140  0.69770  0.94110  1.0000
  H   H54       1.0  0.65860  0.69770  0.55890  1.0000
  H   H55       1.0  0.84140  0.19770  0.94110  1.0000
  H   H56       1.0  0.15860  0.19770  0.55890  1.0000
  C   C41       1.0  0.53940  0.30770  0.04430  1.0000
  C   C42       1.0  0.46060  0.30770  0.45570  1.0000
  C   C43       1.0  0.03940  0.80770  0.04430  1.0000
  C   C44       1.0  0.96060  0.80770  0.45570  1.0000
  C   C45       1.0  0.46060  0.69230  0.95570  1.0000
  C   C46       1.0  0.53940  0.69230  0.54430  1.0000
  C   C47       1.0  0.96060  0.19230  0.95570  1.0000
  C   C48       1.0  0.03940  0.19230  0.54430  1.0000
  H   H57       1.0  0.51240  0.31050  0.97530  1.0000
  H   H58       1.0  0.48760  0.31050  0.52470  1.0000
  H   H59       1.0  0.01240  0.81050  0.97530  1.0000
  H   H60       1.0  0.98760  0.81050  0.52470  1.0000
  H   H61       1.0  0.48760  0.68950  0.02470  1.0000
  H   H62       1.0  0.51240  0.68950  0.47530  1.0000
  H   H63       1.0  0.98760  0.18950  0.02470  1.0000
  H   H64       1.0  0.01240  0.18950  0.47530  1.0000
  H   H65       1.0  0.54450  0.35530  0.07040  1.0000
  H   H66       1.0  0.45550  0.35530  0.42960  1.0000
  H   H67       1.0  0.04450  0.85530  0.07040  1.0000
  H   H68       1.0  0.95550  0.85530  0.42960  1.0000
  H   H69       1.0  0.45550  0.64470  0.92960  1.0000
  H   H70       1.0  0.54450  0.64470  0.57040  1.0000
  H   H71       1.0  0.95550  0.14470  0.92960  1.0000
  H   H72       1.0  0.04450  0.14470  0.57040  1.0000
  H   H73       1.0  0.50500  0.27820  0.06190  1.0000
  H   H74       1.0  0.49500  0.27820  0.43810  1.0000
  H   H75       1.0  0.00500  0.77820  0.06190  1.0000
  H   H76       1.0  0.99500  0.77820  0.43810  1.0000
  H   H77       1.0  0.49500  0.72180  0.93810  1.0000
  H   H78       1.0  0.50500  0.72180  0.56190  1.0000
  H   H79       1.0  0.99500  0.22180  0.93810  1.0000
  H   H80       1.0  0.00500  0.22180  0.56190  1.0000
  C   C49       1.0  0.70330  0.00760  0.92290  1.0000
  C   C50       1.0  0.29670  0.00760  0.57710  1.0000
  C   C51       1.0  0.20330  0.50760  0.92290  1.0000
  C   C52       1.0  0.79670  0.50760  0.57710  1.0000
  C   C53       1.0  0.29670  0.99240  0.07710  1.0000
  C   C54       1.0  0.70330  0.99240  0.42290  1.0000
  C   C55       1.0  0.79670  0.49240  0.07710  1.0000
  C   C56       1.0  0.20330  0.49240  0.42290  1.0000
  C   C57       1.0  0.84640  0.97770  0.90650  1.0000
  C   C58       1.0  0.15360  0.97770  0.59350  1.0000
  C   C59       1.0  0.34640  0.47770  0.90650  1.0000
  C   C60       1.0  0.65360  0.47770  0.59350  1.0000
  C   C61       1.0  0.15360  0.02230  0.09350  1.0000
  C   C62       1.0  0.84640  0.02230  0.40650  1.0000
  C   C63       1.0  0.65360  0.52230  0.09350  1.0000
  C   C64       1.0  0.34640  0.52230  0.40650  1.0000
  H   H81       1.0  0.88270  0.00180  0.96740  1.0000
  H   H82       1.0  0.11730  0.00180  0.53260  1.0000
  H   H83       1.0  0.38270  0.50180  0.96740  1.0000
  H   H84       1.0  0.61730  0.50180  0.53260  1.0000
  H   H85       1.0  0.11730  0.99820  0.03260  1.0000
  H   H86       1.0  0.88270  0.99820  0.46740  1.0000
  H   H87       1.0  0.61730  0.49820  0.03260  1.0000
  H   H88       1.0  0.38270  0.49820  0.46740  1.0000
  H   H89       1.0  0.83850  0.92800  0.91990  1.0000
  H   H90       1.0  0.16150  0.92800  0.58010  1.0000
  H   H91       1.0  0.33850  0.42800  0.91990  1.0000
  H   H92       1.0  0.66150  0.42800  0.58010  1.0000
  H   H93       1.0  0.16150  0.07200  0.08010  1.0000
  H   H94       1.0  0.83850  0.07200  0.41990  1.0000
  H   H95       1.0  0.66150  0.57200  0.08010  1.0000
  H   H96       1.0  0.33850  0.57200  0.41990  1.0000
  C   C65       1.0  0.88800  0.97970  0.84570  1.0000
  C   C66       1.0  0.11200  0.97970  0.65430  1.0000
  C   C67       1.0  0.38800  0.47970  0.84570  1.0000
  C   C68       1.0  0.61200  0.47970  0.65430  1.0000
  C   C69       1.0  0.11200  0.02030  0.15430  1.0000
  C   C70       1.0  0.88800  0.02030  0.34570  1.0000
  C   C71       1.0  0.61200  0.52030  0.15430  1.0000
  C   C72       1.0  0.38800  0.52030  0.34570  1.0000
  H   H97       1.0  0.84460  0.97610  0.77900  1.0000
  H   H98       1.0  0.15540  0.97610  0.72100  1.0000
  H   H99       1.0  0.34460  0.47610  0.77900  1.0000
  H   H100      1.0  0.65540  0.47610  0.72100  1.0000
  H   H101      1.0  0.15540  0.02390  0.22100  1.0000
  H   H102      1.0  0.84460  0.02390  0.27900  1.0000
  H   H103      1.0  0.65540  0.52390  0.22100  1.0000
  H   H104      1.0  0.34460  0.52390  0.27900  1.0000
  H   H105      1.0  0.92750  0.94000  0.86240  1.0000
  H   H106      1.0  0.07250  0.94000  0.63760  1.0000
  H   H107      1.0  0.42750  0.44000  0.86240  1.0000
  H   H108      1.0  0.57250  0.44000  0.63760  1.0000
  H   H109      1.0  0.07250  0.06000  0.13760  1.0000
  H   H110      1.0  0.92750  0.06000  0.36240  1.0000
  H   H111      1.0  0.57250  0.56000  0.13760  1.0000
  H   H112      1.0  0.42750  0.56000  0.36240  1.0000
  H   H113      1.0  0.91890  0.02430  0.85640  1.0000
  H   H114      1.0  0.08110  0.02430  0.64360  1.0000
  H   H115      1.0  0.41890  0.52430  0.85640  1.0000
  H   H116      1.0  0.58110  0.52430  0.64360  1.0000
  H   H117      1.0  0.08110  0.97570  0.14360  1.0000
  H   H118      1.0  0.91890  0.97570  0.35640  1.0000
  H   H119      1.0  0.58110  0.47570  0.14360  1.0000
  H   H120      1.0  0.41890  0.47570  0.35640  1.0000
