data_image0
_chemical_formula_structural       Cd2O12C4H6C4H6C4H6
_chemical_formula_sum              "Cd2 O12 C12 H18"
_cell_length_a       6.6621
_cell_length_b       10.4598
_cell_length_c       10.822
_cell_angle_alpha    111.614
_cell_angle_beta     103.515
_cell_angle_gamma    97.124

_space_group_name_H-M_alt    "P 1"
_space_group_IT_number       1

loop_
  _space_group_symop_operation_xyz
  'x, y, z'

loop_
  _atom_site_type_symbol
  _atom_site_label
  _atom_site_symmetry_multiplicity
  _atom_site_fract_x
  _atom_site_fract_y
  _atom_site_fract_z
  _atom_site_occupancy
  Cd  Cd1       1.0  0.42410  0.29736  0.90457  1.0000
  Cd  Cd2       1.0  0.57590  0.70264  0.09543  1.0000
  O   O1        1.0  0.53570  0.49240  0.12330  1.0000
  O   O2        1.0  0.46430  0.50760  0.87670  1.0000
  O   O3        1.0  0.53220  0.29530  0.14740  1.0000
  O   O4        1.0  0.46780  0.70470  0.85260  1.0000
  O   O5        1.0  0.35580  0.04940  0.78180  1.0000
  O   O6        1.0  0.64420  0.95060  0.21820  1.0000
  O   O7        1.0  0.31730  0.17310  0.65620  1.0000
  O   O8        1.0  0.68270  0.82690  0.34380  1.0000
  O   O9        1.0  0.09010  0.25340  0.92380  1.0000
  O   O10       1.0  0.90990  0.74660  0.07620  1.0000
  O   O11       1.0  0.76700  0.27150  0.93000  1.0000
  O   O12       1.0  0.23300  0.72850  0.07000  1.0000
  C   C1        1.0  0.56630  0.42720  0.20020  1.0000
  C   C2        1.0  0.43370  0.57280  0.79980  1.0000
  C   C3        1.0  0.64480  0.51010  0.35550  1.0000
  C   C4        1.0  0.35520  0.48990  0.64450  1.0000
  H   H1        1.0  0.66610  0.44670  0.40010  1.0000
  H   H2        1.0  0.33390  0.55330  0.59990  1.0000
  H   H3        1.0  0.54190  0.56070  0.38520  1.0000
  H   H4        1.0  0.45810  0.43930  0.61480  1.0000
  H   H5        1.0  0.77670  0.57600  0.38040  1.0000
  H   H6        1.0  0.22330  0.42400  0.61960  1.0000
  C   C5        1.0  0.31160  0.05670  0.66560  1.0000
  C   C6        1.0  0.68840  0.94330  0.33440  1.0000
  C   C7        1.0  0.24800  0.92220  0.53510  1.0000
  C   C8        1.0  0.75200  0.07780  0.46490  1.0000
  H   H7        1.0  0.37210  0.89990  0.50960  1.0000
  H   H8        1.0  0.62790  0.10010  0.49040  1.0000
  H   H9        1.0  0.15250  0.93430  0.46090  1.0000
  H   H10       1.0  0.84750  0.06570  0.53910  1.0000
  H   H11       1.0  0.17890  0.84650  0.55160  1.0000
  H   H12       1.0  0.82110  0.15350  0.44840  1.0000
  C   C9        1.0  0.92590  0.29490  0.89180  1.0000
  C   C10       1.0  0.07410  0.70510  0.10820  1.0000
  C   C11       1.0  0.91620  0.37630  0.80270  1.0000
  C   C12       1.0  0.08380  0.62370  0.19730  1.0000
  H   H13       1.0  0.78170  0.40140  0.78730  1.0000
  H   H14       1.0  0.21830  0.59860  0.21270  1.0000
  H   H15       1.0  0.93260  0.31890  0.71470  1.0000
  H   H16       1.0  0.06740  0.68110  0.28530  1.0000
  H   H17       1.0  0.02820  0.46050  0.84890  1.0000
  H   H18       1.0  0.97180  0.53950  0.15110  1.0000
