data_image0
_chemical_formula_structural       C54H18C54H18C18H18N36O72Zn18
_chemical_formula_sum              "C126 H54 N36 O72 Zn18"
_cell_length_a       21.417
_cell_length_b       21.417
_cell_length_c       19.428
_cell_angle_alpha    90
_cell_angle_beta     90
_cell_angle_gamma    120

_space_group_name_H-M_alt    "P 1"
_space_group_IT_number       1

loop_
  _space_group_symop_operation_xyz
  'x, y, z'

loop_
  _atom_site_type_symbol
  _atom_site_label
  _atom_site_symmetry_multiplicity
  _atom_site_fract_x
  _atom_site_fract_y
  _atom_site_fract_z
  _atom_site_occupancy
  C   C1        1.0  0.54742  0.18676  0.11124  1.0000
  C   C2        1.0  0.81324  0.36066  0.11124  1.0000
  C   C3        1.0  0.63934  0.45258  0.11124  1.0000
  C   C4        1.0  0.21409  0.52009  0.44457  1.0000
  C   C5        1.0  0.47991  0.69399  0.44457  1.0000
  C   C6        1.0  0.30601  0.78591  0.44457  1.0000
  C   C7        1.0  0.88075  0.85343  0.77791  1.0000
  C   C8        1.0  0.14657  0.02733  0.77791  1.0000
  C   C9        1.0  0.97267  0.11925  0.77791  1.0000
  C   C10       1.0  0.45258  0.81324  0.88876  1.0000
  C   C11       1.0  0.18676  0.63934  0.88876  1.0000
  C   C12       1.0  0.36066  0.54742  0.88876  1.0000
  C   C13       1.0  0.78591  0.47991  0.55543  1.0000
  C   C14       1.0  0.52009  0.30601  0.55543  1.0000
  C   C15       1.0  0.69399  0.21409  0.55543  1.0000
  C   C16       1.0  0.11925  0.14657  0.22209  1.0000
  C   C17       1.0  0.85343  0.97267  0.22209  1.0000
  C   C18       1.0  0.02733  0.88075  0.22209  1.0000
  C   C19       1.0  0.60958  0.26277  0.11680  1.0000
  C   C20       1.0  0.73723  0.34681  0.11680  1.0000
  C   C21       1.0  0.65319  0.39042  0.11680  1.0000
  C   C22       1.0  0.27625  0.59610  0.45013  1.0000
  C   C23       1.0  0.40390  0.68014  0.45013  1.0000
  C   C24       1.0  0.31986  0.72375  0.45013  1.0000
  C   C25       1.0  0.94291  0.92944  0.78347  1.0000
  C   C26       1.0  0.07056  0.01348  0.78347  1.0000
  C   C27       1.0  0.98652  0.05709  0.78347  1.0000
  C   C28       1.0  0.39042  0.73723  0.88320  1.0000
  C   C29       1.0  0.26277  0.65319  0.88320  1.0000
  C   C30       1.0  0.34681  0.60958  0.88320  1.0000
  C   C31       1.0  0.72375  0.40390  0.54987  1.0000
  C   C32       1.0  0.59610  0.31986  0.54987  1.0000
  C   C33       1.0  0.68014  0.27625  0.54987  1.0000
  C   C34       1.0  0.05709  0.07056  0.21653  1.0000
  C   C35       1.0  0.92944  0.98652  0.21653  1.0000
  C   C36       1.0  0.01348  0.94291  0.21653  1.0000
  C   C37       1.0  0.67975  0.27615  0.11705  1.0000
  C   C38       1.0  0.72385  0.40360  0.11705  1.0000
  C   C39       1.0  0.59640  0.32025  0.11705  1.0000
  C   C40       1.0  0.34642  0.60948  0.45038  1.0000
  C   C41       1.0  0.39052  0.73693  0.45038  1.0000
  C   C42       1.0  0.26307  0.65358  0.45038  1.0000
  C   C43       1.0  0.01308  0.94282  0.78372  1.0000
  C   C44       1.0  0.05718  0.07027  0.78372  1.0000
  C   C45       1.0  0.92973  0.98692  0.78372  1.0000
  C   C46       1.0  0.32025  0.72385  0.88295  1.0000
  C   C47       1.0  0.27615  0.59640  0.88295  1.0000
  C   C48       1.0  0.40360  0.67975  0.88295  1.0000
  C   C49       1.0  0.65358  0.39052  0.54962  1.0000
  C   C50       1.0  0.60948  0.26307  0.54962  1.0000
  C   C51       1.0  0.73693  0.34642  0.54962  1.0000
  C   C52       1.0  0.98692  0.05718  0.21628  1.0000
  C   C53       1.0  0.94282  0.92973  0.21628  1.0000
  C   C54       1.0  0.07027  0.01308  0.21628  1.0000
  H   H1        1.0  0.68860  0.23790  0.11740  1.0000
  H   H2        1.0  0.76210  0.45070  0.11740  1.0000
  H   H3        1.0  0.54930  0.31140  0.11740  1.0000
  H   H4        1.0  0.35527  0.57123  0.45073  1.0000
  H   H5        1.0  0.42877  0.78403  0.45073  1.0000
  H   H6        1.0  0.21597  0.64473  0.45073  1.0000
  H   H7        1.0  0.02193  0.90457  0.78407  1.0000
  H   H8        1.0  0.09543  0.11737  0.78407  1.0000
  H   H9        1.0  0.88263  0.97807  0.78407  1.0000
  H   H10       1.0  0.31140  0.76210  0.88260  1.0000
  H   H11       1.0  0.23790  0.54930  0.88260  1.0000
  H   H12       1.0  0.45070  0.68860  0.88260  1.0000
  H   H13       1.0  0.64473  0.42877  0.54927  1.0000
  H   H14       1.0  0.57123  0.21597  0.54927  1.0000
  H   H15       1.0  0.78403  0.35527  0.54927  1.0000
  H   H16       1.0  0.97807  0.09543  0.21593  1.0000
  H   H17       1.0  0.90457  0.88263  0.21593  1.0000
  H   H18       1.0  0.11737  0.02193  0.21593  1.0000
  C   C55       1.0  0.40755  0.97694  0.19638  1.0000
  C   C56       1.0  0.02306  0.43061  0.19638  1.0000
  C   C57       1.0  0.56939  0.59245  0.19638  1.0000
  C   C58       1.0  0.07422  0.31027  0.52971  1.0000
  C   C59       1.0  0.68973  0.76394  0.52971  1.0000
  C   C60       1.0  0.23606  0.92578  0.52971  1.0000
  C   C61       1.0  0.74088  0.64361  0.86305  1.0000
  C   C62       1.0  0.35639  0.09728  0.86305  1.0000
  C   C63       1.0  0.90272  0.25912  0.86305  1.0000
  C   C64       1.0  0.59245  0.02306  0.80362  1.0000
  C   C65       1.0  0.97694  0.56939  0.80362  1.0000
  C   C66       1.0  0.43061  0.40755  0.80362  1.0000
  C   C67       1.0  0.92578  0.68973  0.47029  1.0000
  C   C68       1.0  0.31027  0.23606  0.47029  1.0000
  C   C69       1.0  0.76394  0.07422  0.47029  1.0000
  C   C70       1.0  0.25912  0.35639  0.13695  1.0000
  C   C71       1.0  0.64361  0.90272  0.13695  1.0000
  C   C72       1.0  0.09728  0.74088  0.13695  1.0000
  C   C73       1.0  0.33921  0.93632  0.23472  1.0000
  C   C74       1.0  0.06368  0.40289  0.23472  1.0000
  C   C75       1.0  0.59711  0.66079  0.23472  1.0000
  C   C76       1.0  0.00588  0.26965  0.56805  1.0000
  C   C77       1.0  0.73035  0.73622  0.56805  1.0000
  C   C78       1.0  0.26378  0.99412  0.56805  1.0000
  C   C79       1.0  0.67254  0.60299  0.90139  1.0000
  C   C80       1.0  0.39701  0.06956  0.90139  1.0000
  C   C81       1.0  0.93044  0.32746  0.90139  1.0000
  C   C82       1.0  0.66079  0.06368  0.76528  1.0000
  C   C83       1.0  0.93632  0.59711  0.76528  1.0000
  C   C84       1.0  0.40289  0.33921  0.76528  1.0000
  C   C85       1.0  0.99412  0.73035  0.43195  1.0000
  C   C86       1.0  0.26965  0.26378  0.43195  1.0000
  C   C87       1.0  0.73622  0.00588  0.43195  1.0000
  C   C88       1.0  0.32746  0.39701  0.09861  1.0000
  C   C89       1.0  0.60299  0.93044  0.09861  1.0000
  C   C90       1.0  0.06956  0.67254  0.09861  1.0000
  C   C91       1.0  0.26979  0.90712  0.21054  1.0000
  C   C92       1.0  0.09288  0.36267  0.21054  1.0000
  C   C93       1.0  0.63733  0.73021  0.21054  1.0000
  C   C94       1.0  0.93646  0.24045  0.54387  1.0000
  C   C95       1.0  0.75955  0.69600  0.54387  1.0000
  C   C96       1.0  0.30400  0.06354  0.54387  1.0000
  C   C97       1.0  0.60312  0.57379  0.87721  1.0000
  C   C98       1.0  0.42621  0.02934  0.87721  1.0000
  C   C99       1.0  0.97066  0.39688  0.87721  1.0000
  C   C100      1.0  0.73021  0.09288  0.78946  1.0000
  C   C101      1.0  0.90712  0.63733  0.78946  1.0000
  C   C102      1.0  0.36267  0.26979  0.78946  1.0000
  C   C103      1.0  0.06354  0.75955  0.45613  1.0000
  C   C104      1.0  0.24045  0.30400  0.45613  1.0000
  C   C105      1.0  0.69600  0.93646  0.45613  1.0000
  C   C106      1.0  0.39688  0.42621  0.12279  1.0000
  C   C107      1.0  0.57379  0.97066  0.12279  1.0000
  C   C108      1.0  0.02934  0.60312  0.12279  1.0000
  H   H19       1.0  0.25760  0.91010  0.16520  1.0000
  H   H20       1.0  0.08990  0.34750  0.16520  1.0000
  H   H21       1.0  0.65250  0.74240  0.16520  1.0000
  H   H22       1.0  0.92427  0.24343  0.49853  1.0000
  H   H23       1.0  0.75657  0.68083  0.49853  1.0000
  H   H24       1.0  0.31917  0.07573  0.49853  1.0000
  H   H25       1.0  0.59093  0.57677  0.83187  1.0000
  H   H26       1.0  0.42323  0.01417  0.83187  1.0000
  H   H27       1.0  0.98583  0.40907  0.83187  1.0000
  H   H28       1.0  0.74240  0.08990  0.83480  1.0000
  H   H29       1.0  0.91010  0.65250  0.83480  1.0000
  H   H30       1.0  0.34750  0.25760  0.83480  1.0000
  H   H31       1.0  0.07573  0.75657  0.50147  1.0000
  H   H32       1.0  0.24343  0.31917  0.50147  1.0000
  H   H33       1.0  0.68083  0.92427  0.50147  1.0000
  H   H34       1.0  0.40907  0.42323  0.16813  1.0000
  H   H35       1.0  0.57677  0.98583  0.16813  1.0000
  H   H36       1.0  0.01417  0.59093  0.16813  1.0000
  C   C109      1.0  0.33008  0.91827  0.30387  1.0000
  C   C110      1.0  0.08173  0.41181  0.30387  1.0000
  C   C111      1.0  0.58819  0.66992  0.30387  1.0000
  C   C112      1.0  0.99675  0.25160  0.63720  1.0000
  C   C113      1.0  0.74840  0.74514  0.63720  1.0000
  C   C114      1.0  0.25486  0.00325  0.63720  1.0000
  C   C115      1.0  0.66341  0.58494  0.97054  1.0000
  C   C116      1.0  0.41506  0.07848  0.97054  1.0000
  C   C117      1.0  0.92152  0.33659  0.97054  1.0000
  C   C118      1.0  0.66992  0.08173  0.69613  1.0000
  C   C119      1.0  0.91827  0.58819  0.69613  1.0000
  C   C120      1.0  0.41181  0.33008  0.69613  1.0000
  C   C121      1.0  0.00325  0.74840  0.36280  1.0000
  C   C122      1.0  0.25160  0.25486  0.36280  1.0000
  C   C123      1.0  0.74514  0.99675  0.36280  1.0000
  C   C124      1.0  0.33659  0.41506  0.02946  1.0000
  C   C125      1.0  0.58494  0.92152  0.02946  1.0000
  C   C126      1.0  0.07848  0.66341  0.02946  1.0000
  H   H37       1.0  0.36760  0.93060  0.33490  1.0000
  H   H38       1.0  0.06940  0.43700  0.33490  1.0000
  H   H39       1.0  0.56300  0.63240  0.33490  1.0000
  H   H40       1.0  0.03427  0.26393  0.66823  1.0000
  H   H41       1.0  0.73607  0.77033  0.66823  1.0000
  H   H42       1.0  0.22967  0.96573  0.66823  1.0000
  H   H43       1.0  0.70093  0.59727  0.00157  1.0000
  H   H44       1.0  0.40273  0.10367  0.00157  1.0000
  H   H45       1.0  0.89633  0.29907  0.00157  1.0000
  H   H46       1.0  0.63240  0.06940  0.66510  1.0000
  H   H47       1.0  0.93060  0.56300  0.66510  1.0000
  H   H48       1.0  0.43700  0.36760  0.66510  1.0000
  H   H49       1.0  0.96573  0.73607  0.33177  1.0000
  H   H50       1.0  0.26393  0.22967  0.33177  1.0000
  H   H51       1.0  0.77033  0.03427  0.33177  1.0000
  H   H52       1.0  0.29907  0.40273  0.99843  1.0000
  H   H53       1.0  0.59727  0.89633  0.99843  1.0000
  H   H54       1.0  0.10367  0.70093  0.99843  1.0000
  N   N1        1.0  0.26058  0.88095  0.31971  1.0000
  N   N2        1.0  0.11905  0.37963  0.31971  1.0000
  N   N3        1.0  0.62037  0.73942  0.31971  1.0000
  N   N4        1.0  0.92725  0.21428  0.65304  1.0000
  N   N5        1.0  0.78572  0.71296  0.65304  1.0000
  N   N6        1.0  0.28704  0.07275  0.65304  1.0000
  N   N7        1.0  0.59391  0.54762  0.98638  1.0000
  N   N8        1.0  0.45238  0.04630  0.98638  1.0000
  N   N9        1.0  0.95370  0.40609  0.98638  1.0000
  N   N10       1.0  0.73942  0.11905  0.68029  1.0000
  N   N11       1.0  0.88095  0.62037  0.68029  1.0000
  N   N12       1.0  0.37963  0.26058  0.68029  1.0000
  N   N13       1.0  0.07275  0.78572  0.34696  1.0000
  N   N14       1.0  0.21428  0.28704  0.34696  1.0000
  N   N15       1.0  0.71296  0.92725  0.34696  1.0000
  N   N16       1.0  0.40609  0.45238  0.01362  1.0000
  N   N17       1.0  0.54762  0.95370  0.01362  1.0000
  N   N18       1.0  0.04630  0.59391  0.01362  1.0000
  N   N19       1.0  0.22229  0.87372  0.26153  1.0000
  N   N20       1.0  0.12628  0.34857  0.26153  1.0000
  N   N21       1.0  0.65143  0.77771  0.26153  1.0000
  N   N22       1.0  0.88896  0.20705  0.59486  1.0000
  N   N23       1.0  0.79295  0.68190  0.59486  1.0000
  N   N24       1.0  0.31810  0.11104  0.59486  1.0000
  N   N25       1.0  0.55562  0.54039  0.92820  1.0000
  N   N26       1.0  0.45961  0.01524  0.92820  1.0000
  N   N27       1.0  0.98476  0.44438  0.92820  1.0000
  N   N28       1.0  0.77771  0.12628  0.73847  1.0000
  N   N29       1.0  0.87372  0.65143  0.73847  1.0000
  N   N30       1.0  0.34857  0.22229  0.73847  1.0000
  N   N31       1.0  0.11104  0.79295  0.40514  1.0000
  N   N32       1.0  0.20705  0.31810  0.40514  1.0000
  N   N33       1.0  0.68190  0.88896  0.40514  1.0000
  N   N34       1.0  0.44438  0.45961  0.07180  1.0000
  N   N35       1.0  0.54039  0.98476  0.07180  1.0000
  N   N36       1.0  0.01524  0.55562  0.07180  1.0000
  O   O1        1.0  0.48521  0.17616  0.10629  1.0000
  O   O2        1.0  0.82384  0.30905  0.10629  1.0000
  O   O3        1.0  0.69095  0.51479  0.10629  1.0000
  O   O4        1.0  0.15188  0.50949  0.43962  1.0000
  O   O5        1.0  0.49051  0.64238  0.43962  1.0000
  O   O6        1.0  0.35762  0.84812  0.43962  1.0000
  O   O7        1.0  0.81854  0.84283  0.77296  1.0000
  O   O8        1.0  0.15717  0.97572  0.77296  1.0000
  O   O9        1.0  0.02428  0.18146  0.77296  1.0000
  O   O10       1.0  0.51479  0.82384  0.89371  1.0000
  O   O11       1.0  0.17616  0.69095  0.89371  1.0000
  O   O12       1.0  0.30905  0.48521  0.89371  1.0000
  O   O13       1.0  0.84812  0.49051  0.56038  1.0000
  O   O14       1.0  0.50949  0.35762  0.56038  1.0000
  O   O15       1.0  0.64238  0.15188  0.56038  1.0000
  O   O16       1.0  0.18146  0.15717  0.22704  1.0000
  O   O17       1.0  0.84283  0.02428  0.22704  1.0000
  O   O18       1.0  0.97572  0.81854  0.22704  1.0000
  O   O19       1.0  0.56399  0.13762  0.10766  1.0000
  O   O20       1.0  0.86238  0.42637  0.10766  1.0000
  O   O21       1.0  0.57363  0.43601  0.10766  1.0000
  O   O22       1.0  0.23066  0.47095  0.44099  1.0000
  O   O23       1.0  0.52905  0.75970  0.44099  1.0000
  O   O24       1.0  0.24030  0.76934  0.44099  1.0000
  O   O25       1.0  0.89732  0.80429  0.77433  1.0000
  O   O26       1.0  0.19571  0.09304  0.77433  1.0000
  O   O27       1.0  0.90696  0.10268  0.77433  1.0000
  O   O28       1.0  0.43601  0.86238  0.89234  1.0000
  O   O29       1.0  0.13762  0.57363  0.89234  1.0000
  O   O30       1.0  0.42637  0.56399  0.89234  1.0000
  O   O31       1.0  0.76934  0.52905  0.55901  1.0000
  O   O32       1.0  0.47095  0.24030  0.55901  1.0000
  O   O33       1.0  0.75970  0.23066  0.55901  1.0000
  O   O34       1.0  0.10268  0.19571  0.22567  1.0000
  O   O35       1.0  0.80429  0.90696  0.22567  1.0000
  O   O36       1.0  0.09304  0.89732  0.22567  1.0000
  O   O37       1.0  0.40046  0.98995  0.13347  1.0000
  O   O38       1.0  0.01005  0.41051  0.13347  1.0000
  O   O39       1.0  0.58949  0.59954  0.13347  1.0000
  O   O40       1.0  0.06713  0.32328  0.46680  1.0000
  O   O41       1.0  0.67672  0.74384  0.46680  1.0000
  O   O42       1.0  0.25616  0.93287  0.46680  1.0000
  O   O43       1.0  0.73379  0.65662  0.80014  1.0000
  O   O44       1.0  0.34338  0.07718  0.80014  1.0000
  O   O45       1.0  0.92282  0.26621  0.80014  1.0000
  O   O46       1.0  0.59954  0.01005  0.86653  1.0000
  O   O47       1.0  0.98995  0.58949  0.86653  1.0000
  O   O48       1.0  0.41051  0.40046  0.86653  1.0000
  O   O49       1.0  0.93287  0.67672  0.53320  1.0000
  O   O50       1.0  0.32328  0.25616  0.53320  1.0000
  O   O51       1.0  0.74384  0.06713  0.53320  1.0000
  O   O52       1.0  0.26621  0.34338  0.19986  1.0000
  O   O53       1.0  0.65662  0.92282  0.19986  1.0000
  O   O54       1.0  0.07718  0.73379  0.19986  1.0000
  O   O55       1.0  0.46655  0.99512  0.22391  1.0000
  O   O56       1.0  0.00488  0.47143  0.22391  1.0000
  O   O57       1.0  0.52857  0.53345  0.22391  1.0000
  O   O58       1.0  0.13322  0.32845  0.55724  1.0000
  O   O59       1.0  0.67155  0.80476  0.55724  1.0000
  O   O60       1.0  0.19524  0.86678  0.55724  1.0000
  O   O61       1.0  0.79988  0.66179  0.89058  1.0000
  O   O62       1.0  0.33821  0.13810  0.89058  1.0000
  O   O63       1.0  0.86190  0.20012  0.89058  1.0000
  O   O64       1.0  0.53345  0.00488  0.77609  1.0000
  O   O65       1.0  0.99512  0.52857  0.77609  1.0000
  O   O66       1.0  0.47143  0.46655  0.77609  1.0000
  O   O67       1.0  0.86678  0.67155  0.44276  1.0000
  O   O68       1.0  0.32845  0.19524  0.44276  1.0000
  O   O69       1.0  0.80476  0.13322  0.44276  1.0000
  O   O70       1.0  0.20012  0.33821  0.10942  1.0000
  O   O71       1.0  0.66179  0.86190  0.10942  1.0000
  O   O72       1.0  0.13810  0.79988  0.10942  1.0000
  Zn  Zn1       1.0  0.48937  0.04093  0.07974  1.0000
  Zn  Zn2       1.0  0.95907  0.44845  0.07974  1.0000
  Zn  Zn3       1.0  0.55155  0.51063  0.07974  1.0000
  Zn  Zn4       1.0  0.15604  0.37426  0.41307  1.0000
  Zn  Zn5       1.0  0.62574  0.78178  0.41307  1.0000
  Zn  Zn6       1.0  0.21822  0.84396  0.41307  1.0000
  Zn  Zn7       1.0  0.82271  0.70759  0.74641  1.0000
  Zn  Zn8       1.0  0.29241  0.11511  0.74641  1.0000
  Zn  Zn9       1.0  0.88489  0.17729  0.74641  1.0000
  Zn  Zn10      1.0  0.51063  0.95907  0.92026  1.0000
  Zn  Zn11      1.0  0.04093  0.55155  0.92026  1.0000
  Zn  Zn12      1.0  0.44845  0.48937  0.92026  1.0000
  Zn  Zn13      1.0  0.84396  0.62574  0.58693  1.0000
  Zn  Zn14      1.0  0.37426  0.21822  0.58693  1.0000
  Zn  Zn15      1.0  0.78178  0.15604  0.58693  1.0000
  Zn  Zn16      1.0  0.17729  0.29241  0.25359  1.0000
  Zn  Zn17      1.0  0.70759  0.88489  0.25359  1.0000
  Zn  Zn18      1.0  0.11511  0.82271  0.25359  1.0000
