data_image0
_chemical_formula_structural       C6H6C12H6C36H6C12H6C12H6N12O48Zn12
_chemical_formula_sum              "C78 H30 N12 O48 Zn12"
_cell_length_a       13.698
_cell_length_b       13.698
_cell_length_c       34.212
_cell_angle_alpha    90
_cell_angle_beta     90
_cell_angle_gamma    120

_space_group_name_H-M_alt    "P 1"
_space_group_IT_number       1

loop_
  _space_group_symop_operation_xyz
  'x, y, z'

loop_
  _atom_site_type_symbol
  _atom_site_label
  _atom_site_symmetry_multiplicity
  _atom_site_fract_x
  _atom_site_fract_y
  _atom_site_fract_z
  _atom_site_occupancy
  C   C1        1.0  0.08180  0.44550  0.18680  1.0000
  C   C2        1.0  0.55450  0.63630  0.85347  1.0000
  C   C3        1.0  0.36370  0.91820  0.52013  1.0000
  C   C4        1.0  0.44550  0.08180  0.81320  1.0000
  C   C5        1.0  0.63630  0.55450  0.14653  1.0000
  C   C6        1.0  0.91820  0.36370  0.47987  1.0000
  H   H1        1.0  0.08290  0.41480  0.21090  1.0000
  H   H2        1.0  0.58520  0.66810  0.87757  1.0000
  H   H3        1.0  0.33190  0.91710  0.54423  1.0000
  H   H4        1.0  0.41480  0.08290  0.78910  1.0000
  H   H5        1.0  0.66810  0.58520  0.12243  1.0000
  H   H6        1.0  0.91710  0.33190  0.45577  1.0000
  C   C7        1.0  0.17670  0.52330  0.16642  1.0000
  C   C8        1.0  0.47670  0.65340  0.83309  1.0000
  C   C9        1.0  0.34660  0.82330  0.49975  1.0000
  C   C10       1.0  0.52330  0.17670  0.83358  1.0000
  C   C11       1.0  0.65340  0.47670  0.16691  1.0000
  C   C12       1.0  0.82330  0.34660  0.50025  1.0000
  C   C13       1.0  0.13380  0.54670  0.13354  1.0000
  C   C14       1.0  0.45330  0.58710  0.80021  1.0000
  C   C15       1.0  0.41290  0.86620  0.46687  1.0000
  C   C16       1.0  0.54670  0.13380  0.86646  1.0000
  C   C17       1.0  0.58710  0.45330  0.19979  1.0000
  C   C18       1.0  0.86620  0.41290  0.53313  1.0000
  H   H7        1.0  0.17690  0.59850  0.11430  1.0000
  H   H8        1.0  0.40150  0.57840  0.78097  1.0000
  H   H9        1.0  0.42160  0.82310  0.44763  1.0000
  H   H10       1.0  0.59850  0.17690  0.88570  1.0000
  H   H11       1.0  0.57840  0.40150  0.21903  1.0000
  H   H12       1.0  0.82310  0.42160  0.55237  1.0000
  C   C19       1.0  0.29500  0.56690  0.17733  1.0000
  C   C20       1.0  0.43310  0.72810  0.84400  1.0000
  C   C21       1.0  0.27190  0.70500  0.51066  1.0000
  C   C22       1.0  0.56690  0.29500  0.82267  1.0000
  C   C23       1.0  0.72810  0.43310  0.15600  1.0000
  C   C24       1.0  0.70500  0.27190  0.48934  1.0000
  C   C25       1.0  0.56620  0.77590  0.24431  1.0000
  C   C26       1.0  0.22410  0.79030  0.91098  1.0000
  C   C27       1.0  0.20970  0.43380  0.57764  1.0000
  C   C28       1.0  0.77590  0.56620  0.75569  1.0000
  C   C29       1.0  0.79030  0.22410  0.08902  1.0000
  C   C30       1.0  0.43380  0.20970  0.42236  1.0000
  C   C31       1.0  0.59040  0.98450  0.36782  1.0000
  C   C32       1.0  0.01550  0.60590  0.03449  1.0000
  C   C33       1.0  0.39410  0.40960  0.70115  1.0000
  C   C34       1.0  0.98450  0.59040  0.63218  1.0000
  C   C35       1.0  0.60590  0.01550  0.96551  1.0000
  C   C36       1.0  0.40960  0.39410  0.29885  1.0000
  C   C37       1.0  0.78880  0.19490  0.24592  1.0000
  C   C38       1.0  0.80510  0.59390  0.91259  1.0000
  C   C39       1.0  0.40610  0.21120  0.57925  1.0000
  C   C40       1.0  0.19490  0.78880  0.75408  1.0000
  C   C41       1.0  0.59390  0.80510  0.08741  1.0000
  C   C42       1.0  0.21120  0.40610  0.42075  1.0000
  C   C43       1.0  0.71950  0.08560  0.26756  1.0000
  C   C44       1.0  0.91440  0.63390  0.93423  1.0000
  C   C45       1.0  0.36610  0.28050  0.60089  1.0000
  C   C46       1.0  0.08560  0.71950  0.73244  1.0000
  C   C47       1.0  0.63390  0.91440  0.06577  1.0000
  C   C48       1.0  0.28050  0.36610  0.39911  1.0000
  C   C49       1.0  0.67940  0.98370  0.24790  1.0000
  C   C50       1.0  0.01630  0.69570  0.91457  1.0000
  C   C51       1.0  0.30430  0.32060  0.58123  1.0000
  C   C52       1.0  0.98370  0.67940  0.75210  1.0000
  C   C53       1.0  0.69570  0.01630  0.08543  1.0000
  C   C54       1.0  0.32060  0.30430  0.41877  1.0000
  H   H13       1.0  0.69710  0.98340  0.22170  1.0000
  H   H14       1.0  0.01660  0.71370  0.88837  1.0000
  H   H15       1.0  0.28630  0.30290  0.55503  1.0000
  H   H16       1.0  0.98340  0.69710  0.77830  1.0000
  H   H17       1.0  0.71370  0.01660  0.11163  1.0000
  H   H18       1.0  0.30290  0.28630  0.44497  1.0000
  C   C55       1.0  0.61300  0.88240  0.26726  1.0000
  C   C56       1.0  0.11760  0.73060  0.93393  1.0000
  C   C57       1.0  0.26940  0.38700  0.60059  1.0000
  C   C58       1.0  0.88240  0.61300  0.73274  1.0000
  C   C59       1.0  0.73060  0.11760  0.06607  1.0000
  C   C60       1.0  0.38700  0.26940  0.39941  1.0000
  C   C61       1.0  0.58670  0.88200  0.30642  1.0000
  C   C62       1.0  0.11800  0.70470  0.97309  1.0000
  C   C63       1.0  0.29530  0.41330  0.63975  1.0000
  C   C64       1.0  0.88200  0.58670  0.69358  1.0000
  C   C65       1.0  0.70470  0.11800  0.02691  1.0000
  C   C66       1.0  0.41330  0.29530  0.36025  1.0000
  H   H19       1.0  0.54260  0.81410  0.31940  1.0000
  H   H20       1.0  0.18590  0.72850  0.98607  1.0000
  H   H21       1.0  0.27150  0.45740  0.65273  1.0000
  H   H22       1.0  0.81410  0.54260  0.68060  1.0000
  H   H23       1.0  0.72850  0.18590  0.01393  1.0000
  H   H24       1.0  0.45740  0.27150  0.34727  1.0000
  C   C67       1.0  0.62710  0.98430  0.32629  1.0000
  C   C68       1.0  0.01570  0.64280  0.99296  1.0000
  C   C69       1.0  0.35720  0.37290  0.65962  1.0000
  C   C70       1.0  0.98430  0.62710  0.67371  1.0000
  C   C71       1.0  0.64280  0.01570  0.00704  1.0000
  C   C72       1.0  0.37290  0.35720  0.34038  1.0000
  C   C73       1.0  0.69520  0.08550  0.30684  1.0000
  C   C74       1.0  0.91450  0.60970  0.97351  1.0000
  C   C75       1.0  0.39030  0.30480  0.64017  1.0000
  C   C76       1.0  0.08550  0.69520  0.69316  1.0000
  C   C77       1.0  0.60970  0.91450  0.02649  1.0000
  C   C78       1.0  0.30480  0.39030  0.35983  1.0000
  H   H25       1.0  0.72450  0.15330  0.32030  1.0000
  H   H26       1.0  0.84670  0.57120  0.98697  1.0000
  H   H27       1.0  0.42880  0.27550  0.65363  1.0000
  H   H28       1.0  0.15330  0.72450  0.67970  1.0000
  H   H29       1.0  0.57120  0.84670  0.01303  1.0000
  H   H30       1.0  0.27550  0.42880  0.34637  1.0000
  N   N1        1.0  0.98980  0.42160  0.16693  1.0000
  N   N2        1.0  0.57840  0.56820  0.83360  1.0000
  N   N3        1.0  0.43180  0.01020  0.50026  1.0000
  N   N4        1.0  0.42160  0.98980  0.83307  1.0000
  N   N5        1.0  0.56820  0.57840  0.16640  1.0000
  N   N6        1.0  0.01020  0.43180  0.49974  1.0000
  N   N7        1.0  0.02240  0.48490  0.13327  1.0000
  N   N8        1.0  0.51510  0.53750  0.79994  1.0000
  N   N9        1.0  0.46250  0.97760  0.46660  1.0000
  N   N10       1.0  0.48490  0.02240  0.86673  1.0000
  N   N11       1.0  0.53750  0.51510  0.20006  1.0000
  N   N12       1.0  0.97760  0.46250  0.53340  1.0000
  O   O1        1.0  0.36790  0.63920  0.15499  1.0000
  O   O2        1.0  0.36080  0.72870  0.82166  1.0000
  O   O3        1.0  0.27130  0.63210  0.48832  1.0000
  O   O4        1.0  0.63920  0.36790  0.84501  1.0000
  O   O5        1.0  0.72870  0.36080  0.17834  1.0000
  O   O6        1.0  0.63210  0.27130  0.51168  1.0000
  O   O7        1.0  0.31310  0.52810  0.20771  1.0000
  O   O8        1.0  0.47190  0.78500  0.87438  1.0000
  O   O9        1.0  0.21500  0.68690  0.54104  1.0000
  O   O10       1.0  0.52810  0.31310  0.79229  1.0000
  O   O11       1.0  0.78500  0.47190  0.12562  1.0000
  O   O12       1.0  0.68690  0.21500  0.45896  1.0000
  O   O13       1.0  0.57860  0.78590  0.20818  1.0000
  O   O14       1.0  0.21410  0.79270  0.87485  1.0000
  O   O15       1.0  0.20730  0.42140  0.54151  1.0000
  O   O16       1.0  0.78590  0.57860  0.79182  1.0000
  O   O17       1.0  0.79270  0.21410  0.12515  1.0000
  O   O18       1.0  0.42140  0.20730  0.45849  1.0000
  O   O19       1.0  0.51579  0.68409  0.26290  1.0000
  O   O20       1.0  0.31591  0.83170  0.92957  1.0000
  O   O21       1.0  0.16830  0.48421  0.59623  1.0000
  O   O22       1.0  0.68409  0.51579  0.73710  1.0000
  O   O23       1.0  0.83170  0.31591  0.07043  1.0000
  O   O24       1.0  0.48421  0.16830  0.40377  1.0000
  O   O25       1.0  0.79430  0.18260  0.20938  1.0000
  O   O26       1.0  0.81740  0.61170  0.87605  1.0000
  O   O27       1.0  0.38830  0.20570  0.54271  1.0000
  O   O28       1.0  0.18260  0.79430  0.79062  1.0000
  O   O29       1.0  0.61170  0.81740  0.12395  1.0000
  O   O30       1.0  0.20570  0.38830  0.45729  1.0000
  O   O31       1.0  0.82320  0.28490  0.26197  1.0000
  O   O32       1.0  0.71510  0.53830  0.92864  1.0000
  O   O33       1.0  0.46170  0.17680  0.59530  1.0000
  O   O34       1.0  0.28490  0.82320  0.73803  1.0000
  O   O35       1.0  0.53830  0.71510  0.07136  1.0000
  O   O36       1.0  0.17680  0.46170  0.40470  1.0000
  O   O37       1.0  0.63854  0.08090  0.38465  1.0000
  O   O38       1.0  0.91910  0.55764  0.05132  1.0000
  O   O39       1.0  0.44236  0.36146  0.71798  1.0000
  O   O40       1.0  0.08090  0.63854  0.61535  1.0000
  O   O41       1.0  0.55764  0.91910  0.94868  1.0000
  O   O42       1.0  0.36146  0.44236  0.28202  1.0000
  O   O43       1.0  0.51690  0.89900  0.38259  1.0000
  O   O44       1.0  0.10100  0.61790  0.04926  1.0000
  O   O45       1.0  0.38210  0.48310  0.71592  1.0000
  O   O46       1.0  0.89900  0.51690  0.61741  1.0000
  O   O47       1.0  0.61790  0.10100  0.95074  1.0000
  O   O48       1.0  0.48310  0.38210  0.28408  1.0000
  Zn  Zn1       1.0  0.90473  0.46600  0.09554  1.0000
  Zn  Zn2       1.0  0.53400  0.43873  0.76221  1.0000
  Zn  Zn3       1.0  0.56127  0.09527  0.42887  1.0000
  Zn  Zn4       1.0  0.46600  0.90473  0.90446  1.0000
  Zn  Zn5       1.0  0.43873  0.53400  0.23779  1.0000
  Zn  Zn6       1.0  0.09527  0.56127  0.57113  1.0000
  Zn  Zn7       1.0  0.83217  0.30320  0.17377  1.0000
  Zn  Zn8       1.0  0.69680  0.52897  0.84043  1.0000
  Zn  Zn9       1.0  0.47103  0.16783  0.50710  1.0000
  Zn  Zn10      1.0  0.30320  0.83217  0.82623  1.0000
  Zn  Zn11      1.0  0.52897  0.69680  0.15957  1.0000
  Zn  Zn12      1.0  0.16783  0.47103  0.49290  1.0000
