data_image0
_chemical_formula_structural       MnO12C4H2C6H8
_chemical_formula_sum              "Mn1 O12 C10 H10"
_cell_length_a       7.1719
_cell_length_b       9.7324
_cell_length_c       9.816
_cell_angle_alpha    92.764
_cell_angle_beta     101.288
_cell_angle_gamma    95.304

_space_group_name_H-M_alt    "P 1"
_space_group_IT_number       1

loop_
  _space_group_symop_operation_xyz
  'x, y, z'

loop_
  _atom_site_type_symbol
  _atom_site_label
  _atom_site_symmetry_multiplicity
  _atom_site_fract_x
  _atom_site_fract_y
  _atom_site_fract_z
  _atom_site_occupancy
  Mn  Mn1       1.0  0.00000  0.00000  0.00000  1.0000
  O   O1        1.0  0.11521  0.84338  0.87964  1.0000
  O   O2        1.0  0.88479  0.15662  0.12036  1.0000
  O   O3        1.0  0.94207  0.71082  0.69909  1.0000
  O   O4        1.0  0.05793  0.28918  0.30091  1.0000
  O   O5        1.0  0.39792  0.75152  0.16376  1.0000
  O   O6        1.0  0.60208  0.24848  0.83624  1.0000
  O   O7        1.0  0.46703  0.66772  0.96659  1.0000
  O   O8        1.0  0.53297  0.33228  0.03341  1.0000
  O   O9        1.0  0.27838  0.11544  0.05770  1.0000
  O   O10       1.0  0.72162  0.88456  0.94230  1.0000
  O   O11       1.0  0.07382  0.88194  0.18012  1.0000
  O   O12       1.0  0.92618  0.11806  0.81988  1.0000
  C   C1        1.0  0.01770  0.61041  0.91540  1.0000
  C   C2        1.0  0.98230  0.38959  0.08460  1.0000
  C   C3        1.0  0.85010  0.52088  0.89485  1.0000
  C   C4        1.0  0.14990  0.47912  0.10515  1.0000
  H   H1        1.0  0.74670  0.53530  0.82200  1.0000
  H   H2        1.0  0.25330  0.46470  0.17800  1.0000
  C   C5        1.0  0.16990  0.58866  0.02222  1.0000
  C   C6        1.0  0.83010  0.41134  0.97778  1.0000
  C   C7        1.0  0.02560  0.73026  0.82415  1.0000
  C   C8        1.0  0.97440  0.26974  0.17585  1.0000
  C   C9        1.0  0.35940  0.67784  0.05188  1.0000
  C   C10       1.0  0.64060  0.32216  0.94812  1.0000
  H   H3        1.0  0.36300  0.08100  0.10800  1.0000
  H   H4        1.0  0.63700  0.91900  0.89200  1.0000
  H   H5        1.0  0.33800  0.17990  0.03000  1.0000
  H   H6        1.0  0.66200  0.82010  0.97000  1.0000
  H   H7        1.0  0.08400  0.92400  0.25510  1.0000
  H   H8        1.0  0.91600  0.07600  0.74490  1.0000
  H   H9        1.0  0.16600  0.83900  0.17700  1.0000
  H   H10       1.0  0.83400  0.16100  0.82300  1.0000
