data_image0
_chemical_formula_structural       Zn8C8H4C8H4C8H4C36H8C8H8C16H8C8H8C12H4O40
_chemical_formula_sum              "Zn8 C104 H48 O40"
_cell_length_a       25.411
_cell_length_b       16.573
_cell_length_c       16.573
_cell_angle_alpha    90
_cell_angle_beta     90
_cell_angle_gamma    90

_space_group_name_H-M_alt    "P 1"
_space_group_IT_number       1

loop_
  _space_group_symop_operation_xyz
  'x, y, z'

loop_
  _atom_site_type_symbol
  _atom_site_label
  _atom_site_symmetry_multiplicity
  _atom_site_fract_x
  _atom_site_fract_y
  _atom_site_fract_z
  _atom_site_occupancy
  Zn  Zn1       1.0  0.65108  0.29096  0.00000  1.0000
  Zn  Zn2       1.0  0.34892  0.70904  0.00000  1.0000
  Zn  Zn3       1.0  0.15108  0.20904  0.00000  1.0000
  Zn  Zn4       1.0  0.84892  0.79096  0.00000  1.0000
  Zn  Zn5       1.0  0.52791  0.21450  0.00000  1.0000
  Zn  Zn6       1.0  0.47209  0.78550  0.00000  1.0000
  Zn  Zn7       1.0  0.02791  0.28550  0.00000  1.0000
  Zn  Zn8       1.0  0.97209  0.71450  0.00000  1.0000
  C   C1        1.0  0.38060  0.10780  0.00000  1.0000
  C   C2        1.0  0.61940  0.89220  0.00000  1.0000
  C   C3        1.0  0.88060  0.39220  0.00000  1.0000
  C   C4        1.0  0.11940  0.60780  0.00000  1.0000
  C   C5        1.0  0.32780  0.12860  0.00000  1.0000
  C   C6        1.0  0.67220  0.87140  0.00000  1.0000
  C   C7        1.0  0.82780  0.37140  0.00000  1.0000
  C   C8        1.0  0.17220  0.62860  0.00000  1.0000
  H   H1        1.0  0.31911  0.18309  0.00000  1.0000
  H   H2        1.0  0.68089  0.81691  0.00000  1.0000
  H   H3        1.0  0.81911  0.31691  0.00000  1.0000
  H   H4        1.0  0.18089  0.68309  0.00000  1.0000
  C   C9        1.0  0.28680  0.07180  0.00000  1.0000
  C   C10       1.0  0.71320  0.92820  0.00000  1.0000
  C   C11       1.0  0.78680  0.42820  0.00000  1.0000
  C   C12       1.0  0.21320  0.57180  0.00000  1.0000
  C   C13       1.0  0.30060  0.99130  0.00000  1.0000
  C   C14       1.0  0.69940  0.00870  0.00000  1.0000
  C   C15       1.0  0.80060  0.50870  0.00000  1.0000
  C   C16       1.0  0.19940  0.49130  0.00000  1.0000
  H   H5        1.0  0.27434  0.95211  0.00000  1.0000
  H   H6        1.0  0.72566  0.04789  0.00000  1.0000
  H   H7        1.0  0.77434  0.54789  0.00000  1.0000
  H   H8        1.0  0.22566  0.45211  0.00000  1.0000
  C   C17       1.0  0.35430  0.96730  0.00000  1.0000
  C   C18       1.0  0.64570  0.03270  0.00000  1.0000
  C   C19       1.0  0.85430  0.53270  0.00000  1.0000
  C   C20       1.0  0.14570  0.46730  0.00000  1.0000
  C   C21       1.0  0.39270  0.02890  0.00000  1.0000
  C   C22       1.0  0.60730  0.97110  0.00000  1.0000
  C   C23       1.0  0.89270  0.47110  0.00000  1.0000
  C   C24       1.0  0.10730  0.52890  0.00000  1.0000
  H   H9        1.0  0.42799  0.01411  0.00000  1.0000
  H   H10       1.0  0.57201  0.98589  0.00000  1.0000
  H   H11       1.0  0.92799  0.48589  0.00000  1.0000
  H   H12       1.0  0.07201  0.51411  0.00000  1.0000
  C   C25       1.0  0.42410  0.16860  0.00000  1.0000
  C   C26       1.0  0.57590  0.83140  0.00000  1.0000
  C   C27       1.0  0.92410  0.33140  0.00000  1.0000
  C   C28       1.0  0.07590  0.66860  0.00000  1.0000
  C   C29       1.0  0.23190  0.09680  0.00000  1.0000
  C   C30       1.0  0.76810  0.90320  0.00000  1.0000
  C   C31       1.0  0.73190  0.40320  0.00000  1.0000
  C   C32       1.0  0.26810  0.59680  0.00000  1.0000
  C   C33       1.0  0.37050  0.87990  0.00000  1.0000
  C   C34       1.0  0.62950  0.12010  0.00000  1.0000
  C   C35       1.0  0.87050  0.62010  0.00000  1.0000
  C   C36       1.0  0.12950  0.37990  0.00000  1.0000
  C   C37       1.0  0.57170  0.31400  0.87460  1.0000
  C   C38       1.0  0.42830  0.68600  0.87460  1.0000
  C   C39       1.0  0.07170  0.18600  0.12540  1.0000
  C   C40       1.0  0.92830  0.81400  0.12540  1.0000
  C   C41       1.0  0.42830  0.68600  0.12540  1.0000
  C   C42       1.0  0.57170  0.31400  0.12540  1.0000
  C   C43       1.0  0.92830  0.81400  0.87460  1.0000
  C   C44       1.0  0.07170  0.18600  0.87460  1.0000
  C   C45       1.0  0.55920  0.35530  0.79400  1.0000
  C   C46       1.0  0.44080  0.64470  0.79400  1.0000
  C   C47       1.0  0.05920  0.14470  0.20600  1.0000
  C   C48       1.0  0.94080  0.85530  0.20600  1.0000
  C   C49       1.0  0.44080  0.64470  0.20600  1.0000
  C   C50       1.0  0.55920  0.35530  0.20600  1.0000
  C   C51       1.0  0.94080  0.85530  0.79400  1.0000
  C   C52       1.0  0.05920  0.14470  0.79400  1.0000
  C   C53       1.0  0.50640  0.35570  0.76720  1.0000
  C   C54       1.0  0.49360  0.64430  0.76720  1.0000
  C   C55       1.0  0.00640  0.14430  0.23280  1.0000
  C   C56       1.0  0.99360  0.85570  0.23280  1.0000
  C   C57       1.0  0.49360  0.64430  0.23280  1.0000
  C   C58       1.0  0.50640  0.35570  0.23280  1.0000
  C   C59       1.0  0.99360  0.85570  0.76720  1.0000
  C   C60       1.0  0.00640  0.14430  0.76720  1.0000
  H   H13       1.0  0.48013  0.33172  0.79809  1.0000
  H   H14       1.0  0.51987  0.66828  0.79809  1.0000
  H   H15       1.0  0.98013  0.16828  0.20191  1.0000
  H   H16       1.0  0.01987  0.83172  0.20191  1.0000
  H   H17       1.0  0.51987  0.66828  0.20191  1.0000
  H   H18       1.0  0.48013  0.33172  0.20191  1.0000
  H   H19       1.0  0.01987  0.83172  0.79809  1.0000
  H   H20       1.0  0.98013  0.16828  0.79809  1.0000
  C   C61       1.0  0.49420  0.39220  0.69490  1.0000
  C   C62       1.0  0.50580  0.60780  0.69490  1.0000
  C   C63       1.0  0.99420  0.10780  0.30510  1.0000
  C   C64       1.0  0.00580  0.89220  0.30510  1.0000
  C   C65       1.0  0.50580  0.60780  0.30510  1.0000
  C   C66       1.0  0.49420  0.39220  0.30510  1.0000
  C   C67       1.0  0.00580  0.89220  0.69490  1.0000
  C   C68       1.0  0.99420  0.10780  0.69490  1.0000
  H   H21       1.0  0.45963  0.39114  0.67672  1.0000
  H   H22       1.0  0.54037  0.60886  0.67672  1.0000
  H   H23       1.0  0.95963  0.10886  0.32328  1.0000
  H   H24       1.0  0.04037  0.89114  0.32328  1.0000
  H   H25       1.0  0.54037  0.60886  0.32328  1.0000
  H   H26       1.0  0.45963  0.39114  0.32328  1.0000
  H   H27       1.0  0.04037  0.89114  0.67672  1.0000
  H   H28       1.0  0.95963  0.10886  0.67672  1.0000
  C   C69       1.0  0.53110  0.42940  0.64970  1.0000
  C   C70       1.0  0.46890  0.57060  0.64970  1.0000
  C   C71       1.0  0.03110  0.07060  0.35030  1.0000
  C   C72       1.0  0.96890  0.92940  0.35030  1.0000
  C   C73       1.0  0.46890  0.57060  0.35030  1.0000
  C   C74       1.0  0.53110  0.42940  0.35030  1.0000
  C   C75       1.0  0.96890  0.92940  0.64970  1.0000
  C   C76       1.0  0.03110  0.07060  0.64970  1.0000
  C   C77       1.0  0.57890  0.42470  0.67470  1.0000
  C   C78       1.0  0.42110  0.57530  0.67470  1.0000
  C   C79       1.0  0.07890  0.07530  0.32530  1.0000
  C   C80       1.0  0.92110  0.92470  0.32530  1.0000
  C   C81       1.0  0.42110  0.57530  0.32530  1.0000
  C   C82       1.0  0.57890  0.42470  0.32530  1.0000
  C   C83       1.0  0.92110  0.92470  0.67470  1.0000
  C   C84       1.0  0.07890  0.07530  0.67470  1.0000
  H   H29       1.0  0.60455  0.44523  0.64041  1.0000
  H   H30       1.0  0.39545  0.55477  0.64041  1.0000
  H   H31       1.0  0.10455  0.05477  0.35959  1.0000
  H   H32       1.0  0.89545  0.94523  0.35959  1.0000
  H   H33       1.0  0.39545  0.55477  0.35959  1.0000
  H   H34       1.0  0.60455  0.44523  0.35959  1.0000
  H   H35       1.0  0.89545  0.94523  0.64041  1.0000
  H   H36       1.0  0.10455  0.05477  0.64041  1.0000
  C   C85       1.0  0.59680  0.39160  0.74870  1.0000
  C   C86       1.0  0.40320  0.60840  0.74870  1.0000
  C   C87       1.0  0.09680  0.10840  0.25130  1.0000
  C   C88       1.0  0.90320  0.89160  0.25130  1.0000
  C   C89       1.0  0.40320  0.60840  0.25130  1.0000
  C   C90       1.0  0.59680  0.39160  0.25130  1.0000
  C   C91       1.0  0.90320  0.89160  0.74870  1.0000
  C   C92       1.0  0.09680  0.10840  0.74870  1.0000
  H   H37       1.0  0.63180  0.39455  0.76497  1.0000
  H   H38       1.0  0.36820  0.60545  0.76497  1.0000
  H   H39       1.0  0.13180  0.10545  0.23503  1.0000
  H   H40       1.0  0.86820  0.89455  0.23503  1.0000
  H   H41       1.0  0.36820  0.60545  0.23503  1.0000
  H   H42       1.0  0.63180  0.39455  0.23503  1.0000
  H   H43       1.0  0.86820  0.89455  0.76497  1.0000
  H   H44       1.0  0.13180  0.10545  0.76497  1.0000
  C   C93       1.0  0.51560  0.46640  0.57320  1.0000
  C   C94       1.0  0.48440  0.53360  0.57320  1.0000
  C   C95       1.0  0.01560  0.03360  0.42680  1.0000
  C   C96       1.0  0.98440  0.96640  0.42680  1.0000
  C   C97       1.0  0.48440  0.53360  0.42680  1.0000
  C   C98       1.0  0.51560  0.46640  0.42680  1.0000
  C   C99       1.0  0.98440  0.96640  0.57320  1.0000
  C   C100      1.0  0.01560  0.03360  0.57320  1.0000
  C   C101      1.0  0.53260  0.43640  0.50000  1.0000
  C   C102      1.0  0.46740  0.56360  0.50000  1.0000
  C   C103      1.0  0.03260  0.06360  0.50000  1.0000
  C   C104      1.0  0.96740  0.93640  0.50000  1.0000
  H   H45       1.0  0.55651  0.39398  0.50000  1.0000
  H   H46       1.0  0.44349  0.60602  0.50000  1.0000
  H   H47       1.0  0.05651  0.10602  0.50000  1.0000
  H   H48       1.0  0.94349  0.89398  0.50000  1.0000
  O   O1        1.0  0.46880  0.14400  0.00000  1.0000
  O   O2        1.0  0.53120  0.85600  0.00000  1.0000
  O   O3        1.0  0.96880  0.35600  0.00000  1.0000
  O   O4        1.0  0.03120  0.64400  0.00000  1.0000
  O   O5        1.0  0.41160  0.24290  0.00000  1.0000
  O   O6        1.0  0.58840  0.75710  0.00000  1.0000
  O   O7        1.0  0.91160  0.25710  0.00000  1.0000
  O   O8        1.0  0.08840  0.74290  0.00000  1.0000
  O   O9        1.0  0.22300  0.17340  0.00000  1.0000
  O   O10       1.0  0.77700  0.82660  0.00000  1.0000
  O   O11       1.0  0.72300  0.32660  0.00000  1.0000
  O   O12       1.0  0.27700  0.67340  0.00000  1.0000
  O   O13       1.0  0.19670  0.04610  0.00000  1.0000
  O   O14       1.0  0.80330  0.95390  0.00000  1.0000
  O   O15       1.0  0.69670  0.45390  0.00000  1.0000
  O   O16       1.0  0.30330  0.54610  0.00000  1.0000
  O   O17       1.0  0.33600  0.82750  0.00000  1.0000
  O   O18       1.0  0.66400  0.17250  0.00000  1.0000
  O   O19       1.0  0.83600  0.67250  0.00000  1.0000
  O   O20       1.0  0.16400  0.32750  0.00000  1.0000
  O   O21       1.0  0.41700  0.86570  0.00000  1.0000
  O   O22       1.0  0.58300  0.13430  0.00000  1.0000
  O   O23       1.0  0.91700  0.63430  0.00000  1.0000
  O   O24       1.0  0.08300  0.36570  0.00000  1.0000
  O   O25       1.0  0.53310  0.27900  0.90650  1.0000
  O   O26       1.0  0.46690  0.72100  0.90650  1.0000
  O   O27       1.0  0.03310  0.22100  0.09350  1.0000
  O   O28       1.0  0.96690  0.77900  0.09350  1.0000
  O   O29       1.0  0.46690  0.72100  0.09350  1.0000
  O   O30       1.0  0.53310  0.27900  0.09350  1.0000
  O   O31       1.0  0.96690  0.77900  0.90650  1.0000
  O   O32       1.0  0.03310  0.22100  0.90650  1.0000
  O   O33       1.0  0.61640  0.32260  0.90140  1.0000
  O   O34       1.0  0.38360  0.67740  0.90140  1.0000
  O   O35       1.0  0.11640  0.17740  0.09860  1.0000
  O   O36       1.0  0.88360  0.82260  0.09860  1.0000
  O   O37       1.0  0.38360  0.67740  0.09860  1.0000
  O   O38       1.0  0.61640  0.32260  0.09860  1.0000
  O   O39       1.0  0.88360  0.82260  0.90140  1.0000
  O   O40       1.0  0.11640  0.17740  0.90140  1.0000
