data_image0
_chemical_formula_structural       Zn4O32C24H8C24H8C8H8C24H8C8H8
_chemical_formula_sum              "Zn4 O32 C88 H40"
_cell_length_a       23.432
_cell_length_b       9.5422
_cell_length_c       18.9958
_cell_angle_alpha    90
_cell_angle_beta     125.964
_cell_angle_gamma    90

_space_group_name_H-M_alt    "P 1"
_space_group_IT_number       1

loop_
  _space_group_symop_operation_xyz
  'x, y, z'

loop_
  _atom_site_type_symbol
  _atom_site_label
  _atom_site_symmetry_multiplicity
  _atom_site_fract_x
  _atom_site_fract_y
  _atom_site_fract_z
  _atom_site_occupancy
  Zn  Zn1       1.0  0.00000  0.00620  0.75000  1.0000
  Zn  Zn2       1.0  0.50000  0.50620  0.75000  1.0000
  Zn  Zn3       1.0  0.00000  0.99380  0.25000  1.0000
  Zn  Zn4       1.0  0.50000  0.49380  0.25000  1.0000
  O   O1        1.0  0.07198  0.14410  0.83648  1.0000
  O   O2        1.0  0.92802  0.14410  0.66352  1.0000
  O   O3        1.0  0.57198  0.64410  0.83648  1.0000
  O   O4        1.0  0.42802  0.64410  0.66352  1.0000
  O   O5        1.0  0.92802  0.85590  0.16352  1.0000
  O   O6        1.0  0.07198  0.85590  0.33648  1.0000
  O   O7        1.0  0.42802  0.35590  0.16352  1.0000
  O   O8        1.0  0.57198  0.35590  0.33648  1.0000
  O   O9        1.0  0.13060  0.94630  0.89567  1.0000
  O   O10       1.0  0.86940  0.94630  0.60433  1.0000
  O   O11       1.0  0.63060  0.44630  0.89567  1.0000
  O   O12       1.0  0.36940  0.44630  0.60433  1.0000
  O   O13       1.0  0.86940  0.05370  0.10433  1.0000
  O   O14       1.0  0.13060  0.05370  0.39567  1.0000
  O   O15       1.0  0.36940  0.55370  0.10433  1.0000
  O   O16       1.0  0.63060  0.55370  0.39567  1.0000
  O   O17       1.0  0.03949  0.05460  0.18887  1.0000
  O   O18       1.0  0.96051  0.05460  0.31113  1.0000
  O   O19       1.0  0.53949  0.55460  0.18887  1.0000
  O   O20       1.0  0.46051  0.55460  0.31113  1.0000
  O   O21       1.0  0.96051  0.94540  0.81113  1.0000
  O   O22       1.0  0.03949  0.94540  0.68887  1.0000
  O   O23       1.0  0.46051  0.44540  0.81113  1.0000
  O   O24       1.0  0.53949  0.44540  0.68887  1.0000
  O   O25       1.0  0.03398  0.28560  0.19674  1.0000
  O   O26       1.0  0.96602  0.28560  0.30326  1.0000
  O   O27       1.0  0.53398  0.78560  0.19674  1.0000
  O   O28       1.0  0.46602  0.78560  0.30326  1.0000
  O   O29       1.0  0.96602  0.71440  0.80326  1.0000
  O   O30       1.0  0.03398  0.71440  0.69674  1.0000
  O   O31       1.0  0.46602  0.21440  0.80326  1.0000
  O   O32       1.0  0.53398  0.21440  0.69674  1.0000
  C   C1        1.0  0.12665  0.07470  0.89212  1.0000
  C   C2        1.0  0.87335  0.07470  0.60788  1.0000
  C   C3        1.0  0.62665  0.57470  0.89212  1.0000
  C   C4        1.0  0.37335  0.57470  0.60788  1.0000
  C   C5        1.0  0.87335  0.92530  0.10788  1.0000
  C   C6        1.0  0.12665  0.92530  0.39212  1.0000
  C   C7        1.0  0.37335  0.42530  0.10788  1.0000
  C   C8        1.0  0.62665  0.42530  0.39212  1.0000
  C   C9        1.0  0.19129  0.16200  0.95296  1.0000
  C   C10       1.0  0.80871  0.16200  0.54704  1.0000
  C   C11       1.0  0.69129  0.66200  0.95296  1.0000
  C   C12       1.0  0.30871  0.66200  0.54704  1.0000
  C   C13       1.0  0.80871  0.83800  0.04704  1.0000
  C   C14       1.0  0.19129  0.83800  0.45296  1.0000
  C   C15       1.0  0.30871  0.33800  0.04704  1.0000
  C   C16       1.0  0.69129  0.33800  0.45296  1.0000
  C   C17       1.0  0.23597  0.18120  0.92862  1.0000
  C   C18       1.0  0.76403  0.18120  0.57138  1.0000
  C   C19       1.0  0.73597  0.68120  0.92862  1.0000
  C   C20       1.0  0.26403  0.68120  0.57138  1.0000
  C   C21       1.0  0.76403  0.81880  0.07138  1.0000
  C   C22       1.0  0.23597  0.81880  0.42862  1.0000
  C   C23       1.0  0.26403  0.31880  0.07138  1.0000
  C   C24       1.0  0.73597  0.31880  0.42862  1.0000
  H   H1        1.0  0.22610  0.13390  0.87980  1.0000
  H   H2        1.0  0.77390  0.13390  0.62020  1.0000
  H   H3        1.0  0.72610  0.63390  0.87980  1.0000
  H   H4        1.0  0.27390  0.63390  0.62020  1.0000
  H   H5        1.0  0.77390  0.86610  0.12020  1.0000
  H   H6        1.0  0.22610  0.86610  0.37980  1.0000
  H   H7        1.0  0.27390  0.36610  0.12020  1.0000
  H   H8        1.0  0.72610  0.36610  0.37980  1.0000
  C   C25       1.0  0.20485  0.23200  0.02628  1.0000
  C   C26       1.0  0.79515  0.23200  0.47372  1.0000
  C   C27       1.0  0.70485  0.73200  0.02628  1.0000
  C   C28       1.0  0.29515  0.73200  0.47372  1.0000
  C   C29       1.0  0.79515  0.76800  0.97372  1.0000
  C   C30       1.0  0.20485  0.76800  0.52628  1.0000
  C   C31       1.0  0.29515  0.26800  0.97372  1.0000
  C   C32       1.0  0.70485  0.26800  0.52628  1.0000
  C   C33       1.0  0.16072  0.21760  0.05839  1.0000
  C   C34       1.0  0.83928  0.21760  0.44161  1.0000
  C   C35       1.0  0.66072  0.71760  0.05839  1.0000
  C   C36       1.0  0.33928  0.71760  0.44161  1.0000
  C   C37       1.0  0.83928  0.78240  0.94161  1.0000
  C   C38       1.0  0.16072  0.78240  0.55839  1.0000
  C   C39       1.0  0.33928  0.28240  0.94161  1.0000
  C   C40       1.0  0.66072  0.28240  0.55839  1.0000
  C   C41       1.0  0.14871  0.33350  0.09254  1.0000
  C   C42       1.0  0.85129  0.33350  0.40746  1.0000
  C   C43       1.0  0.64871  0.83350  0.09254  1.0000
  C   C44       1.0  0.35129  0.83350  0.40746  1.0000
  C   C45       1.0  0.85129  0.66650  0.90746  1.0000
  C   C46       1.0  0.14871  0.66650  0.59254  1.0000
  C   C47       1.0  0.35129  0.16650  0.90746  1.0000
  C   C48       1.0  0.64871  0.16650  0.59254  1.0000
  H   H9        1.0  0.16580  0.42080  0.09130  1.0000
  H   H10       1.0  0.83420  0.42080  0.40870  1.0000
  H   H11       1.0  0.66580  0.92080  0.09130  1.0000
  H   H12       1.0  0.33420  0.92080  0.40870  1.0000
  H   H13       1.0  0.83420  0.57920  0.90870  1.0000
  H   H14       1.0  0.16580  0.57920  0.59130  1.0000
  H   H15       1.0  0.33420  0.07920  0.90870  1.0000
  H   H16       1.0  0.66580  0.07920  0.59130  1.0000
  C   C49       1.0  0.11184  0.32070  0.12817  1.0000
  C   C50       1.0  0.88816  0.32070  0.37183  1.0000
  C   C51       1.0  0.61184  0.82070  0.12817  1.0000
  C   C52       1.0  0.38816  0.82070  0.37183  1.0000
  C   C53       1.0  0.88816  0.67930  0.87183  1.0000
  C   C54       1.0  0.11184  0.67930  0.62817  1.0000
  C   C55       1.0  0.38816  0.17930  0.87183  1.0000
  C   C56       1.0  0.61184  0.17930  0.62817  1.0000
  H   H17       1.0  0.10400  0.39970  0.15010  1.0000
  H   H18       1.0  0.89600  0.39970  0.34990  1.0000
  H   H19       1.0  0.60400  0.89970  0.15010  1.0000
  H   H20       1.0  0.39600  0.89970  0.34990  1.0000
  H   H21       1.0  0.89600  0.60030  0.84990  1.0000
  H   H22       1.0  0.10400  0.60030  0.65010  1.0000
  H   H23       1.0  0.39600  0.10030  0.84990  1.0000
  H   H24       1.0  0.60400  0.10030  0.65010  1.0000
  C   C57       1.0  0.08644  0.19210  0.13177  1.0000
  C   C58       1.0  0.91356  0.19210  0.36823  1.0000
  C   C59       1.0  0.58644  0.69210  0.13177  1.0000
  C   C60       1.0  0.41356  0.69210  0.36823  1.0000
  C   C61       1.0  0.91356  0.80790  0.86823  1.0000
  C   C62       1.0  0.08644  0.80790  0.63177  1.0000
  C   C63       1.0  0.41356  0.30790  0.86823  1.0000
  C   C64       1.0  0.58644  0.30790  0.63177  1.0000
  C   C65       1.0  0.04966  0.17870  0.17551  1.0000
  C   C66       1.0  0.95034  0.17870  0.32449  1.0000
  C   C67       1.0  0.54966  0.67870  0.17551  1.0000
  C   C68       1.0  0.45034  0.67870  0.32449  1.0000
  C   C69       1.0  0.95034  0.82130  0.82449  1.0000
  C   C70       1.0  0.04966  0.82130  0.67551  1.0000
  C   C71       1.0  0.45034  0.32130  0.82449  1.0000
  C   C72       1.0  0.54966  0.32130  0.67551  1.0000
  C   C73       1.0  0.09681  0.07740  0.09605  1.0000
  C   C74       1.0  0.90319  0.07740  0.40395  1.0000
  C   C75       1.0  0.59681  0.57740  0.09605  1.0000
  C   C76       1.0  0.40319  0.57740  0.40395  1.0000
  C   C77       1.0  0.90319  0.92260  0.90395  1.0000
  C   C78       1.0  0.09681  0.92260  0.59605  1.0000
  C   C79       1.0  0.40319  0.42260  0.90395  1.0000
  C   C80       1.0  0.59681  0.42260  0.59605  1.0000
  H   H25       1.0  0.07890  0.99060  0.09640  1.0000
  H   H26       1.0  0.92110  0.99060  0.40360  1.0000
  H   H27       1.0  0.57890  0.49060  0.09640  1.0000
  H   H28       1.0  0.42110  0.49060  0.40360  1.0000
  H   H29       1.0  0.92110  0.00940  0.90360  1.0000
  H   H30       1.0  0.07890  0.00940  0.59640  1.0000
  H   H31       1.0  0.42110  0.50940  0.90360  1.0000
  H   H32       1.0  0.57890  0.50940  0.59640  1.0000
  C   C81       1.0  0.13336  0.08920  0.05980  1.0000
  C   C82       1.0  0.86664  0.08920  0.44020  1.0000
  C   C83       1.0  0.63336  0.58920  0.05980  1.0000
  C   C84       1.0  0.36664  0.58920  0.44020  1.0000
  C   C85       1.0  0.86664  0.91080  0.94020  1.0000
  C   C86       1.0  0.13336  0.91080  0.55980  1.0000
  C   C87       1.0  0.36664  0.41080  0.94020  1.0000
  C   C88       1.0  0.63336  0.41080  0.55980  1.0000
  H   H33       1.0  0.13970  0.01060  0.03620  1.0000
  H   H34       1.0  0.86030  0.01060  0.46380  1.0000
  H   H35       1.0  0.63970  0.51060  0.03620  1.0000
  H   H36       1.0  0.36030  0.51060  0.46380  1.0000
  H   H37       1.0  0.86030  0.98940  0.96380  1.0000
  H   H38       1.0  0.13970  0.98940  0.53620  1.0000
  H   H39       1.0  0.36030  0.48940  0.96380  1.0000
  H   H40       1.0  0.63970  0.48940  0.53620  1.0000
