data_image0
_chemical_formula_structural       Tb8Cd16O4C4H4N4C4H12C4H12O4C4H4N4C4H12C4H12O4C4H4N4C4H12C4H12O4C4H4N4C4H12C4H12O16C12H4C4H4C20H4C4H4C4H4C4H4O16C12H4C4H4C20H4C4H4C4H4C4H4O16C12H4C4H4C20H4C4H4C4H4C4H4O16C12H4C4H4C20H4C4H4C4H4C4H4O16C12H4C4H4C20H4C4H4C4H4C4H4O16C12H4C4H4C20H4C4H4C4H4C4H4O16C12H4C4H4C20H4C4H4C4H4C4H4O16C12H4C4H4C20H4C4H4C4H4C4H4
_chemical_formula_sum              "Tb8 Cd16 O144 C432 H304 N16"
_cell_length_a       27.6083
_cell_length_b       24.5384
_cell_length_c       19.9492
_cell_angle_alpha    90
_cell_angle_beta     97.5836
_cell_angle_gamma    90

_space_group_name_H-M_alt    "P 1"
_space_group_IT_number       1

loop_
  _space_group_symop_operation_xyz
  'x, y, z'

loop_
  _atom_site_type_symbol
  _atom_site_label
  _atom_site_symmetry_multiplicity
  _atom_site_fract_x
  _atom_site_fract_y
  _atom_site_fract_z
  _atom_site_occupancy
  Tb  Tb1       1.0  0.26084  0.24129  0.50124  1.0000
  Tb  Tb2       1.0  0.73916  0.74129  0.99876  1.0000
  Tb  Tb3       1.0  0.73916  0.75871  0.49876  1.0000
  Tb  Tb4       1.0  0.26084  0.25871  0.00124  1.0000
  Tb  Tb5       1.0  0.77304  0.25617  0.51046  1.0000
  Tb  Tb6       1.0  0.22696  0.75617  0.98954  1.0000
  Tb  Tb7       1.0  0.22696  0.74383  0.48954  1.0000
  Tb  Tb8       1.0  0.77304  0.24383  0.01046  1.0000
  Cd  Cd1       1.0  0.37461  0.34354  0.53200  1.0000
  Cd  Cd2       1.0  0.62539  0.84354  0.96800  1.0000
  Cd  Cd3       1.0  0.62539  0.65646  0.46800  1.0000
  Cd  Cd4       1.0  0.37461  0.15646  0.03200  1.0000
  Cd  Cd5       1.0  0.16308  0.12934  0.49543  1.0000
  Cd  Cd6       1.0  0.83692  0.62934  0.00457  1.0000
  Cd  Cd7       1.0  0.83692  0.87066  0.50457  1.0000
  Cd  Cd8       1.0  0.16308  0.37066  0.99543  1.0000
  Cd  Cd9       1.0  0.65772  0.15294  0.46960  1.0000
  Cd  Cd10      1.0  0.34228  0.65294  0.03040  1.0000
  Cd  Cd11      1.0  0.34228  0.84706  0.53040  1.0000
  Cd  Cd12      1.0  0.65772  0.34706  0.96960  1.0000
  Cd  Cd13      1.0  0.87011  0.37011  0.51001  1.0000
  Cd  Cd14      1.0  0.12989  0.87011  0.98999  1.0000
  Cd  Cd15      1.0  0.12989  0.62989  0.48999  1.0000
  Cd  Cd16      1.0  0.87011  0.12989  0.01001  1.0000
  O   O1        1.0  0.38352  0.43802  0.54030  1.0000
  O   O2        1.0  0.61648  0.93802  0.95970  1.0000
  O   O3        1.0  0.61648  0.56198  0.45970  1.0000
  O   O4        1.0  0.38352  0.06198  0.04030  1.0000
  C   C1        1.0  0.40520  0.46110  0.49370  1.0000
  C   C2        1.0  0.59480  0.96110  0.00630  1.0000
  C   C3        1.0  0.59480  0.53890  0.50630  1.0000
  C   C4        1.0  0.40520  0.03890  0.99370  1.0000
  H   H1        1.0  0.41254  0.43935  0.45702  1.0000
  H   H2        1.0  0.58746  0.93935  0.04298  1.0000
  H   H3        1.0  0.58746  0.56065  0.54298  1.0000
  H   H4        1.0  0.41254  0.06065  0.95702  1.0000
  N   N1        1.0  0.41770  0.51400  0.49460  1.0000
  N   N2        1.0  0.58230  0.01400  0.00540  1.0000
  N   N3        1.0  0.58230  0.48600  0.50540  1.0000
  N   N4        1.0  0.41770  0.98600  0.99460  1.0000
  C   C5        1.0  0.44560  0.53800  0.44240  1.0000
  C   C6        1.0  0.55440  0.03800  0.05760  1.0000
  C   C7        1.0  0.55440  0.46200  0.55760  1.0000
  C   C8        1.0  0.44560  0.96200  0.94240  1.0000
  H   H5        1.0  0.47724  0.55131  0.46415  1.0000
  H   H6        1.0  0.52276  0.05131  0.03585  1.0000
  H   H7        1.0  0.52276  0.44869  0.53585  1.0000
  H   H8        1.0  0.47724  0.94869  0.96415  1.0000
  H   H9        1.0  0.42696  0.56831  0.41975  1.0000
  H   H10       1.0  0.57304  0.06831  0.08025  1.0000
  H   H11       1.0  0.57304  0.43169  0.58025  1.0000
  H   H12       1.0  0.42696  0.93169  0.91975  1.0000
  H   H13       1.0  0.45074  0.51001  0.40898  1.0000
  H   H14       1.0  0.54926  0.01001  0.09102  1.0000
  H   H15       1.0  0.54926  0.48999  0.59102  1.0000
  H   H16       1.0  0.45074  0.98999  0.90898  1.0000
  C   C9        1.0  0.40560  0.54920  0.55080  1.0000
  C   C10       1.0  0.59440  0.04920  0.94920  1.0000
  C   C11       1.0  0.59440  0.45080  0.44920  1.0000
  C   C12       1.0  0.40560  0.95080  0.05080  1.0000
  H   H17       1.0  0.42854  0.57980  0.55700  1.0000
  H   H18       1.0  0.57146  0.07980  0.94300  1.0000
  H   H19       1.0  0.57146  0.42020  0.44300  1.0000
  H   H20       1.0  0.42854  0.92020  0.05700  1.0000
  H   H21       1.0  0.40806  0.52775  0.59259  1.0000
  H   H22       1.0  0.59194  0.02775  0.90741  1.0000
  H   H23       1.0  0.59194  0.47225  0.40741  1.0000
  H   H24       1.0  0.40806  0.97225  0.09259  1.0000
  H   H25       1.0  0.37223  0.56310  0.53991  1.0000
  H   H26       1.0  0.62777  0.06310  0.96009  1.0000
  H   H27       1.0  0.62777  0.43690  0.46009  1.0000
  H   H28       1.0  0.37223  0.93690  0.03991  1.0000
  O   O5        1.0  0.14217  0.03808  0.50200  1.0000
  O   O6        1.0  0.85783  0.53808  0.99800  1.0000
  O   O7        1.0  0.85783  0.96192  0.49800  1.0000
  O   O8        1.0  0.14217  0.46192  0.00200  1.0000
  C   C13       1.0  0.17340  0.00530  0.48960  1.0000
  C   C14       1.0  0.82660  0.50530  0.01040  1.0000
  C   C15       1.0  0.82660  0.99470  0.51040  1.0000
  C   C16       1.0  0.17340  0.49470  0.98960  1.0000
  H   H29       1.0  0.20414  0.01993  0.48240  1.0000
  H   H30       1.0  0.79586  0.51993  0.01760  1.0000
  H   H31       1.0  0.79586  0.98007  0.51760  1.0000
  H   H32       1.0  0.20414  0.48007  0.98240  1.0000
  N   N5        1.0  0.16870  0.95250  0.48530  1.0000
  N   N6        1.0  0.83130  0.45250  0.01470  1.0000
  N   N7        1.0  0.83130  0.04750  0.51470  1.0000
  N   N8        1.0  0.16870  0.54750  0.98530  1.0000
  C   C17       1.0  0.20680  0.91780  0.46570  1.0000
  C   C18       1.0  0.79320  0.41780  0.03430  1.0000
  C   C19       1.0  0.79320  0.08220  0.53430  1.0000
  C   C20       1.0  0.20680  0.58220  0.96570  1.0000
  H   H33       1.0  0.19626  0.90264  0.42064  1.0000
  H   H34       1.0  0.80374  0.40264  0.07936  1.0000
  H   H35       1.0  0.80374  0.09736  0.57936  1.0000
  H   H36       1.0  0.19626  0.59736  0.92064  1.0000
  H   H37       1.0  0.21315  0.88796  0.49838  1.0000
  H   H38       1.0  0.78685  0.38796  0.00162  1.0000
  H   H39       1.0  0.78685  0.11204  0.50162  1.0000
  H   H40       1.0  0.21315  0.61204  0.99838  1.0000
  H   H41       1.0  0.23665  0.93913  0.46479  1.0000
  H   H42       1.0  0.76335  0.43913  0.03521  1.0000
  H   H43       1.0  0.76335  0.06087  0.53521  1.0000
  H   H44       1.0  0.23665  0.56087  0.96479  1.0000
  C   C21       1.0  0.12660  0.92650  0.50380  1.0000
  C   C22       1.0  0.87340  0.42650  0.99620  1.0000
  C   C23       1.0  0.87340  0.07350  0.49620  1.0000
  C   C24       1.0  0.12660  0.57350  0.00380  1.0000
  H   H45       1.0  0.13540  0.89022  0.52213  1.0000
  H   H46       1.0  0.86460  0.39022  0.97787  1.0000
  H   H47       1.0  0.86460  0.10978  0.47787  1.0000
  H   H48       1.0  0.13540  0.60978  0.02213  1.0000
  H   H49       1.0  0.10193  0.92291  0.46396  1.0000
  H   H50       1.0  0.89807  0.42291  0.03604  1.0000
  H   H51       1.0  0.89807  0.07709  0.53604  1.0000
  H   H52       1.0  0.10193  0.57709  0.96396  1.0000
  H   H53       1.0  0.11324  0.94829  0.53827  1.0000
  H   H54       1.0  0.88676  0.44829  0.96173  1.0000
  H   H55       1.0  0.88676  0.05171  0.46173  1.0000
  H   H56       1.0  0.11324  0.55171  0.03827  1.0000
  O   O9        1.0  0.66183  0.05681  0.46450  1.0000
  O   O10       1.0  0.33817  0.55681  0.03550  1.0000
  O   O11       1.0  0.33817  0.94319  0.53550  1.0000
  O   O12       1.0  0.66183  0.44319  0.96450  1.0000
  C   C25       1.0  0.65020  0.03050  0.51040  1.0000
  C   C26       1.0  0.34980  0.53050  0.98960  1.0000
  C   C27       1.0  0.34980  0.96950  0.48960  1.0000
  C   C28       1.0  0.65020  0.46950  0.01040  1.0000
  H   H57       1.0  0.63844  0.04991  0.54615  1.0000
  H   H58       1.0  0.36156  0.54991  0.95385  1.0000
  H   H59       1.0  0.36156  0.95009  0.45385  1.0000
  H   H60       1.0  0.63844  0.45009  0.04615  1.0000
  N   N9        1.0  0.65220  0.97790  0.51550  1.0000
  N   N10       1.0  0.34780  0.47790  0.98450  1.0000
  N   N11       1.0  0.34780  0.02210  0.48450  1.0000
  N   N12       1.0  0.65220  0.52210  0.01550  1.0000
  C   C29       1.0  0.63460  0.94790  0.56850  1.0000
  C   C30       1.0  0.36540  0.44790  0.93150  1.0000
  C   C31       1.0  0.36540  0.05210  0.43150  1.0000
  C   C32       1.0  0.63460  0.55210  0.06850  1.0000
  H   H61       1.0  0.65449  0.91509  0.57811  1.0000
  H   H62       1.0  0.34551  0.41509  0.92189  1.0000
  H   H63       1.0  0.34551  0.08491  0.42189  1.0000
  H   H64       1.0  0.65449  0.58491  0.07811  1.0000
  H   H65       1.0  0.60049  0.93749  0.55450  1.0000
  H   H66       1.0  0.39951  0.43749  0.94550  1.0000
  H   H67       1.0  0.39951  0.06251  0.44550  1.0000
  H   H68       1.0  0.60049  0.56251  0.05450  1.0000
  H   H69       1.0  0.63669  0.97060  0.60918  1.0000
  H   H70       1.0  0.36331  0.47060  0.89082  1.0000
  H   H71       1.0  0.36331  0.02940  0.39082  1.0000
  H   H72       1.0  0.63669  0.52940  0.10918  1.0000
  C   C33       1.0  0.67160  0.94420  0.47030  1.0000
  C   C34       1.0  0.32840  0.44420  0.02970  1.0000
  C   C35       1.0  0.32840  0.05580  0.52970  1.0000
  C   C36       1.0  0.67160  0.55580  0.97030  1.0000
  H   H73       1.0  0.68461  0.91112  0.49374  1.0000
  H   H74       1.0  0.31539  0.41112  0.00626  1.0000
  H   H75       1.0  0.31539  0.08888  0.50626  1.0000
  H   H76       1.0  0.68461  0.58888  0.99374  1.0000
  H   H77       1.0  0.69801  0.96327  0.45166  1.0000
  H   H78       1.0  0.30199  0.46327  0.04834  1.0000
  H   H79       1.0  0.30199  0.03673  0.54834  1.0000
  H   H80       1.0  0.69801  0.53673  0.95166  1.0000
  H   H81       1.0  0.64603  0.93423  0.43353  1.0000
  H   H82       1.0  0.35397  0.43423  0.06647  1.0000
  H   H83       1.0  0.35397  0.06577  0.56647  1.0000
  H   H84       1.0  0.64603  0.56577  0.93353  1.0000
  O   O13       1.0  0.87933  0.46492  0.49860  1.0000
  O   O14       1.0  0.12067  0.96492  0.00140  1.0000
  O   O15       1.0  0.12067  0.53508  0.50140  1.0000
  O   O16       1.0  0.87933  0.03508  0.99860  1.0000
  C   C37       1.0  0.85320  0.49370  0.46320  1.0000
  C   C38       1.0  0.14680  0.99370  0.03680  1.0000
  C   C39       1.0  0.14680  0.50630  0.53680  1.0000
  C   C40       1.0  0.85320  0.00630  0.96320  1.0000
  H   H85       1.0  0.83307  0.47698  0.42655  1.0000
  H   H86       1.0  0.16693  0.97698  0.07345  1.0000
  H   H87       1.0  0.16693  0.52302  0.57345  1.0000
  H   H88       1.0  0.83307  0.02302  0.92655  1.0000
  N   N13       1.0  0.84910  0.54670  0.46960  1.0000
  N   N14       1.0  0.15090  0.04670  0.03040  1.0000
  N   N15       1.0  0.15090  0.45330  0.53040  1.0000
  N   N16       1.0  0.84910  0.95330  0.96960  1.0000
  C   C41       1.0  0.81450  0.58250  0.43270  1.0000
  C   C42       1.0  0.18550  0.08250  0.06730  1.0000
  C   C43       1.0  0.18550  0.41750  0.56730  1.0000
  C   C44       1.0  0.81450  0.91750  0.93270  1.0000
  H   H89       1.0  0.80678  0.61232  0.46218  1.0000
  H   H90       1.0  0.19322  0.11232  0.03782  1.0000
  H   H91       1.0  0.19322  0.38768  0.53782  1.0000
  H   H92       1.0  0.80678  0.88768  0.96218  1.0000
  H   H93       1.0  0.78462  0.56222  0.41673  1.0000
  H   H94       1.0  0.21538  0.06222  0.08327  1.0000
  H   H95       1.0  0.21538  0.43778  0.58327  1.0000
  H   H96       1.0  0.78462  0.93778  0.91673  1.0000
  H   H97       1.0  0.82839  0.59744  0.39386  1.0000
  H   H98       1.0  0.17161  0.09744  0.10614  1.0000
  H   H99       1.0  0.17161  0.40256  0.60614  1.0000
  H   H100      1.0  0.82839  0.90256  0.89386  1.0000
  C   C45       1.0  0.87890  0.57520  0.52010  1.0000
  C   C46       1.0  0.12110  0.07520  0.97990  1.0000
  C   C47       1.0  0.12110  0.42480  0.47990  1.0000
  C   C48       1.0  0.87890  0.92480  0.02010  1.0000
  H   H101      1.0  0.86369  0.61031  0.52810  1.0000
  H   H102      1.0  0.13631  0.11031  0.97190  1.0000
  H   H103      1.0  0.13631  0.38969  0.47190  1.0000
  H   H104      1.0  0.86369  0.88969  0.02810  1.0000
  H   H105      1.0  0.91095  0.58144  0.50558  1.0000
  H   H106      1.0  0.08905  0.08144  0.99442  1.0000
  H   H107      1.0  0.08905  0.41856  0.49442  1.0000
  H   H108      1.0  0.91095  0.91856  0.00558  1.0000
  H   H109      1.0  0.88274  0.55379  0.56192  1.0000
  H   H110      1.0  0.11726  0.05379  0.93808  1.0000
  H   H111      1.0  0.11726  0.44621  0.43808  1.0000
  H   H112      1.0  0.88274  0.94621  0.06192  1.0000
  O   O17       1.0  0.33295  0.35445  0.61900  1.0000
  O   O18       1.0  0.66705  0.85445  0.88100  1.0000
  O   O19       1.0  0.66705  0.64555  0.38100  1.0000
  O   O20       1.0  0.33295  0.14555  0.11900  1.0000
  O   O21       1.0  0.27029  0.29895  0.59150  1.0000
  O   O22       1.0  0.72971  0.79895  0.90850  1.0000
  O   O23       1.0  0.72971  0.70105  0.40850  1.0000
  O   O24       1.0  0.27029  0.20105  0.09150  1.0000
  O   O25       1.0  0.21660  0.31372  0.92113  1.0000
  O   O26       1.0  0.78340  0.81372  0.57887  1.0000
  O   O27       1.0  0.78340  0.68628  0.07887  1.0000
  O   O28       1.0  0.21660  0.18628  0.42113  1.0000
  O   O29       1.0  0.19943  0.39977  0.90493  1.0000
  O   O30       1.0  0.80057  0.89977  0.59507  1.0000
  O   O31       1.0  0.80057  0.60023  0.09507  1.0000
  O   O32       1.0  0.19943  0.10023  0.40493  1.0000
  C   C49       1.0  0.29478  0.33130  0.63030  1.0000
  C   C50       1.0  0.70522  0.83130  0.86970  1.0000
  C   C51       1.0  0.70522  0.66870  0.36970  1.0000
  C   C52       1.0  0.29478  0.16870  0.13030  1.0000
  C   C53       1.0  0.27581  0.34226  0.69700  1.0000
  C   C54       1.0  0.72419  0.84226  0.80300  1.0000
  C   C55       1.0  0.72419  0.65774  0.30300  1.0000
  C   C56       1.0  0.27581  0.15774  0.19700  1.0000
  C   C57       1.0  0.26093  0.29810  0.73050  1.0000
  C   C58       1.0  0.73907  0.79810  0.76950  1.0000
  C   C59       1.0  0.73907  0.70190  0.26950  1.0000
  C   C60       1.0  0.26093  0.20190  0.23050  1.0000
  H   H113      1.0  0.26197  0.26285  0.71110  1.0000
  H   H114      1.0  0.73803  0.76285  0.78890  1.0000
  H   H115      1.0  0.73803  0.73715  0.28890  1.0000
  H   H116      1.0  0.26197  0.23715  0.21110  1.0000
  C   C61       1.0  0.24409  0.30432  0.79340  1.0000
  C   C62       1.0  0.75591  0.80432  0.70660  1.0000
  C   C63       1.0  0.75591  0.69568  0.20660  1.0000
  C   C64       1.0  0.24409  0.19568  0.29340  1.0000
  H   H117      1.0  0.23509  0.27293  0.81680  1.0000
  H   H118      1.0  0.76491  0.77293  0.68320  1.0000
  H   H119      1.0  0.76491  0.72707  0.18320  1.0000
  H   H120      1.0  0.23509  0.22707  0.31680  1.0000
  C   C65       1.0  0.24036  0.35479  0.82190  1.0000
  C   C66       1.0  0.75964  0.85479  0.67810  1.0000
  C   C67       1.0  0.75964  0.64521  0.17810  1.0000
  C   C68       1.0  0.24036  0.14521  0.32190  1.0000
  C   C69       1.0  0.21807  0.35710  0.88700  1.0000
  C   C70       1.0  0.78193  0.85710  0.61300  1.0000
  C   C71       1.0  0.78193  0.64290  0.11300  1.0000
  C   C72       1.0  0.21807  0.14290  0.38700  1.0000
  C   C73       1.0  0.25560  0.40192  0.78860  1.0000
  C   C74       1.0  0.74440  0.90192  0.71140  1.0000
  C   C75       1.0  0.74440  0.59808  0.21140  1.0000
  C   C76       1.0  0.25560  0.09808  0.28860  1.0000
  C   C77       1.0  0.27440  0.39529  0.72490  1.0000
  C   C78       1.0  0.72560  0.89529  0.77510  1.0000
  C   C79       1.0  0.72560  0.60471  0.27510  1.0000
  C   C80       1.0  0.27440  0.10471  0.22490  1.0000
  C   C81       1.0  0.28950  0.44180  0.69240  1.0000
  C   C82       1.0  0.71050  0.94180  0.80760  1.0000
  C   C83       1.0  0.71050  0.55820  0.30760  1.0000
  C   C84       1.0  0.28950  0.05820  0.19240  1.0000
  H   H121      1.0  0.30180  0.43783  0.65045  1.0000
  H   H122      1.0  0.69820  0.93783  0.84955  1.0000
  H   H123      1.0  0.69820  0.56217  0.34955  1.0000
  H   H124      1.0  0.30180  0.06217  0.15045  1.0000
  C   C85       1.0  0.28690  0.49250  0.71960  1.0000
  C   C86       1.0  0.71310  0.99250  0.78040  1.0000
  C   C87       1.0  0.71310  0.50750  0.28040  1.0000
  C   C88       1.0  0.28690  0.00750  0.21960  1.0000
  H   H125      1.0  0.29764  0.52332  0.69681  1.0000
  H   H126      1.0  0.70236  0.02332  0.80319  1.0000
  H   H127      1.0  0.70236  0.47668  0.30319  1.0000
  H   H128      1.0  0.29764  0.97668  0.19681  1.0000
  C   C89       1.0  0.26850  0.49910  0.78080  1.0000
  C   C90       1.0  0.73150  0.99910  0.71920  1.0000
  C   C91       1.0  0.73150  0.50090  0.21920  1.0000
  C   C92       1.0  0.26850  0.00090  0.28080  1.0000
  H   H129      1.0  0.26643  0.53462  0.79912  1.0000
  H   H130      1.0  0.73357  0.03462  0.70088  1.0000
  H   H131      1.0  0.73357  0.46538  0.20088  1.0000
  H   H132      1.0  0.26643  0.96538  0.29912  1.0000
  C   C93       1.0  0.25350  0.45590  0.81450  1.0000
  C   C94       1.0  0.74650  0.95590  0.68550  1.0000
  C   C95       1.0  0.74650  0.54410  0.18550  1.0000
  C   C96       1.0  0.25350  0.04410  0.31450  1.0000
  H   H133      1.0  0.24129  0.46153  0.85633  1.0000
  H   H134      1.0  0.75871  0.96153  0.64367  1.0000
  H   H135      1.0  0.75871  0.53847  0.14367  1.0000
  H   H136      1.0  0.24129  0.03847  0.35633  1.0000
  O   O33       1.0  0.27846  0.30917  0.43231  1.0000
  O   O34       1.0  0.72154  0.80917  0.06769  1.0000
  O   O35       1.0  0.72154  0.69083  0.56769  1.0000
  O   O36       1.0  0.27846  0.19083  0.93231  1.0000
  O   O37       1.0  0.34370  0.35875  0.42337  1.0000
  O   O38       1.0  0.65630  0.85875  0.07663  1.0000
  O   O39       1.0  0.65630  0.64125  0.57663  1.0000
  O   O40       1.0  0.34370  0.14125  0.92337  1.0000
  O   O41       1.0  0.27566  0.32993  0.07458  1.0000
  O   O42       1.0  0.72434  0.82993  0.42542  1.0000
  O   O43       1.0  0.72434  0.67007  0.92542  1.0000
  O   O44       1.0  0.27566  0.17007  0.57458  1.0000
  O   O45       1.0  0.21731  0.39098  0.08457  1.0000
  O   O46       1.0  0.78269  0.89098  0.41543  1.0000
  O   O47       1.0  0.78269  0.60902  0.91543  1.0000
  O   O48       1.0  0.21731  0.10902  0.58457  1.0000
  C   C97       1.0  0.30420  0.33793  0.39910  1.0000
  C   C98       1.0  0.69580  0.83793  0.10090  1.0000
  C   C99       1.0  0.69580  0.66207  0.60090  1.0000
  C   C100      1.0  0.30420  0.16207  0.89910  1.0000
  C   C101      1.0  0.28712  0.34637  0.32500  1.0000
  C   C102      1.0  0.71288  0.84637  0.17500  1.0000
  C   C103      1.0  0.71288  0.65363  0.67500  1.0000
  C   C104      1.0  0.28712  0.15363  0.82500  1.0000
  C   C105      1.0  0.32198  0.34870  0.28250  1.0000
  C   C106      1.0  0.67802  0.84870  0.21750  1.0000
  C   C107      1.0  0.67802  0.65130  0.71750  1.0000
  C   C108      1.0  0.32198  0.15130  0.78250  1.0000
  H   H137      1.0  0.35555  0.34822  0.30072  1.0000
  H   H138      1.0  0.64445  0.84822  0.19928  1.0000
  H   H139      1.0  0.64445  0.65178  0.69928  1.0000
  H   H140      1.0  0.35555  0.15178  0.80072  1.0000
  C   C109      1.0  0.30895  0.35180  0.21240  1.0000
  C   C110      1.0  0.69105  0.85180  0.28760  1.0000
  C   C111      1.0  0.69105  0.64820  0.78760  1.0000
  C   C112      1.0  0.30895  0.14820  0.71240  1.0000
  H   H141      1.0  0.33389  0.35240  0.18387  1.0000
  H   H142      1.0  0.66611  0.85240  0.31613  1.0000
  H   H143      1.0  0.66611  0.64760  0.81613  1.0000
  H   H144      1.0  0.33389  0.14760  0.68387  1.0000
  C   C113      1.0  0.26125  0.35402  0.18430  1.0000
  C   C114      1.0  0.73875  0.85402  0.31570  1.0000
  C   C115      1.0  0.73875  0.64598  0.81570  1.0000
  C   C116      1.0  0.26125  0.14598  0.68430  1.0000
  C   C117      1.0  0.25035  0.35863  0.10890  1.0000
  C   C118      1.0  0.74965  0.85863  0.39110  1.0000
  C   C119      1.0  0.74965  0.64137  0.89110  1.0000
  C   C120      1.0  0.25035  0.14137  0.60890  1.0000
  C   C121      1.0  0.22321  0.35199  0.22660  1.0000
  C   C122      1.0  0.77679  0.85199  0.27340  1.0000
  C   C123      1.0  0.77679  0.64801  0.77340  1.0000
  C   C124      1.0  0.22321  0.14801  0.72660  1.0000
  C   C125      1.0  0.23631  0.34871  0.29810  1.0000
  C   C126      1.0  0.76369  0.84871  0.20190  1.0000
  C   C127      1.0  0.76369  0.65129  0.70190  1.0000
  C   C128      1.0  0.23631  0.15129  0.79810  1.0000
  C   C129      1.0  0.19805  0.34830  0.33930  1.0000
  C   C130      1.0  0.80195  0.84830  0.16070  1.0000
  C   C131      1.0  0.80195  0.65170  0.66070  1.0000
  C   C132      1.0  0.19805  0.15170  0.83930  1.0000
  H   H145      1.0  0.20589  0.34801  0.38710  1.0000
  H   H146      1.0  0.79411  0.84801  0.11290  1.0000
  H   H147      1.0  0.79411  0.65199  0.61290  1.0000
  H   H148      1.0  0.20589  0.15199  0.88710  1.0000
  C   C133      1.0  0.15040  0.34820  0.31130  1.0000
  C   C134      1.0  0.84960  0.84820  0.18870  1.0000
  C   C135      1.0  0.84960  0.65180  0.68870  1.0000
  C   C136      1.0  0.15040  0.15180  0.81130  1.0000
  H   H149      1.0  0.12529  0.34831  0.33957  1.0000
  H   H150      1.0  0.87471  0.84831  0.16043  1.0000
  H   H151      1.0  0.87471  0.65169  0.66043  1.0000
  H   H152      1.0  0.12529  0.15169  0.83957  1.0000
  C   C137      1.0  0.13830  0.34790  0.24160  1.0000
  C   C138      1.0  0.86170  0.84790  0.25840  1.0000
  C   C139      1.0  0.86170  0.65210  0.75840  1.0000
  C   C140      1.0  0.13830  0.15210  0.74160  1.0000
  H   H153      1.0  0.10484  0.34642  0.22295  1.0000
  H   H154      1.0  0.89516  0.84642  0.27705  1.0000
  H   H155      1.0  0.89516  0.65358  0.77705  1.0000
  H   H156      1.0  0.10484  0.15358  0.72295  1.0000
  C   C141      1.0  0.17281  0.34980  0.19950  1.0000
  C   C142      1.0  0.82719  0.84980  0.30050  1.0000
  C   C143      1.0  0.82719  0.65020  0.80050  1.0000
  C   C144      1.0  0.17281  0.15020  0.69950  1.0000
  H   H157      1.0  0.16350  0.34967  0.15195  1.0000
  H   H158      1.0  0.83650  0.84967  0.34805  1.0000
  H   H159      1.0  0.83650  0.65033  0.84805  1.0000
  H   H160      1.0  0.16350  0.15033  0.65195  1.0000
  O   O49       1.0  0.35180  0.25105  0.52455  1.0000
  O   O50       1.0  0.64820  0.75105  0.97545  1.0000
  O   O51       1.0  0.64820  0.74895  0.47545  1.0000
  O   O52       1.0  0.35180  0.24895  0.02455  1.0000
  O   O53       1.0  0.32144  0.19203  0.44758  1.0000
  O   O54       1.0  0.67856  0.69203  0.05242  1.0000
  O   O55       1.0  0.67856  0.80797  0.55242  1.0000
  O   O56       1.0  0.32144  0.30797  0.94758  1.0000
  O   O57       1.0  0.58083  0.16995  0.40918  1.0000
  O   O58       1.0  0.41917  0.66995  0.09082  1.0000
  O   O59       1.0  0.41917  0.83005  0.59082  1.0000
  O   O60       1.0  0.58083  0.33005  0.90918  1.0000
  O   O61       1.0  0.58449  0.14591  0.51550  1.0000
  O   O62       1.0  0.41551  0.64591  0.98450  1.0000
  O   O63       1.0  0.41551  0.85409  0.48450  1.0000
  O   O64       1.0  0.58449  0.35409  0.01550  1.0000
  C   C145      1.0  0.35763  0.21540  0.48020  1.0000
  C   C146      1.0  0.64237  0.71540  0.01980  1.0000
  C   C147      1.0  0.64237  0.78460  0.51980  1.0000
  C   C148      1.0  0.35763  0.28460  0.98020  1.0000
  C   C149      1.0  0.40894  0.19960  0.46970  1.0000
  C   C150      1.0  0.59106  0.69960  0.03030  1.0000
  C   C151      1.0  0.59106  0.80040  0.53030  1.0000
  C   C152      1.0  0.40894  0.30040  0.96970  1.0000
  C   C153      1.0  0.44354  0.20180  0.52520  1.0000
  C   C154      1.0  0.55646  0.70180  0.97480  1.0000
  C   C155      1.0  0.55646  0.79820  0.47480  1.0000
  C   C156      1.0  0.44354  0.29820  0.02520  1.0000
  H   H161      1.0  0.43466  0.21378  0.56721  1.0000
  H   H162      1.0  0.56534  0.71378  0.93279  1.0000
  H   H163      1.0  0.56534  0.78622  0.43279  1.0000
  H   H164      1.0  0.43466  0.28622  0.06721  1.0000
  C   C157      1.0  0.49200  0.18650  0.52120  1.0000
  C   C158      1.0  0.50800  0.68650  0.97880  1.0000
  C   C159      1.0  0.50800  0.81350  0.47880  1.0000
  C   C160      1.0  0.49200  0.31350  0.02120  1.0000
  H   H165      1.0  0.51520  0.18679  0.56083  1.0000
  H   H166      1.0  0.48480  0.68679  0.93917  1.0000
  H   H167      1.0  0.48480  0.81321  0.43917  1.0000
  H   H168      1.0  0.51520  0.31321  0.06083  1.0000
  C   C161      1.0  0.50634  0.17100  0.46060  1.0000
  C   C162      1.0  0.49366  0.67100  0.03940  1.0000
  C   C163      1.0  0.49366  0.82900  0.53940  1.0000
  C   C164      1.0  0.50634  0.32900  0.96060  1.0000
  C   C165      1.0  0.56052  0.16110  0.46040  1.0000
  C   C166      1.0  0.43948  0.66110  0.03960  1.0000
  C   C167      1.0  0.43948  0.83890  0.53960  1.0000
  C   C168      1.0  0.56052  0.33890  0.96040  1.0000
  C   C169      1.0  0.47105  0.16730  0.40090  1.0000
  C   C170      1.0  0.52895  0.66730  0.09910  1.0000
  C   C171      1.0  0.52895  0.83270  0.59910  1.0000
  C   C172      1.0  0.47105  0.33270  0.90090  1.0000
  C   C173      1.0  0.42130  0.18170  0.40570  1.0000
  C   C174      1.0  0.57870  0.68170  0.09430  1.0000
  C   C175      1.0  0.57870  0.81830  0.59430  1.0000
  C   C176      1.0  0.42130  0.31830  0.90570  1.0000
  C   C177      1.0  0.38720  0.17810  0.34650  1.0000
  C   C178      1.0  0.61280  0.67810  0.15350  1.0000
  C   C179      1.0  0.61280  0.82190  0.65350  1.0000
  C   C180      1.0  0.38720  0.32190  0.84650  1.0000
  H   H169      1.0  0.35401  0.18749  0.34818  1.0000
  H   H170      1.0  0.64599  0.68749  0.15182  1.0000
  H   H171      1.0  0.64599  0.81251  0.65182  1.0000
  H   H172      1.0  0.35401  0.31251  0.84818  1.0000
  C   C181      1.0  0.40120  0.16130  0.28740  1.0000
  C   C182      1.0  0.59880  0.66130  0.21260  1.0000
  C   C183      1.0  0.59880  0.83870  0.71260  1.0000
  C   C184      1.0  0.40120  0.33870  0.78740  1.0000
  H   H173      1.0  0.37769  0.15943  0.24813  1.0000
  H   H174      1.0  0.62231  0.65943  0.25187  1.0000
  H   H175      1.0  0.62231  0.84057  0.75187  1.0000
  H   H176      1.0  0.37769  0.34057  0.74813  1.0000
  C   C185      1.0  0.44900  0.14670  0.28280  1.0000
  C   C186      1.0  0.55100  0.64670  0.21720  1.0000
  C   C187      1.0  0.55100  0.85330  0.71720  1.0000
  C   C188      1.0  0.44900  0.35330  0.78280  1.0000
  H   H177      1.0  0.45786  0.13451  0.24087  1.0000
  H   H178      1.0  0.54214  0.63451  0.25913  1.0000
  H   H179      1.0  0.54214  0.86549  0.75913  1.0000
  H   H180      1.0  0.45786  0.36549  0.74087  1.0000
  C   C189      1.0  0.48300  0.14980  0.33760  1.0000
  C   C190      1.0  0.51700  0.64980  0.16240  1.0000
  C   C191      1.0  0.51700  0.85020  0.66240  1.0000
  C   C192      1.0  0.48300  0.35020  0.83760  1.0000
  H   H181      1.0  0.51580  0.13999  0.33368  1.0000
  H   H182      1.0  0.48420  0.63999  0.16632  1.0000
  H   H183      1.0  0.48420  0.86001  0.66632  1.0000
  H   H184      1.0  0.51580  0.36001  0.83368  1.0000
  O   O65       1.0  0.18570  0.29344  0.48122  1.0000
  O   O66       1.0  0.81430  0.79344  0.01878  1.0000
  O   O67       1.0  0.81430  0.70656  0.51878  1.0000
  O   O68       1.0  0.18570  0.20656  0.98122  1.0000
  O   O69       1.0  0.18022  0.22064  0.54366  1.0000
  O   O70       1.0  0.81978  0.72064  0.95634  1.0000
  O   O71       1.0  0.81978  0.77936  0.45634  1.0000
  O   O72       1.0  0.18022  0.27936  0.04366  1.0000
  O   O73       1.0  0.94107  0.33863  0.57620  1.0000
  O   O74       1.0  0.05893  0.83863  0.92380  1.0000
  O   O75       1.0  0.05893  0.66137  0.42380  1.0000
  O   O76       1.0  0.94107  0.16137  0.07620  1.0000
  O   O77       1.0  0.94441  0.36081  0.47090  1.0000
  O   O78       1.0  0.05559  0.86081  0.02910  1.0000
  O   O79       1.0  0.05559  0.63919  0.52910  1.0000
  O   O80       1.0  0.94441  0.13919  0.97090  1.0000
  C   C193      1.0  0.16198  0.26422  0.51650  1.0000
  C   C194      1.0  0.83802  0.76422  0.98350  1.0000
  C   C195      1.0  0.83802  0.73578  0.48350  1.0000
  C   C196      1.0  0.16198  0.23578  0.01650  1.0000
  C   C197      1.0  0.11111  0.28240  0.52490  1.0000
  C   C198      1.0  0.88889  0.78240  0.97510  1.0000
  C   C199      1.0  0.88889  0.71760  0.47510  1.0000
  C   C200      1.0  0.11111  0.21760  0.02490  1.0000
  C   C201      1.0  0.07979  0.29140  0.46640  1.0000
  C   C202      1.0  0.92021  0.79140  0.03360  1.0000
  C   C203      1.0  0.92021  0.70860  0.53360  1.0000
  C   C204      1.0  0.07979  0.20860  0.96640  1.0000
  H   H185      1.0  0.09005  0.28389  0.42370  1.0000
  H   H186      1.0  0.90995  0.78389  0.07630  1.0000
  H   H187      1.0  0.90995  0.71611  0.57630  1.0000
  H   H188      1.0  0.09005  0.21611  0.92370  1.0000
  C   C205      1.0  0.03276  0.31150  0.46990  1.0000
  C   C206      1.0  0.96724  0.81150  0.03010  1.0000
  C   C207      1.0  0.96724  0.68850  0.53010  1.0000
  C   C208      1.0  0.03276  0.18850  0.96990  1.0000
  H   H189      1.0  0.01130  0.31736  0.42926  1.0000
  H   H190      1.0  0.98870  0.81736  0.07074  1.0000
  H   H191      1.0  0.98870  0.68264  0.57074  1.0000
  H   H192      1.0  0.01130  0.18264  0.92926  1.0000
  C   C209      1.0  0.01692  0.32300  0.53090  1.0000
  C   C210      1.0  0.98308  0.82300  0.96910  1.0000
  C   C211      1.0  0.98308  0.67700  0.46910  1.0000
  C   C212      1.0  0.01692  0.17700  0.03090  1.0000
  C   C213      1.0  0.96400  0.34210  0.52660  1.0000
  C   C214      1.0  0.03600  0.84210  0.97340  1.0000
  C   C215      1.0  0.03600  0.65790  0.47340  1.0000
  C   C216      1.0  0.96400  0.15790  0.02660  1.0000
  C   C217      1.0  0.04799  0.31380  0.59200  1.0000
  C   C218      1.0  0.95201  0.81380  0.90800  1.0000
  C   C219      1.0  0.95201  0.68620  0.40800  1.0000
  C   C220      1.0  0.04799  0.18620  0.09200  1.0000
  C   C221      1.0  0.09639  0.29292  0.58900  1.0000
  C   C222      1.0  0.90361  0.79292  0.91100  1.0000
  C   C223      1.0  0.90361  0.70708  0.41100  1.0000
  C   C224      1.0  0.09639  0.20708  0.08900  1.0000
  C   C225      1.0  0.12839  0.28520  0.64940  1.0000
  C   C226      1.0  0.87161  0.78520  0.85060  1.0000
  C   C227      1.0  0.87161  0.71480  0.35060  1.0000
  C   C228      1.0  0.12839  0.21480  0.14940  1.0000
  H   H193      1.0  0.16049  0.27190  0.64731  1.0000
  H   H194      1.0  0.83951  0.77190  0.85269  1.0000
  H   H195      1.0  0.83951  0.72810  0.35269  1.0000
  H   H196      1.0  0.16049  0.22810  0.14731  1.0000
  C   C229      1.0  0.11420  0.29620  0.70990  1.0000
  C   C230      1.0  0.88580  0.79620  0.79010  1.0000
  C   C231      1.0  0.88580  0.70380  0.29010  1.0000
  C   C232      1.0  0.11420  0.20380  0.20990  1.0000
  H   H197      1.0  0.13618  0.29043  0.75006  1.0000
  H   H198      1.0  0.86382  0.79043  0.74994  1.0000
  H   H199      1.0  0.86382  0.70957  0.24994  1.0000
  H   H200      1.0  0.13618  0.20957  0.25006  1.0000
  C   C233      1.0  0.06700  0.31630  0.71400  1.0000
  C   C234      1.0  0.93300  0.81630  0.78600  1.0000
  C   C235      1.0  0.93300  0.68370  0.28600  1.0000
  C   C236      1.0  0.06700  0.18370  0.21400  1.0000
  H   H201      1.0  0.05755  0.32424  0.75712  1.0000
  H   H202      1.0  0.94245  0.82424  0.74288  1.0000
  H   H203      1.0  0.94245  0.67576  0.24288  1.0000
  H   H204      1.0  0.05755  0.17576  0.25712  1.0000
  C   C237      1.0  0.03420  0.32460  0.65690  1.0000
  C   C238      1.0  0.96580  0.82460  0.84310  1.0000
  C   C239      1.0  0.96580  0.67540  0.34310  1.0000
  C   C240      1.0  0.03420  0.17540  0.15690  1.0000
  H   H205      1.0  0.00226  0.33765  0.66070  1.0000
  H   H206      1.0  0.99774  0.83765  0.83930  1.0000
  H   H207      1.0  0.99774  0.66235  0.33930  1.0000
  H   H208      1.0  0.00226  0.16235  0.16070  1.0000
  O   O81       1.0  0.44907  0.34110  0.49200  1.0000
  O   O82       1.0  0.55093  0.84110  0.00800  1.0000
  O   O83       1.0  0.55093  0.65890  0.50800  1.0000
  O   O84       1.0  0.44907  0.15890  0.99200  1.0000
  O   O85       1.0  0.45100  0.32568  0.60010  1.0000
  O   O86       1.0  0.54900  0.82568  0.89990  1.0000
  O   O87       1.0  0.54900  0.67432  0.39990  1.0000
  O   O88       1.0  0.45100  0.17432  0.10010  1.0000
  O   O89       1.0  0.68293  0.24376  0.48320  1.0000
  O   O90       1.0  0.31707  0.74376  0.01680  1.0000
  O   O91       1.0  0.31707  0.75624  0.51680  1.0000
  O   O92       1.0  0.68293  0.25624  0.98320  1.0000
  O   O93       1.0  0.70959  0.30429  0.55994  1.0000
  O   O94       1.0  0.29041  0.80429  0.94006  1.0000
  O   O95       1.0  0.29041  0.69571  0.44006  1.0000
  O   O96       1.0  0.70959  0.19571  0.05994  1.0000
  C   C241      1.0  0.47176  0.32850  0.54790  1.0000
  C   C242      1.0  0.52824  0.82850  0.95210  1.0000
  C   C243      1.0  0.52824  0.67150  0.45210  1.0000
  C   C244      1.0  0.47176  0.17150  0.04790  1.0000
  C   C245      1.0  0.52585  0.31470  0.55040  1.0000
  C   C246      1.0  0.47415  0.81470  0.94960  1.0000
  C   C247      1.0  0.47415  0.68530  0.44960  1.0000
  C   C248      1.0  0.52585  0.18530  0.05040  1.0000
  C   C249      1.0  0.54148  0.30940  0.48840  1.0000
  C   C250      1.0  0.45852  0.80940  0.01160  1.0000
  C   C251      1.0  0.45852  0.69060  0.51160  1.0000
  C   C252      1.0  0.54148  0.19060  0.98840  1.0000
  H   H209      1.0  0.51904  0.31534  0.44873  1.0000
  H   H210      1.0  0.48096  0.81534  0.05127  1.0000
  H   H211      1.0  0.48096  0.68466  0.55127  1.0000
  H   H212      1.0  0.51904  0.18466  0.94873  1.0000
  C   C253      1.0  0.58961  0.29550  0.48230  1.0000
  C   C254      1.0  0.41039  0.79550  0.01770  1.0000
  C   C255      1.0  0.41039  0.70450  0.51770  1.0000
  C   C256      1.0  0.58961  0.20450  0.98230  1.0000
  H   H213      1.0  0.59907  0.28968  0.43881  1.0000
  H   H214      1.0  0.40093  0.78968  0.06119  1.0000
  H   H215      1.0  0.40093  0.71032  0.56119  1.0000
  H   H216      1.0  0.59907  0.21032  0.93881  1.0000
  C   C257      1.0  0.62334  0.29015  0.53870  1.0000
  C   C258      1.0  0.37666  0.79015  0.96130  1.0000
  C   C259      1.0  0.37666  0.70985  0.46130  1.0000
  C   C260      1.0  0.62334  0.20985  0.03870  1.0000
  C   C261      1.0  0.67496  0.27876  0.52780  1.0000
  C   C262      1.0  0.32504  0.77876  0.97220  1.0000
  C   C263      1.0  0.32504  0.72124  0.47220  1.0000
  C   C264      1.0  0.67496  0.22124  0.02780  1.0000
  C   C265      1.0  0.60926  0.29540  0.60430  1.0000
  C   C266      1.0  0.39074  0.79540  0.89570  1.0000
  C   C267      1.0  0.39074  0.70460  0.39570  1.0000
  C   C268      1.0  0.60926  0.20460  0.10430  1.0000
  C   C269      1.0  0.55881  0.30550  0.61070  1.0000
  C   C270      1.0  0.44119  0.80550  0.88930  1.0000
  C   C271      1.0  0.44119  0.69450  0.38930  1.0000
  C   C272      1.0  0.55881  0.19450  0.11070  1.0000
  C   C273      1.0  0.54510  0.30580  0.67680  1.0000
  C   C274      1.0  0.45490  0.80580  0.82320  1.0000
  C   C275      1.0  0.45490  0.69420  0.32320  1.0000
  C   C276      1.0  0.54510  0.19420  0.17680  1.0000
  H   H217      1.0  0.51191  0.31197  0.68231  1.0000
  H   H218      1.0  0.48809  0.81197  0.81769  1.0000
  H   H219      1.0  0.48809  0.68803  0.31769  1.0000
  H   H220      1.0  0.51191  0.18803  0.18231  1.0000
  C   C277      1.0  0.57850  0.29750  0.73270  1.0000
  C   C278      1.0  0.42150  0.79750  0.76730  1.0000
  C   C279      1.0  0.42150  0.70250  0.26730  1.0000
  C   C280      1.0  0.57850  0.20250  0.23270  1.0000
  H   H221      1.0  0.56832  0.29777  0.77637  1.0000
  H   H222      1.0  0.43168  0.79777  0.72363  1.0000
  H   H223      1.0  0.43168  0.70223  0.22363  1.0000
  H   H224      1.0  0.56832  0.20223  0.27637  1.0000
  C   C281      1.0  0.62730  0.28860  0.72590  1.0000
  C   C282      1.0  0.37270  0.78860  0.77410  1.0000
  C   C283      1.0  0.37270  0.71140  0.27410  1.0000
  C   C284      1.0  0.62730  0.21140  0.22590  1.0000
  H   H225      1.0  0.65017  0.28268  0.76514  1.0000
  H   H226      1.0  0.34983  0.78268  0.73486  1.0000
  H   H227      1.0  0.34983  0.71732  0.23486  1.0000
  H   H228      1.0  0.65017  0.21732  0.26514  1.0000
  C   C285      1.0  0.64279  0.28810  0.66450  1.0000
  C   C286      1.0  0.35721  0.78810  0.83550  1.0000
  C   C287      1.0  0.35721  0.71190  0.33550  1.0000
  C   C288      1.0  0.64279  0.21190  0.16450  1.0000
  H   H229      1.0  0.67651  0.28292  0.66137  1.0000
  H   H230      1.0  0.32349  0.78292  0.83863  1.0000
  H   H231      1.0  0.32349  0.71708  0.33863  1.0000
  H   H232      1.0  0.67651  0.21708  0.16137  1.0000
  O   O97       1.0  0.75356  0.19367  0.58585  1.0000
  O   O98       1.0  0.24644  0.69367  0.91415  1.0000
  O   O99       1.0  0.24644  0.80633  0.41415  1.0000
  O   O100      1.0  0.75356  0.30633  0.08585  1.0000
  O   O101      1.0  0.69041  0.13654  0.57652  1.0000
  O   O102      1.0  0.30959  0.63654  0.92348  1.0000
  O   O103      1.0  0.30959  0.86346  0.42348  1.0000
  O   O104      1.0  0.69041  0.36346  0.07652  1.0000
  O   O105      1.0  0.75750  0.17258  0.93832  1.0000
  O   O106      1.0  0.24250  0.67258  0.56168  1.0000
  O   O107      1.0  0.24250  0.82742  0.06168  1.0000
  O   O108      1.0  0.75750  0.32742  0.43832  1.0000
  O   O109      1.0  0.81743  0.11660  0.91738  1.0000
  O   O110      1.0  0.18257  0.61660  0.58262  1.0000
  O   O111      1.0  0.18257  0.88340  0.08262  1.0000
  O   O112      1.0  0.81743  0.38340  0.41738  1.0000
  C   C289      1.0  0.72426  0.16230  0.61000  1.0000
  C   C290      1.0  0.27574  0.66230  0.89000  1.0000
  C   C291      1.0  0.27574  0.83770  0.39000  1.0000
  C   C292      1.0  0.72426  0.33770  0.11000  1.0000
  C   C293      1.0  0.73386  0.15380  0.68500  1.0000
  C   C294      1.0  0.26614  0.65380  0.81500  1.0000
  C   C295      1.0  0.26614  0.84620  0.31500  1.0000
  C   C296      1.0  0.73386  0.34620  0.18500  1.0000
  C   C297      1.0  0.78229  0.15160  0.71300  1.0000
  C   C298      1.0  0.21771  0.65160  0.78700  1.0000
  C   C299      1.0  0.21771  0.84840  0.28700  1.0000
  C   C300      1.0  0.78229  0.34840  0.21300  1.0000
  H   H233      1.0  0.80719  0.15503  0.68463  1.0000
  H   H234      1.0  0.19281  0.65503  0.81537  1.0000
  H   H235      1.0  0.19281  0.84497  0.31537  1.0000
  H   H236      1.0  0.80719  0.34497  0.18463  1.0000
  C   C301      1.0  0.79515  0.14450  0.78230  1.0000
  C   C302      1.0  0.20485  0.64450  0.71770  1.0000
  C   C303      1.0  0.20485  0.85550  0.21770  1.0000
  C   C304      1.0  0.79515  0.35550  0.28230  1.0000
  H   H237      1.0  0.82856  0.14020  0.80016  1.0000
  H   H238      1.0  0.17144  0.64020  0.69984  1.0000
  H   H239      1.0  0.17144  0.85980  0.19984  1.0000
  H   H240      1.0  0.82856  0.35980  0.30016  1.0000
  C   C305      1.0  0.76025  0.14378  0.82500  1.0000
  C   C306      1.0  0.23975  0.64378  0.67500  1.0000
  C   C307      1.0  0.23975  0.85622  0.17500  1.0000
  C   C308      1.0  0.76025  0.35622  0.32500  1.0000
  C   C309      1.0  0.77991  0.14388  0.89940  1.0000
  C   C310      1.0  0.22009  0.64388  0.60060  1.0000
  C   C311      1.0  0.22009  0.85612  0.10060  1.0000
  C   C312      1.0  0.77991  0.35612  0.39940  1.0000
  C   C313      1.0  0.70990  0.14635  0.79880  1.0000
  C   C314      1.0  0.29010  0.64635  0.70120  1.0000
  C   C315      1.0  0.29010  0.85365  0.20120  1.0000
  C   C316      1.0  0.70990  0.35365  0.29880  1.0000
  C   C317      1.0  0.69641  0.14901  0.72700  1.0000
  C   C318      1.0  0.30359  0.64901  0.77300  1.0000
  C   C319      1.0  0.30359  0.85099  0.27300  1.0000
  C   C320      1.0  0.69641  0.35099  0.22700  1.0000
  C   C321      1.0  0.64605  0.14860  0.70100  1.0000
  C   C322      1.0  0.35395  0.64860  0.79900  1.0000
  C   C323      1.0  0.35395  0.85140  0.29900  1.0000
  C   C324      1.0  0.64605  0.35140  0.20100  1.0000
  H   H241      1.0  0.63661  0.15123  0.65356  1.0000
  H   H242      1.0  0.36339  0.65123  0.84644  1.0000
  H   H243      1.0  0.36339  0.84877  0.34644  1.0000
  H   H244      1.0  0.63661  0.34877  0.15356  1.0000
  C   C325      1.0  0.61130  0.14460  0.74240  1.0000
  C   C326      1.0  0.38870  0.64460  0.75760  1.0000
  C   C327      1.0  0.38870  0.85540  0.25760  1.0000
  C   C328      1.0  0.61130  0.35540  0.24240  1.0000
  H   H245      1.0  0.57784  0.14289  0.72392  1.0000
  H   H246      1.0  0.42216  0.64289  0.77608  1.0000
  H   H247      1.0  0.42216  0.85711  0.27608  1.0000
  H   H248      1.0  0.57784  0.35711  0.22392  1.0000
  C   C329      1.0  0.62470  0.14300  0.81340  1.0000
  C   C330      1.0  0.37530  0.64300  0.68660  1.0000
  C   C331      1.0  0.37530  0.85700  0.18660  1.0000
  C   C332      1.0  0.62470  0.35700  0.31340  1.0000
  H   H249      1.0  0.59993  0.14134  0.84221  1.0000
  H   H250      1.0  0.40007  0.64134  0.65779  1.0000
  H   H251      1.0  0.40007  0.85866  0.15779  1.0000
  H   H252      1.0  0.59993  0.35866  0.34221  1.0000
  C   C333      1.0  0.67180  0.14380  0.84040  1.0000
  C   C334      1.0  0.32820  0.64380  0.65960  1.0000
  C   C335      1.0  0.32820  0.85620  0.15960  1.0000
  C   C336      1.0  0.67180  0.35620  0.34040  1.0000
  H   H253      1.0  0.67991  0.14269  0.88816  1.0000
  H   H254      1.0  0.32009  0.64269  0.61184  1.0000
  H   H255      1.0  0.32009  0.85731  0.11184  1.0000
  H   H256      1.0  0.67991  0.35731  0.38816  1.0000
  O   O113      1.0  0.81614  0.31446  0.58589  1.0000
  O   O114      1.0  0.18386  0.81446  0.91411  1.0000
  O   O115      1.0  0.18386  0.68554  0.41411  1.0000
  O   O116      1.0  0.81614  0.18554  0.08589  1.0000
  O   O117      1.0  0.84014  0.39866  0.60575  1.0000
  O   O118      1.0  0.15986  0.89866  0.89425  1.0000
  O   O119      1.0  0.15986  0.60134  0.39425  1.0000
  O   O120      1.0  0.84014  0.10134  0.10575  1.0000
  O   O121      1.0  0.70031  0.35397  0.88365  1.0000
  O   O122      1.0  0.29969  0.85397  0.61635  1.0000
  O   O123      1.0  0.29969  0.64603  0.11635  1.0000
  O   O124      1.0  0.70031  0.14603  0.38365  1.0000
  O   O125      1.0  0.76547  0.30352  0.92117  1.0000
  O   O126      1.0  0.23453  0.80352  0.57883  1.0000
  O   O127      1.0  0.23453  0.69648  0.07883  1.0000
  O   O128      1.0  0.76547  0.19648  0.42117  1.0000
  C   C337      1.0  0.81884  0.35731  0.62270  1.0000
  C   C338      1.0  0.18116  0.85731  0.87730  1.0000
  C   C339      1.0  0.18116  0.64269  0.37730  1.0000
  C   C340      1.0  0.81884  0.14269  0.12270  1.0000
  C   C341      1.0  0.79721  0.35526  0.68790  1.0000
  C   C342      1.0  0.20279  0.85526  0.81210  1.0000
  C   C343      1.0  0.20279  0.64474  0.31210  1.0000
  C   C344      1.0  0.79721  0.14474  0.18790  1.0000
  C   C345      1.0  0.78568  0.30481  0.71040  1.0000
  C   C346      1.0  0.21432  0.80481  0.78960  1.0000
  C   C347      1.0  0.21432  0.69519  0.28960  1.0000
  C   C348      1.0  0.78568  0.19519  0.21040  1.0000
  H   H257      1.0  0.78961  0.27377  0.68319  1.0000
  H   H258      1.0  0.21039  0.77377  0.81681  1.0000
  H   H259      1.0  0.21039  0.72623  0.31681  1.0000
  H   H260      1.0  0.78961  0.22623  0.18319  1.0000
  C   C349      1.0  0.76823  0.29790  0.77260  1.0000
  C   C350      1.0  0.23177  0.79790  0.72740  1.0000
  C   C351      1.0  0.23177  0.70210  0.22740  1.0000
  C   C352      1.0  0.76823  0.20210  0.27260  1.0000
  H   H261      1.0  0.76149  0.26229  0.78764  1.0000
  H   H262      1.0  0.23851  0.76229  0.71236  1.0000
  H   H263      1.0  0.23851  0.73771  0.21236  1.0000
  H   H264      1.0  0.76149  0.23771  0.28764  1.0000
  C   C353      1.0  0.76079  0.34197  0.81200  1.0000
  C   C354      1.0  0.23921  0.84197  0.68800  1.0000
  C   C355      1.0  0.23921  0.65803  0.18800  1.0000
  C   C356      1.0  0.76079  0.15803  0.31200  1.0000
  C   C357      1.0  0.74019  0.33259  0.87750  1.0000
  C   C358      1.0  0.25981  0.83259  0.62250  1.0000
  C   C359      1.0  0.25981  0.66741  0.12250  1.0000
  C   C360      1.0  0.74019  0.16741  0.37750  1.0000
  C   C361      1.0  0.77180  0.39491  0.79070  1.0000
  C   C362      1.0  0.22820  0.89491  0.70930  1.0000
  C   C363      1.0  0.22820  0.60509  0.20930  1.0000
  C   C364      1.0  0.77180  0.10509  0.29070  1.0000
  C   C365      1.0  0.79070  0.40241  0.72770  1.0000
  C   C366      1.0  0.20930  0.90241  0.77230  1.0000
  C   C367      1.0  0.20930  0.59759  0.27230  1.0000
  C   C368      1.0  0.79070  0.09759  0.22770  1.0000
  C   C369      1.0  0.80120  0.45640  0.70860  1.0000
  C   C370      1.0  0.19880  0.95640  0.79140  1.0000
  C   C371      1.0  0.19880  0.54360  0.29140  1.0000
  C   C372      1.0  0.80120  0.04360  0.20860  1.0000
  H   H265      1.0  0.81298  0.46237  0.66652  1.0000
  H   H266      1.0  0.18702  0.96237  0.83348  1.0000
  H   H267      1.0  0.18702  0.53763  0.33348  1.0000
  H   H268      1.0  0.81298  0.03763  0.16652  1.0000
  C   C373      1.0  0.79480  0.49960  0.74880  1.0000
  C   C374      1.0  0.20520  0.99960  0.75120  1.0000
  C   C375      1.0  0.20520  0.50040  0.25120  1.0000
  C   C376      1.0  0.79480  0.00040  0.24880  1.0000
  H   H269      1.0  0.80214  0.53519  0.73452  1.0000
  H   H270      1.0  0.19786  0.03519  0.76548  1.0000
  H   H271      1.0  0.19786  0.46481  0.26548  1.0000
  H   H272      1.0  0.80214  0.96481  0.23452  1.0000
  C   C377      1.0  0.77750  0.49250  0.81140  1.0000
  C   C378      1.0  0.22250  0.99250  0.68860  1.0000
  C   C379      1.0  0.22250  0.50750  0.18860  1.0000
  C   C380      1.0  0.77750  0.00750  0.31140  1.0000
  H   H273      1.0  0.77378  0.52303  0.83957  1.0000
  H   H274      1.0  0.22622  0.02303  0.66043  1.0000
  H   H275      1.0  0.22622  0.47697  0.16043  1.0000
  H   H276      1.0  0.77378  0.97697  0.33957  1.0000
  C   C381      1.0  0.76600  0.44130  0.83150  1.0000
  C   C382      1.0  0.23400  0.94130  0.66850  1.0000
  C   C383      1.0  0.23400  0.55870  0.16850  1.0000
  C   C384      1.0  0.76600  0.05870  0.33150  1.0000
  H   H277      1.0  0.75387  0.43664  0.87351  1.0000
  H   H278      1.0  0.24613  0.93664  0.62649  1.0000
  H   H279      1.0  0.24613  0.56336  0.12649  1.0000
  H   H280      1.0  0.75387  0.06336  0.37351  1.0000
  O   O129      1.0  0.85389  0.27116  0.46775  1.0000
  O   O130      1.0  0.14611  0.77116  0.03225  1.0000
  O   O131      1.0  0.14611  0.72884  0.53225  1.0000
  O   O132      1.0  0.85389  0.22884  0.96775  1.0000
  O   O133      1.0  0.84744  0.20580  0.54092  1.0000
  O   O134      1.0  0.15256  0.70580  0.95908  1.0000
  O   O135      1.0  0.15256  0.79420  0.45908  1.0000
  O   O136      1.0  0.84744  0.29420  0.04092  1.0000
  O   O137      1.0  0.09123  0.13806  0.54664  1.0000
  O   O138      1.0  0.90877  0.63806  0.95336  1.0000
  O   O139      1.0  0.90877  0.86194  0.45336  1.0000
  O   O140      1.0  0.09123  0.36194  0.04664  1.0000
  O   O141      1.0  0.08935  0.15584  0.43860  1.0000
  O   O142      1.0  0.91065  0.65584  0.06140  1.0000
  O   O143      1.0  0.91065  0.84416  0.56140  1.0000
  O   O144      1.0  0.08935  0.34416  0.93860  1.0000
  C   C385      1.0  0.87130  0.23072  0.50070  1.0000
  C   C386      1.0  0.12870  0.73072  0.99930  1.0000
  C   C387      1.0  0.12870  0.76928  0.49930  1.0000
  C   C388      1.0  0.87130  0.26928  0.00070  1.0000
  C   C389      1.0  0.92164  0.20960  0.49440  1.0000
  C   C390      1.0  0.07836  0.70960  0.00560  1.0000
  C   C391      1.0  0.07836  0.79040  0.50560  1.0000
  C   C392      1.0  0.92164  0.29040  0.99440  1.0000
  C   C393      1.0  0.95549  0.21060  0.55000  1.0000
  C   C394      1.0  0.04451  0.71060  0.95000  1.0000
  C   C395      1.0  0.04451  0.78940  0.45000  1.0000
  C   C396      1.0  0.95549  0.28940  0.05000  1.0000
  H   H281      1.0  0.94708  0.22484  0.59123  1.0000
  H   H282      1.0  0.05292  0.72484  0.90877  1.0000
  H   H283      1.0  0.05292  0.77516  0.40877  1.0000
  H   H284      1.0  0.94708  0.27516  0.09123  1.0000
  C   C397      1.0  0.00278  0.19070  0.54750  1.0000
  C   C398      1.0  0.99722  0.69070  0.95250  1.0000
  C   C399      1.0  0.99722  0.80930  0.45250  1.0000
  C   C400      1.0  0.00278  0.30930  0.04750  1.0000
  H   H285      1.0  0.02612  0.19236  0.58697  1.0000
  H   H286      1.0  0.97388  0.69236  0.91303  1.0000
  H   H287      1.0  0.97388  0.80764  0.41303  1.0000
  H   H288      1.0  0.02612  0.30764  0.08697  1.0000
  C   C401      1.0  0.01610  0.16897  0.48920  1.0000
  C   C402      1.0  0.98390  0.66897  0.01080  1.0000
  C   C403      1.0  0.98390  0.83103  0.51080  1.0000
  C   C404      1.0  0.01610  0.33103  0.98920  1.0000
  C   C405      1.0  0.06844  0.15287  0.49120  1.0000
  C   C406      1.0  0.93156  0.65287  0.00880  1.0000
  C   C407      1.0  0.93156  0.84713  0.50880  1.0000
  C   C408      1.0  0.06844  0.34713  0.99120  1.0000
  C   C409      1.0  0.98095  0.16450  0.43080  1.0000
  C   C410      1.0  0.01905  0.66450  0.06920  1.0000
  C   C411      1.0  0.01905  0.83550  0.56920  1.0000
  C   C412      1.0  0.98095  0.33550  0.93080  1.0000
  C   C413      1.0  0.93243  0.18580  0.43340  1.0000
  C   C414      1.0  0.06757  0.68580  0.06660  1.0000
  C   C415      1.0  0.06757  0.81420  0.56660  1.0000
  C   C416      1.0  0.93243  0.31420  0.93340  1.0000
  C   C417      1.0  0.89671  0.17980  0.37620  1.0000
  C   C418      1.0  0.10329  0.67980  0.12380  1.0000
  C   C419      1.0  0.10329  0.82020  0.62380  1.0000
  C   C420      1.0  0.89671  0.32020  0.87620  1.0000
  H   H289      1.0  0.86509  0.19482  0.37713  1.0000
  H   H290      1.0  0.13491  0.69482  0.12287  1.0000
  H   H291      1.0  0.13491  0.80518  0.62287  1.0000
  H   H292      1.0  0.86509  0.30518  0.87713  1.0000
  C   C421      1.0  0.90650  0.15330  0.32080  1.0000
  C   C422      1.0  0.09350  0.65330  0.17920  1.0000
  C   C423      1.0  0.09350  0.84670  0.67920  1.0000
  C   C424      1.0  0.90650  0.34670  0.82080  1.0000
  H   H293      1.0  0.88160  0.14902  0.28351  1.0000
  H   H294      1.0  0.11840  0.64902  0.21649  1.0000
  H   H295      1.0  0.11840  0.85098  0.71649  1.0000
  H   H296      1.0  0.88160  0.35098  0.78351  1.0000
  C   C425      1.0  0.95410  0.13150  0.31750  1.0000
  C   C426      1.0  0.04590  0.63150  0.18250  1.0000
  C   C427      1.0  0.04590  0.86850  0.68250  1.0000
  C   C428      1.0  0.95410  0.36850  0.81750  1.0000
  H   H297      1.0  0.96076  0.11261  0.27812  1.0000
  H   H298      1.0  0.03924  0.61261  0.22188  1.0000
  H   H299      1.0  0.03924  0.88739  0.72188  1.0000
  H   H300      1.0  0.96076  0.38739  0.77812  1.0000
  C   C429      1.0  0.99000  0.13790  0.37100  1.0000
  C   C430      1.0  0.01000  0.63790  0.12900  1.0000
  C   C431      1.0  0.01000  0.86210  0.62900  1.0000
  C   C432      1.0  0.99000  0.36210  0.87100  1.0000
  H   H301      1.0  0.02181  0.12411  0.36789  1.0000
  H   H302      1.0  0.97819  0.62411  0.13211  1.0000
  H   H303      1.0  0.97819  0.87589  0.63211  1.0000
  H   H304      1.0  0.02181  0.37589  0.86789  1.0000
