data_image0
_chemical_formula_structural       U4O36N4C8H8C4H8C4H8C4H8C4H8C4
_chemical_formula_sum              "U4 O36 N4 C28 H40"
_cell_length_a       7.3734
_cell_length_b       21.7637
_cell_length_c       17.9235
_cell_angle_alpha    90
_cell_angle_beta     99.726
_cell_angle_gamma    90

_space_group_name_H-M_alt    "P 1"
_space_group_IT_number       1

loop_
  _space_group_symop_operation_xyz
  'x, y, z'

loop_
  _atom_site_type_symbol
  _atom_site_label
  _atom_site_symmetry_multiplicity
  _atom_site_fract_x
  _atom_site_fract_y
  _atom_site_fract_z
  _atom_site_occupancy
  U   U1        1.0  0.23753  0.65030  0.92410  1.0000
  U   U2        1.0  0.26247  0.15030  0.57590  1.0000
  U   U3        1.0  0.76247  0.34970  0.07590  1.0000
  U   U4        1.0  0.73753  0.84970  0.42410  1.0000
  O   O1        1.0  0.47970  0.64890  0.94894  1.0000
  O   O2        1.0  0.02030  0.14890  0.55106  1.0000
  O   O3        1.0  0.52030  0.35110  0.05106  1.0000
  O   O4        1.0  0.97970  0.85110  0.44894  1.0000
  O   O5        1.0  0.99500  0.65517  0.90417  1.0000
  O   O6        1.0  0.50500  0.15517  0.59583  1.0000
  O   O7        1.0  0.00500  0.34483  0.09583  1.0000
  O   O8        1.0  0.49500  0.84483  0.40417  1.0000
  O   O9        1.0  0.21640  0.55151  0.98636  1.0000
  O   O10       1.0  0.28360  0.05151  0.51364  1.0000
  O   O11       1.0  0.78360  0.44849  0.01364  1.0000
  O   O12       1.0  0.71640  0.94849  0.48636  1.0000
  O   O13       1.0  0.23420  0.55031  0.86568  1.0000
  O   O14       1.0  0.26580  0.05031  0.63432  1.0000
  O   O15       1.0  0.76580  0.44969  0.13432  1.0000
  O   O16       1.0  0.73420  0.94969  0.36568  1.0000
  O   O17       1.0  0.26070  0.16037  0.71178  1.0000
  O   O18       1.0  0.23930  0.66037  0.78822  1.0000
  O   O19       1.0  0.73930  0.83963  0.28822  1.0000
  O   O20       1.0  0.76070  0.33963  0.21178  1.0000
  O   O21       1.0  0.22380  0.24588  0.64691  1.0000
  O   O22       1.0  0.27620  0.74588  0.85309  1.0000
  O   O23       1.0  0.77620  0.75412  0.35309  1.0000
  O   O24       1.0  0.72380  0.25412  0.14691  1.0000
  O   O25       1.0  0.22300  0.74803  0.00025  1.0000
  O   O26       1.0  0.27700  0.24803  0.49975  1.0000
  O   O27       1.0  0.77700  0.25197  0.99975  1.0000
  O   O28       1.0  0.72300  0.75197  0.50025  1.0000
  O   O29       1.0  0.20870  0.66418  0.06272  1.0000
  O   O30       1.0  0.29130  0.16418  0.43728  1.0000
  O   O31       1.0  0.79130  0.33582  0.93728  1.0000
  O   O32       1.0  0.70870  0.83582  0.56272  1.0000
  O   O33       1.0  0.17700  0.75228  0.11709  1.0000
  O   O34       1.0  0.32300  0.25228  0.38291  1.0000
  O   O35       1.0  0.82300  0.24772  0.88291  1.0000
  O   O36       1.0  0.67700  0.74772  0.61709  1.0000
  N   N1        1.0  0.20310  0.72255  0.06211  1.0000
  N   N2        1.0  0.29690  0.22255  0.43789  1.0000
  N   N3        1.0  0.79690  0.27745  0.93789  1.0000
  N   N4        1.0  0.70310  0.77745  0.56211  1.0000
  C   C1        1.0  0.22430  0.52142  0.92606  1.0000
  C   C2        1.0  0.27570  0.02142  0.57394  1.0000
  C   C3        1.0  0.77570  0.47858  0.07394  1.0000
  C   C4        1.0  0.72430  0.97858  0.42606  1.0000
  C   C5        1.0  0.22380  0.45228  0.92715  1.0000
  C   C6        1.0  0.27620  0.95228  0.57285  1.0000
  C   C7        1.0  0.77620  0.54772  0.07285  1.0000
  C   C8        1.0  0.72380  0.04772  0.42715  1.0000
  H   H1        1.0  0.11510  0.43810  0.94810  1.0000
  H   H2        1.0  0.38490  0.93810  0.55190  1.0000
  H   H3        1.0  0.88490  0.56190  0.05190  1.0000
  H   H4        1.0  0.61510  0.06190  0.44810  1.0000
  H   H5        1.0  0.33490  0.43800  0.96170  1.0000
  H   H6        1.0  0.16510  0.93800  0.53830  1.0000
  H   H7        1.0  0.66510  0.56200  0.03830  1.0000
  H   H8        1.0  0.83490  0.06200  0.46170  1.0000
  C   C9        1.0  0.22000  0.42226  0.84986  1.0000
  C   C10       1.0  0.28000  0.92226  0.65014  1.0000
  C   C11       1.0  0.78000  0.57774  0.15014  1.0000
  C   C12       1.0  0.72000  0.07774  0.34986  1.0000
  H   H9        1.0  0.10420  0.43370  0.81630  1.0000
  H   H10       1.0  0.39580  0.93370  0.68370  1.0000
  H   H11       1.0  0.89580  0.56630  0.18370  1.0000
  H   H12       1.0  0.60420  0.06630  0.31630  1.0000
  H   H13       1.0  0.32360  0.43840  0.82700  1.0000
  H   H14       1.0  0.17640  0.93840  0.67300  1.0000
  H   H15       1.0  0.67640  0.56160  0.17300  1.0000
  H   H16       1.0  0.82360  0.06160  0.32700  1.0000
  C   C13       1.0  0.23390  0.35286  0.85445  1.0000
  C   C14       1.0  0.26610  0.85286  0.64555  1.0000
  C   C15       1.0  0.76610  0.64714  0.14555  1.0000
  C   C16       1.0  0.73390  0.14714  0.35445  1.0000
  H   H17       1.0  0.13180  0.33690  0.87840  1.0000
  H   H18       1.0  0.36820  0.83690  0.62160  1.0000
  H   H19       1.0  0.86820  0.66310  0.12160  1.0000
  H   H20       1.0  0.63180  0.16310  0.37840  1.0000
  H   H21       1.0  0.35080  0.34160  0.88740  1.0000
  H   H22       1.0  0.14920  0.84160  0.61260  1.0000
  H   H23       1.0  0.64920  0.65840  0.11260  1.0000
  H   H24       1.0  0.85080  0.15840  0.38740  1.0000
  C   C17       1.0  0.22640  0.32180  0.77721  1.0000
  C   C18       1.0  0.27360  0.82180  0.72279  1.0000
  C   C19       1.0  0.77360  0.67820  0.22279  1.0000
  C   C20       1.0  0.72640  0.17820  0.27721  1.0000
  H   H25       1.0  0.10850  0.33240  0.74450  1.0000
  H   H26       1.0  0.39150  0.83240  0.75550  1.0000
  H   H27       1.0  0.89150  0.66760  0.25550  1.0000
  H   H28       1.0  0.60850  0.16760  0.24450  1.0000
  H   H29       1.0  0.32730  0.33810  0.75280  1.0000
  H   H30       1.0  0.17270  0.83810  0.74720  1.0000
  H   H31       1.0  0.67270  0.66190  0.24720  1.0000
  H   H32       1.0  0.82730  0.16190  0.25280  1.0000
  C   C21       1.0  0.24360  0.25280  0.78282  1.0000
  C   C22       1.0  0.25640  0.75280  0.71718  1.0000
  C   C23       1.0  0.75640  0.74720  0.21718  1.0000
  C   C24       1.0  0.74360  0.24720  0.28282  1.0000
  H   H33       1.0  0.35940  0.24290  0.81730  1.0000
  H   H34       1.0  0.14060  0.74290  0.68270  1.0000
  H   H35       1.0  0.64060  0.75710  0.18270  1.0000
  H   H36       1.0  0.85940  0.25710  0.31730  1.0000
  H   H37       1.0  0.14090  0.23710  0.80660  1.0000
  H   H38       1.0  0.35910  0.73710  0.69340  1.0000
  H   H39       1.0  0.85910  0.76290  0.19340  1.0000
  H   H40       1.0  0.64090  0.26290  0.30660  1.0000
  C   C25       1.0  0.24280  0.21833  0.70974  1.0000
  C   C26       1.0  0.25720  0.71833  0.79026  1.0000
  C   C27       1.0  0.75720  0.78167  0.29026  1.0000
  C   C28       1.0  0.74280  0.28167  0.20974  1.0000
