data_image0
_chemical_formula_structural       Zn16Co24O4C16H8C8H8C16H8C8H8B8O8N8C8H8C32H8Br8C16H8C8H8N8O8B8O8N8C8H8C32H8Br8C16H8C8H8N8O16N8C8H8C32H8Br8C16H8C8H8N8O8C16H8C8H8C16H8C8H8C8O40C8O16C8H4C4H4C8H4C4H4B4O4N4C4H4C16H4Br4C8H4C4H4N4O4B4O8N8C8H8C32H8Br8C16H8C8H8N8O8C12H8C8H8C8O20C4O8
_chemical_formula_sum              "Zn16 Co24 O160 C456 H240 B24 N72 Br36"
_cell_length_a       45.916
_cell_length_b       30.605
_cell_length_c       27.785
_cell_angle_alpha    90
_cell_angle_beta     100.851
_cell_angle_gamma    90

_space_group_name_H-M_alt    "P 1"
_space_group_IT_number       1

loop_
  _space_group_symop_operation_xyz
  'x, y, z'

loop_
  _atom_site_type_symbol
  _atom_site_label
  _atom_site_symmetry_multiplicity
  _atom_site_fract_x
  _atom_site_fract_y
  _atom_site_fract_z
  _atom_site_occupancy
  Zn  Zn1       1.0  0.59759  0.44866  0.32554  1.0000
  Zn  Zn2       1.0  0.40241  0.44866  0.67446  1.0000
  Zn  Zn3       1.0  0.09759  0.94866  0.32554  1.0000
  Zn  Zn4       1.0  0.90241  0.94866  0.67446  1.0000
  Zn  Zn5       1.0  0.40241  0.55134  0.67446  1.0000
  Zn  Zn6       1.0  0.59759  0.55134  0.32554  1.0000
  Zn  Zn7       1.0  0.90241  0.05134  0.67446  1.0000
  Zn  Zn8       1.0  0.09759  0.05134  0.32554  1.0000
  Zn  Zn9       1.0  0.57065  0.50000  0.40434  1.0000
  Zn  Zn10      1.0  0.42935  0.50000  0.59566  1.0000
  Zn  Zn11      1.0  0.07065  0.00000  0.40434  1.0000
  Zn  Zn12      1.0  0.92935  0.00000  0.59566  1.0000
  Zn  Zn13      1.0  0.63925  0.50000  0.40986  1.0000
  Zn  Zn14      1.0  0.36075  0.50000  0.59014  1.0000
  Zn  Zn15      1.0  0.13925  0.00000  0.40986  1.0000
  Zn  Zn16      1.0  0.86075  0.00000  0.59014  1.0000
  Co  Co1       1.0  0.61685  0.50000  0.81746  1.0000
  Co  Co2       1.0  0.38315  0.50000  0.18254  1.0000
  Co  Co3       1.0  0.11685  0.00000  0.81746  1.0000
  Co  Co4       1.0  0.88315  0.00000  0.18254  1.0000
  Co  Co5       1.0  0.61081  0.50000  0.92071  1.0000
  Co  Co6       1.0  0.38919  0.50000  0.07929  1.0000
  Co  Co7       1.0  0.11081  0.00000  0.92071  1.0000
  Co  Co8       1.0  0.88919  0.00000  0.07929  1.0000
  Co  Co9       1.0  0.37772  0.26877  0.33791  1.0000
  Co  Co10      1.0  0.62228  0.26877  0.66209  1.0000
  Co  Co11      1.0  0.87772  0.76877  0.33791  1.0000
  Co  Co12      1.0  0.12228  0.76877  0.66209  1.0000
  Co  Co13      1.0  0.62228  0.73123  0.66209  1.0000
  Co  Co14      1.0  0.37772  0.73123  0.33791  1.0000
  Co  Co15      1.0  0.12228  0.23123  0.66209  1.0000
  Co  Co16      1.0  0.87772  0.23123  0.33791  1.0000
  Co  Co17      1.0  0.32250  0.22191  0.34075  1.0000
  Co  Co18      1.0  0.67750  0.22191  0.65925  1.0000
  Co  Co19      1.0  0.82250  0.72191  0.34075  1.0000
  Co  Co20      1.0  0.17750  0.72191  0.65925  1.0000
  Co  Co21      1.0  0.67750  0.77809  0.65925  1.0000
  Co  Co22      1.0  0.32250  0.77809  0.34075  1.0000
  Co  Co23      1.0  0.17750  0.27809  0.65925  1.0000
  Co  Co24      1.0  0.82250  0.27809  0.34075  1.0000
  O   O1        1.0  0.60168  0.50000  0.36500  1.0000
  O   O2        1.0  0.39832  0.50000  0.63500  1.0000
  O   O3        1.0  0.10168  0.00000  0.36500  1.0000
  O   O4        1.0  0.89832  0.00000  0.63500  1.0000
  C   C1        1.0  0.46420  0.34580  0.33570  1.0000
  C   C2        1.0  0.53580  0.34580  0.66430  1.0000
  C   C3        1.0  0.96420  0.84580  0.33570  1.0000
  C   C4        1.0  0.03580  0.84580  0.66430  1.0000
  C   C5        1.0  0.53580  0.65420  0.66430  1.0000
  C   C6        1.0  0.46420  0.65420  0.33570  1.0000
  C   C7        1.0  0.03580  0.15420  0.66430  1.0000
  C   C8        1.0  0.96420  0.15420  0.33570  1.0000
  C   C9        1.0  0.46790  0.38520  0.36180  1.0000
  C   C10       1.0  0.53210  0.38520  0.63820  1.0000
  C   C11       1.0  0.96790  0.88520  0.36180  1.0000
  C   C12       1.0  0.03210  0.88520  0.63820  1.0000
  C   C13       1.0  0.53210  0.61480  0.63820  1.0000
  C   C14       1.0  0.46790  0.61480  0.36180  1.0000
  C   C15       1.0  0.03210  0.11480  0.63820  1.0000
  C   C16       1.0  0.96790  0.11480  0.36180  1.0000
  H   H1        1.0  0.45260  0.39530  0.37760  1.0000
  H   H2        1.0  0.54740  0.39530  0.62240  1.0000
  H   H3        1.0  0.95260  0.89530  0.37760  1.0000
  H   H4        1.0  0.04740  0.89530  0.62240  1.0000
  H   H5        1.0  0.54740  0.60470  0.62240  1.0000
  H   H6        1.0  0.45260  0.60470  0.37760  1.0000
  H   H7        1.0  0.04740  0.10470  0.62240  1.0000
  H   H8        1.0  0.95260  0.10470  0.37760  1.0000
  C   C17       1.0  0.49360  0.40970  0.36480  1.0000
  C   C18       1.0  0.50640  0.40970  0.63520  1.0000
  C   C19       1.0  0.99360  0.90970  0.36480  1.0000
  C   C20       1.0  0.00640  0.90970  0.63520  1.0000
  C   C21       1.0  0.50640  0.59030  0.63520  1.0000
  C   C22       1.0  0.49360  0.59030  0.36480  1.0000
  C   C23       1.0  0.00640  0.09030  0.63520  1.0000
  C   C24       1.0  0.99360  0.09030  0.36480  1.0000
  H   H9        1.0  0.49540  0.43660  0.38230  1.0000
  H   H10       1.0  0.50460  0.43660  0.61770  1.0000
  H   H11       1.0  0.99540  0.93660  0.38230  1.0000
  H   H12       1.0  0.00460  0.93660  0.61770  1.0000
  H   H13       1.0  0.50460  0.56340  0.61770  1.0000
  H   H14       1.0  0.49540  0.56340  0.38230  1.0000
  H   H15       1.0  0.00460  0.06340  0.61770  1.0000
  H   H16       1.0  0.99540  0.06340  0.38230  1.0000
  C   C25       1.0  0.51640  0.39560  0.34260  1.0000
  C   C26       1.0  0.48360  0.39560  0.65740  1.0000
  C   C27       1.0  0.01640  0.89560  0.34260  1.0000
  C   C28       1.0  0.98360  0.89560  0.65740  1.0000
  C   C29       1.0  0.48360  0.60440  0.65740  1.0000
  C   C30       1.0  0.51640  0.60440  0.34260  1.0000
  C   C31       1.0  0.98360  0.10440  0.65740  1.0000
  C   C32       1.0  0.01640  0.10440  0.34260  1.0000
  C   C33       1.0  0.51360  0.35670  0.31700  1.0000
  C   C34       1.0  0.48640  0.35670  0.68300  1.0000
  C   C35       1.0  0.01360  0.85670  0.31700  1.0000
  C   C36       1.0  0.98640  0.85670  0.68300  1.0000
  C   C37       1.0  0.48640  0.64330  0.68300  1.0000
  C   C38       1.0  0.51360  0.64330  0.31700  1.0000
  C   C39       1.0  0.98640  0.14330  0.68300  1.0000
  C   C40       1.0  0.01360  0.14330  0.31700  1.0000
  H   H17       1.0  0.52920  0.34630  0.30200  1.0000
  H   H18       1.0  0.47080  0.34630  0.69800  1.0000
  H   H19       1.0  0.02920  0.84630  0.30200  1.0000
  H   H20       1.0  0.97080  0.84630  0.69800  1.0000
  H   H21       1.0  0.47080  0.65370  0.69800  1.0000
  H   H22       1.0  0.52920  0.65370  0.30200  1.0000
  H   H23       1.0  0.97080  0.15370  0.69800  1.0000
  H   H24       1.0  0.02920  0.15370  0.30200  1.0000
  C   C41       1.0  0.48750  0.33300  0.31370  1.0000
  C   C42       1.0  0.51250  0.33300  0.68630  1.0000
  C   C43       1.0  0.98750  0.83300  0.31370  1.0000
  C   C44       1.0  0.01250  0.83300  0.68630  1.0000
  C   C45       1.0  0.51250  0.66700  0.68630  1.0000
  C   C46       1.0  0.48750  0.66700  0.31370  1.0000
  C   C47       1.0  0.01250  0.16700  0.68630  1.0000
  C   C48       1.0  0.98750  0.16700  0.31370  1.0000
  H   H25       1.0  0.48550  0.30660  0.29530  1.0000
  H   H26       1.0  0.51450  0.30660  0.70470  1.0000
  H   H27       1.0  0.98550  0.80660  0.29530  1.0000
  H   H28       1.0  0.01450  0.80660  0.70470  1.0000
  H   H29       1.0  0.51450  0.69340  0.70470  1.0000
  H   H30       1.0  0.48550  0.69340  0.29530  1.0000
  H   H31       1.0  0.01450  0.19340  0.70470  1.0000
  H   H32       1.0  0.98550  0.19340  0.29530  1.0000
  B   B1        1.0  0.43460  0.31820  0.33500  1.0000
  B   B2        1.0  0.56540  0.31820  0.66500  1.0000
  B   B3        1.0  0.93460  0.81820  0.33500  1.0000
  B   B4        1.0  0.06540  0.81820  0.66500  1.0000
  B   B5        1.0  0.56540  0.68180  0.66500  1.0000
  B   B6        1.0  0.43460  0.68180  0.33500  1.0000
  B   B7        1.0  0.06540  0.18180  0.66500  1.0000
  B   B8        1.0  0.93460  0.18180  0.33500  1.0000
  O   O5        1.0  0.43230  0.28740  0.29450  1.0000
  O   O6        1.0  0.56770  0.28740  0.70550  1.0000
  O   O7        1.0  0.93230  0.78740  0.29450  1.0000
  O   O8        1.0  0.06770  0.78740  0.70550  1.0000
  O   O9        1.0  0.56770  0.71260  0.70550  1.0000
  O   O10       1.0  0.43230  0.71260  0.29450  1.0000
  O   O11       1.0  0.06770  0.21260  0.70550  1.0000
  O   O12       1.0  0.93230  0.21260  0.29450  1.0000
  N   N1        1.0  0.40840  0.26020  0.29050  1.0000
  N   N2        1.0  0.59160  0.26020  0.70950  1.0000
  N   N3        1.0  0.90840  0.76020  0.29050  1.0000
  N   N4        1.0  0.09160  0.76020  0.70950  1.0000
  N   N5        1.0  0.59160  0.73980  0.70950  1.0000
  N   N6        1.0  0.40840  0.73980  0.29050  1.0000
  N   N7        1.0  0.09160  0.23980  0.70950  1.0000
  N   N8        1.0  0.90840  0.23980  0.29050  1.0000
  C   C49       1.0  0.40790  0.23300  0.25600  1.0000
  C   C50       1.0  0.59210  0.23300  0.74400  1.0000
  C   C51       1.0  0.90790  0.73300  0.25600  1.0000
  C   C52       1.0  0.09210  0.73300  0.74400  1.0000
  C   C53       1.0  0.59210  0.76700  0.74400  1.0000
  C   C54       1.0  0.40790  0.76700  0.25600  1.0000
  C   C55       1.0  0.09210  0.26700  0.74400  1.0000
  C   C56       1.0  0.90790  0.26700  0.25600  1.0000
  H   H33       1.0  0.42380  0.23420  0.23860  1.0000
  H   H34       1.0  0.57620  0.23420  0.76140  1.0000
  H   H35       1.0  0.92380  0.73420  0.23860  1.0000
  H   H36       1.0  0.07620  0.73420  0.76140  1.0000
  H   H37       1.0  0.57620  0.76580  0.76140  1.0000
  H   H38       1.0  0.42380  0.76580  0.23860  1.0000
  H   H39       1.0  0.07620  0.26580  0.76140  1.0000
  H   H40       1.0  0.92380  0.26580  0.23860  1.0000
  C   C57       1.0  0.38550  0.20020  0.24040  1.0000
  C   C58       1.0  0.61450  0.20020  0.75960  1.0000
  C   C59       1.0  0.88550  0.70020  0.24040  1.0000
  C   C60       1.0  0.11450  0.70020  0.75960  1.0000
  C   C61       1.0  0.61450  0.79980  0.75960  1.0000
  C   C62       1.0  0.38550  0.79980  0.24040  1.0000
  C   C63       1.0  0.11450  0.29980  0.75960  1.0000
  C   C64       1.0  0.88550  0.29980  0.24040  1.0000
  C   C65       1.0  0.36020  0.19390  0.26260  1.0000
  C   C66       1.0  0.63980  0.19390  0.73740  1.0000
  C   C67       1.0  0.86020  0.69390  0.26260  1.0000
  C   C68       1.0  0.13980  0.69390  0.73740  1.0000
  C   C69       1.0  0.63980  0.80610  0.73740  1.0000
  C   C70       1.0  0.36020  0.80610  0.26260  1.0000
  C   C71       1.0  0.13980  0.30610  0.73740  1.0000
  C   C72       1.0  0.86020  0.30610  0.26260  1.0000
  C   C73       1.0  0.34010  0.15960  0.24440  1.0000
  C   C74       1.0  0.65990  0.15960  0.75560  1.0000
  C   C75       1.0  0.84010  0.65960  0.24440  1.0000
  C   C76       1.0  0.15990  0.65960  0.75560  1.0000
  C   C77       1.0  0.65990  0.84040  0.75560  1.0000
  C   C78       1.0  0.34010  0.84040  0.24440  1.0000
  C   C79       1.0  0.15990  0.34040  0.75560  1.0000
  C   C80       1.0  0.84010  0.34040  0.24440  1.0000
  C   C81       1.0  0.34620  0.13230  0.20650  1.0000
  C   C82       1.0  0.65380  0.13230  0.79350  1.0000
  C   C83       1.0  0.84620  0.63230  0.20650  1.0000
  C   C84       1.0  0.15380  0.63230  0.79350  1.0000
  C   C85       1.0  0.65380  0.86770  0.79350  1.0000
  C   C86       1.0  0.34620  0.86770  0.20650  1.0000
  C   C87       1.0  0.15380  0.36770  0.79350  1.0000
  C   C88       1.0  0.84620  0.36770  0.20650  1.0000
  H   H41       1.0  0.33330  0.10870  0.19510  1.0000
  H   H42       1.0  0.66670  0.10870  0.80490  1.0000
  H   H43       1.0  0.83330  0.60870  0.19510  1.0000
  H   H44       1.0  0.16670  0.60870  0.80490  1.0000
  H   H45       1.0  0.66670  0.89130  0.80490  1.0000
  H   H46       1.0  0.33330  0.89130  0.19510  1.0000
  H   H47       1.0  0.16670  0.39130  0.80490  1.0000
  H   H48       1.0  0.83330  0.39130  0.19510  1.0000
  Br  Br1       1.0  0.37980  0.10120  0.13740  1.0000
  Br  Br2       1.0  0.62020  0.10120  0.86260  1.0000
  Br  Br3       1.0  0.87980  0.60120  0.13740  1.0000
  Br  Br4       1.0  0.12020  0.60120  0.86260  1.0000
  Br  Br5       1.0  0.62020  0.89880  0.86260  1.0000
  Br  Br6       1.0  0.37980  0.89880  0.13740  1.0000
  Br  Br7       1.0  0.12020  0.39880  0.86260  1.0000
  Br  Br8       1.0  0.87980  0.39880  0.13740  1.0000
  C   C89       1.0  0.37080  0.13980  0.18630  1.0000
  C   C90       1.0  0.62920  0.13980  0.81370  1.0000
  C   C91       1.0  0.87080  0.63980  0.18630  1.0000
  C   C92       1.0  0.12920  0.63980  0.81370  1.0000
  C   C93       1.0  0.62920  0.86020  0.81370  1.0000
  C   C94       1.0  0.37080  0.86020  0.18630  1.0000
  C   C95       1.0  0.12920  0.36020  0.81370  1.0000
  C   C96       1.0  0.87080  0.36020  0.18630  1.0000
  C   C97       1.0  0.39000  0.17360  0.20130  1.0000
  C   C98       1.0  0.61000  0.17360  0.79870  1.0000
  C   C99       1.0  0.89000  0.67360  0.20130  1.0000
  C   C100      1.0  0.11000  0.67360  0.79870  1.0000
  C   C101      1.0  0.61000  0.82640  0.79870  1.0000
  C   C102      1.0  0.39000  0.82640  0.20130  1.0000
  C   C103      1.0  0.11000  0.32640  0.79870  1.0000
  C   C104      1.0  0.89000  0.32640  0.20130  1.0000
  H   H49       1.0  0.40620  0.17900  0.18530  1.0000
  H   H50       1.0  0.59380  0.17900  0.81470  1.0000
  H   H51       1.0  0.90620  0.67900  0.18530  1.0000
  H   H52       1.0  0.09380  0.67900  0.81470  1.0000
  H   H53       1.0  0.59380  0.82100  0.81470  1.0000
  H   H54       1.0  0.40620  0.82100  0.18530  1.0000
  H   H55       1.0  0.09380  0.32100  0.81470  1.0000
  H   H56       1.0  0.90620  0.32100  0.18530  1.0000
  C   C105      1.0  0.31350  0.15130  0.26340  1.0000
  C   C106      1.0  0.68650  0.15130  0.73660  1.0000
  C   C107      1.0  0.81350  0.65130  0.26340  1.0000
  C   C108      1.0  0.18650  0.65130  0.73660  1.0000
  C   C109      1.0  0.68650  0.84870  0.73660  1.0000
  C   C110      1.0  0.31350  0.84870  0.26340  1.0000
  C   C111      1.0  0.18650  0.34870  0.73660  1.0000
  C   C112      1.0  0.81350  0.34870  0.26340  1.0000
  H   H57       1.0  0.30130  0.12830  0.24810  1.0000
  H   H58       1.0  0.69870  0.12830  0.75190  1.0000
  H   H59       1.0  0.80130  0.62830  0.24810  1.0000
  H   H60       1.0  0.19870  0.62830  0.75190  1.0000
  H   H61       1.0  0.69870  0.87170  0.75190  1.0000
  H   H62       1.0  0.30130  0.87170  0.24810  1.0000
  H   H63       1.0  0.19870  0.37170  0.75190  1.0000
  H   H64       1.0  0.80130  0.37170  0.24810  1.0000
  N   N9        1.0  0.30450  0.17100  0.29780  1.0000
  N   N10       1.0  0.69550  0.17100  0.70220  1.0000
  N   N11       1.0  0.80450  0.67100  0.29780  1.0000
  N   N12       1.0  0.19550  0.67100  0.70220  1.0000
  N   N13       1.0  0.69550  0.82900  0.70220  1.0000
  N   N14       1.0  0.30450  0.82900  0.29780  1.0000
  N   N15       1.0  0.19550  0.32900  0.70220  1.0000
  N   N16       1.0  0.80450  0.32900  0.29780  1.0000
  O   O13       1.0  0.27840  0.15290  0.30630  1.0000
  O   O14       1.0  0.72160  0.15290  0.69370  1.0000
  O   O15       1.0  0.77840  0.65290  0.30630  1.0000
  O   O16       1.0  0.22160  0.65290  0.69370  1.0000
  O   O17       1.0  0.72160  0.84710  0.69370  1.0000
  O   O18       1.0  0.27840  0.84710  0.30630  1.0000
  O   O19       1.0  0.22160  0.34710  0.69370  1.0000
  O   O20       1.0  0.77840  0.34710  0.30630  1.0000
  B   B9        1.0  0.26560  0.17280  0.34480  1.0000
  B   B10       1.0  0.73440  0.17280  0.65520  1.0000
  B   B11       1.0  0.76560  0.67280  0.34480  1.0000
  B   B12       1.0  0.23440  0.67280  0.65520  1.0000
  B   B13       1.0  0.73440  0.82720  0.65520  1.0000
  B   B14       1.0  0.26560  0.82720  0.34480  1.0000
  B   B15       1.0  0.23440  0.32720  0.65520  1.0000
  B   B16       1.0  0.76560  0.32720  0.34480  1.0000
  O   O21       1.0  0.41140  0.34970  0.32850  1.0000
  O   O22       1.0  0.58860  0.34970  0.67150  1.0000
  O   O23       1.0  0.91140  0.84970  0.32850  1.0000
  O   O24       1.0  0.08860  0.84970  0.67150  1.0000
  O   O25       1.0  0.58860  0.65030  0.67150  1.0000
  O   O26       1.0  0.41140  0.65030  0.32850  1.0000
  O   O27       1.0  0.08860  0.15030  0.67150  1.0000
  O   O28       1.0  0.91140  0.15030  0.32850  1.0000
  N   N17       1.0  0.38300  0.33510  0.32550  1.0000
  N   N18       1.0  0.61700  0.33510  0.67450  1.0000
  N   N19       1.0  0.88300  0.83510  0.32550  1.0000
  N   N20       1.0  0.11700  0.83510  0.67450  1.0000
  N   N21       1.0  0.61700  0.66490  0.67450  1.0000
  N   N22       1.0  0.38300  0.66490  0.32550  1.0000
  N   N23       1.0  0.11700  0.16490  0.67450  1.0000
  N   N24       1.0  0.88300  0.16490  0.32550  1.0000
  C   C113      1.0  0.36490  0.36660  0.31880  1.0000
  C   C114      1.0  0.63510  0.36660  0.68120  1.0000
  C   C115      1.0  0.86490  0.86660  0.31880  1.0000
  C   C116      1.0  0.13510  0.86660  0.68120  1.0000
  C   C117      1.0  0.63510  0.63340  0.68120  1.0000
  C   C118      1.0  0.36490  0.63340  0.31880  1.0000
  C   C119      1.0  0.13510  0.13340  0.68120  1.0000
  C   C120      1.0  0.86490  0.13340  0.31880  1.0000
  H   H65       1.0  0.37280  0.39510  0.31700  1.0000
  H   H66       1.0  0.62720  0.39510  0.68300  1.0000
  H   H67       1.0  0.87280  0.89510  0.31700  1.0000
  H   H68       1.0  0.12720  0.89510  0.68300  1.0000
  H   H69       1.0  0.62720  0.60490  0.68300  1.0000
  H   H70       1.0  0.37280  0.60490  0.31700  1.0000
  H   H71       1.0  0.12720  0.10490  0.68300  1.0000
  H   H72       1.0  0.87280  0.10490  0.31700  1.0000
  C   C121      1.0  0.33320  0.36270  0.31370  1.0000
  C   C122      1.0  0.66680  0.36270  0.68630  1.0000
  C   C123      1.0  0.83320  0.86270  0.31370  1.0000
  C   C124      1.0  0.16680  0.86270  0.68630  1.0000
  C   C125      1.0  0.66680  0.63730  0.68630  1.0000
  C   C126      1.0  0.33320  0.63730  0.31370  1.0000
  C   C127      1.0  0.16680  0.13730  0.68630  1.0000
  C   C128      1.0  0.83320  0.13730  0.31370  1.0000
  C   C129      1.0  0.31880  0.32260  0.32100  1.0000
  C   C130      1.0  0.68120  0.32260  0.67900  1.0000
  C   C131      1.0  0.81880  0.82260  0.32100  1.0000
  C   C132      1.0  0.18120  0.82260  0.67900  1.0000
  C   C133      1.0  0.68120  0.67740  0.67900  1.0000
  C   C134      1.0  0.31880  0.67740  0.32100  1.0000
  C   C135      1.0  0.18120  0.17740  0.67900  1.0000
  C   C136      1.0  0.81880  0.17740  0.32100  1.0000
  C   C137      1.0  0.28700  0.32210  0.31220  1.0000
  C   C138      1.0  0.71300  0.32210  0.68780  1.0000
  C   C139      1.0  0.78700  0.82210  0.31220  1.0000
  C   C140      1.0  0.21300  0.82210  0.68780  1.0000
  C   C141      1.0  0.71300  0.67790  0.68780  1.0000
  C   C142      1.0  0.28700  0.67790  0.31220  1.0000
  C   C143      1.0  0.21300  0.17790  0.68780  1.0000
  C   C144      1.0  0.78700  0.17790  0.31220  1.0000
  C   C145      1.0  0.27060  0.35990  0.29620  1.0000
  C   C146      1.0  0.72940  0.35990  0.70380  1.0000
  C   C147      1.0  0.77060  0.85990  0.29620  1.0000
  C   C148      1.0  0.22940  0.85990  0.70380  1.0000
  C   C149      1.0  0.72940  0.64010  0.70380  1.0000
  C   C150      1.0  0.27060  0.64010  0.29620  1.0000
  C   C151      1.0  0.22940  0.14010  0.70380  1.0000
  C   C152      1.0  0.77060  0.14010  0.29620  1.0000
  H   H73       1.0  0.24950  0.35960  0.29020  1.0000
  H   H74       1.0  0.75050  0.35960  0.70980  1.0000
  H   H75       1.0  0.74950  0.85960  0.29020  1.0000
  H   H76       1.0  0.25050  0.85960  0.70980  1.0000
  H   H77       1.0  0.75050  0.64040  0.70980  1.0000
  H   H78       1.0  0.24950  0.64040  0.29020  1.0000
  H   H79       1.0  0.25050  0.14040  0.70980  1.0000
  H   H80       1.0  0.74950  0.14040  0.29020  1.0000
  Br  Br9       1.0  0.26363  0.44894  0.27060  1.0000
  Br  Br10      1.0  0.73637  0.44894  0.72940  1.0000
  Br  Br11      1.0  0.76363  0.94894  0.27060  1.0000
  Br  Br12      1.0  0.23637  0.94894  0.72940  1.0000
  Br  Br13      1.0  0.73637  0.55106  0.72940  1.0000
  Br  Br14      1.0  0.26363  0.55106  0.27060  1.0000
  Br  Br15      1.0  0.23637  0.05106  0.72940  1.0000
  Br  Br16      1.0  0.76363  0.05106  0.27060  1.0000
  C   C153      1.0  0.28600  0.39770  0.28950  1.0000
  C   C154      1.0  0.71400  0.39770  0.71050  1.0000
  C   C155      1.0  0.78600  0.89770  0.28950  1.0000
  C   C156      1.0  0.21400  0.89770  0.71050  1.0000
  C   C157      1.0  0.71400  0.60230  0.71050  1.0000
  C   C158      1.0  0.28600  0.60230  0.28950  1.0000
  C   C159      1.0  0.21400  0.10230  0.71050  1.0000
  C   C160      1.0  0.78600  0.10230  0.28950  1.0000
  C   C161      1.0  0.31620  0.39950  0.29770  1.0000
  C   C162      1.0  0.68380  0.39950  0.70230  1.0000
  C   C163      1.0  0.81620  0.89950  0.29770  1.0000
  C   C164      1.0  0.18380  0.89950  0.70230  1.0000
  C   C165      1.0  0.68380  0.60050  0.70230  1.0000
  C   C166      1.0  0.31620  0.60050  0.29770  1.0000
  C   C167      1.0  0.18380  0.10050  0.70230  1.0000
  C   C168      1.0  0.81620  0.10050  0.29770  1.0000
  H   H81       1.0  0.32570  0.42620  0.29260  1.0000
  H   H82       1.0  0.67430  0.42620  0.70740  1.0000
  H   H83       1.0  0.82570  0.92620  0.29260  1.0000
  H   H84       1.0  0.17430  0.92620  0.70740  1.0000
  H   H85       1.0  0.67430  0.57380  0.70740  1.0000
  H   H86       1.0  0.32570  0.57380  0.29260  1.0000
  H   H87       1.0  0.17430  0.07380  0.70740  1.0000
  H   H88       1.0  0.82570  0.07380  0.29260  1.0000
  C   C169      1.0  0.26970  0.28320  0.31650  1.0000
  C   C170      1.0  0.73030  0.28320  0.68350  1.0000
  C   C171      1.0  0.76970  0.78320  0.31650  1.0000
  C   C172      1.0  0.23030  0.78320  0.68350  1.0000
  C   C173      1.0  0.73030  0.71680  0.68350  1.0000
  C   C174      1.0  0.26970  0.71680  0.31650  1.0000
  C   C175      1.0  0.23030  0.21680  0.68350  1.0000
  C   C176      1.0  0.76970  0.21680  0.31650  1.0000
  H   H89       1.0  0.24870  0.28570  0.30900  1.0000
  H   H90       1.0  0.75130  0.28570  0.69100  1.0000
  H   H91       1.0  0.74870  0.78570  0.30900  1.0000
  H   H92       1.0  0.25130  0.78570  0.69100  1.0000
  H   H93       1.0  0.75130  0.71430  0.69100  1.0000
  H   H94       1.0  0.24870  0.71430  0.30900  1.0000
  H   H95       1.0  0.25130  0.21430  0.69100  1.0000
  H   H96       1.0  0.74870  0.21430  0.30900  1.0000
  N   N25       1.0  0.28070  0.24600  0.32970  1.0000
  N   N26       1.0  0.71930  0.24600  0.67030  1.0000
  N   N27       1.0  0.78070  0.74600  0.32970  1.0000
  N   N28       1.0  0.21930  0.74600  0.67030  1.0000
  N   N29       1.0  0.71930  0.75400  0.67030  1.0000
  N   N30       1.0  0.28070  0.75400  0.32970  1.0000
  N   N31       1.0  0.21930  0.25400  0.67030  1.0000
  N   N32       1.0  0.78070  0.25400  0.32970  1.0000
  O   O29       1.0  0.25580  0.21690  0.32700  1.0000
  O   O30       1.0  0.74420  0.21690  0.67300  1.0000
  O   O31       1.0  0.75580  0.71690  0.32700  1.0000
  O   O32       1.0  0.24420  0.71690  0.67300  1.0000
  O   O33       1.0  0.74420  0.78310  0.67300  1.0000
  O   O34       1.0  0.25580  0.78310  0.32700  1.0000
  O   O35       1.0  0.24420  0.28310  0.67300  1.0000
  O   O36       1.0  0.75580  0.28310  0.32700  1.0000
  O   O37       1.0  0.43800  0.29580  0.38180  1.0000
  O   O38       1.0  0.56200  0.29580  0.61820  1.0000
  O   O39       1.0  0.93800  0.79580  0.38180  1.0000
  O   O40       1.0  0.06200  0.79580  0.61820  1.0000
  O   O41       1.0  0.56200  0.70420  0.61820  1.0000
  O   O42       1.0  0.43800  0.70420  0.38180  1.0000
  O   O43       1.0  0.06200  0.20420  0.61820  1.0000
  O   O44       1.0  0.93800  0.20420  0.38180  1.0000
  N   N33       1.0  0.41520  0.27280  0.39150  1.0000
  N   N34       1.0  0.58480  0.27280  0.60850  1.0000
  N   N35       1.0  0.91520  0.77280  0.39150  1.0000
  N   N36       1.0  0.08480  0.77280  0.60850  1.0000
  N   N37       1.0  0.58480  0.72720  0.60850  1.0000
  N   N38       1.0  0.41520  0.72720  0.39150  1.0000
  N   N39       1.0  0.08480  0.22720  0.60850  1.0000
  N   N40       1.0  0.91520  0.22720  0.39150  1.0000
  C   C177      1.0  0.41920  0.25790  0.43450  1.0000
  C   C178      1.0  0.58080  0.25790  0.56550  1.0000
  C   C179      1.0  0.91920  0.75790  0.43450  1.0000
  C   C180      1.0  0.08080  0.75790  0.56550  1.0000
  C   C181      1.0  0.58080  0.74210  0.56550  1.0000
  C   C182      1.0  0.41920  0.74210  0.43450  1.0000
  C   C183      1.0  0.08080  0.24210  0.56550  1.0000
  C   C184      1.0  0.91920  0.24210  0.43450  1.0000
  H   H97       1.0  0.43810  0.26370  0.45410  1.0000
  H   H98       1.0  0.56190  0.26370  0.54590  1.0000
  H   H99       1.0  0.93810  0.76370  0.45410  1.0000
  H   H100      1.0  0.06190  0.76370  0.54590  1.0000
  H   H101      1.0  0.56190  0.73630  0.54590  1.0000
  H   H102      1.0  0.43810  0.73630  0.45410  1.0000
  H   H103      1.0  0.06190  0.23630  0.54590  1.0000
  H   H104      1.0  0.93810  0.23630  0.45410  1.0000
  C   C185      1.0  0.39900  0.23330  0.45770  1.0000
  C   C186      1.0  0.60100  0.23330  0.54230  1.0000
  C   C187      1.0  0.89900  0.73330  0.45770  1.0000
  C   C188      1.0  0.10100  0.73330  0.54230  1.0000
  C   C189      1.0  0.60100  0.76670  0.54230  1.0000
  C   C190      1.0  0.39900  0.76670  0.45770  1.0000
  C   C191      1.0  0.10100  0.26670  0.54230  1.0000
  C   C192      1.0  0.89900  0.26670  0.45770  1.0000
  C   C193      1.0  0.36950  0.22150  0.43380  1.0000
  C   C194      1.0  0.63050  0.22150  0.56620  1.0000
  C   C195      1.0  0.86950  0.72150  0.43380  1.0000
  C   C196      1.0  0.13050  0.72150  0.56620  1.0000
  C   C197      1.0  0.63050  0.77850  0.56620  1.0000
  C   C198      1.0  0.36950  0.77850  0.43380  1.0000
  C   C199      1.0  0.13050  0.27850  0.56620  1.0000
  C   C200      1.0  0.86950  0.27850  0.43380  1.0000
  C   C201      1.0  0.35120  0.19990  0.46250  1.0000
  C   C202      1.0  0.64880  0.19990  0.53750  1.0000
  C   C203      1.0  0.85120  0.69990  0.46250  1.0000
  C   C204      1.0  0.14880  0.69990  0.53750  1.0000
  C   C205      1.0  0.64880  0.80010  0.53750  1.0000
  C   C206      1.0  0.35120  0.80010  0.46250  1.0000
  C   C207      1.0  0.14880  0.30010  0.53750  1.0000
  C   C208      1.0  0.85120  0.30010  0.46250  1.0000
  C   C209      1.0  0.36120  0.19130  0.51290  1.0000
  C   C210      1.0  0.63880  0.19130  0.48710  1.0000
  C   C211      1.0  0.86120  0.69130  0.51290  1.0000
  C   C212      1.0  0.13880  0.69130  0.48710  1.0000
  C   C213      1.0  0.63880  0.80870  0.48710  1.0000
  C   C214      1.0  0.36120  0.80870  0.51290  1.0000
  C   C215      1.0  0.13880  0.30870  0.48710  1.0000
  C   C216      1.0  0.86120  0.30870  0.51290  1.0000
  H   H105      1.0  0.34840  0.17810  0.53190  1.0000
  H   H106      1.0  0.65160  0.17810  0.46810  1.0000
  H   H107      1.0  0.84840  0.67810  0.53190  1.0000
  H   H108      1.0  0.15160  0.67810  0.46810  1.0000
  H   H109      1.0  0.65160  0.82190  0.46810  1.0000
  H   H110      1.0  0.34840  0.82190  0.53190  1.0000
  H   H111      1.0  0.15160  0.32190  0.46810  1.0000
  H   H112      1.0  0.84840  0.32190  0.53190  1.0000
  Br  Br17      1.0  0.40361  0.19080  0.60142  1.0000
  Br  Br18      1.0  0.59639  0.19080  0.39858  1.0000
  Br  Br19      1.0  0.90361  0.69080  0.60142  1.0000
  Br  Br20      1.0  0.09639  0.69080  0.39858  1.0000
  Br  Br21      1.0  0.59639  0.80920  0.39858  1.0000
  Br  Br22      1.0  0.40361  0.80920  0.60142  1.0000
  Br  Br23      1.0  0.09639  0.30920  0.39858  1.0000
  Br  Br24      1.0  0.90361  0.30920  0.60142  1.0000
  C   C217      1.0  0.38990  0.20250  0.53400  1.0000
  C   C218      1.0  0.61010  0.20250  0.46600  1.0000
  C   C219      1.0  0.88990  0.70250  0.53400  1.0000
  C   C220      1.0  0.11010  0.70250  0.46600  1.0000
  C   C221      1.0  0.61010  0.79750  0.46600  1.0000
  C   C222      1.0  0.38990  0.79750  0.53400  1.0000
  C   C223      1.0  0.11010  0.29750  0.46600  1.0000
  C   C224      1.0  0.88990  0.29750  0.53400  1.0000
  C   C225      1.0  0.40880  0.22230  0.50750  1.0000
  C   C226      1.0  0.59120  0.22230  0.49250  1.0000
  C   C227      1.0  0.90880  0.72230  0.50750  1.0000
  C   C228      1.0  0.09120  0.72230  0.49250  1.0000
  C   C229      1.0  0.59120  0.77770  0.49250  1.0000
  C   C230      1.0  0.40880  0.77770  0.50750  1.0000
  C   C231      1.0  0.09120  0.27770  0.49250  1.0000
  C   C232      1.0  0.90880  0.27770  0.50750  1.0000
  H   H113      1.0  0.42870  0.22850  0.52290  1.0000
  H   H114      1.0  0.57130  0.22850  0.47710  1.0000
  H   H115      1.0  0.92870  0.72850  0.52290  1.0000
  H   H116      1.0  0.07130  0.72850  0.47710  1.0000
  H   H117      1.0  0.57130  0.77150  0.47710  1.0000
  H   H118      1.0  0.42870  0.77150  0.52290  1.0000
  H   H119      1.0  0.07130  0.27150  0.47710  1.0000
  H   H120      1.0  0.92870  0.27150  0.52290  1.0000
  C   C233      1.0  0.32180  0.18470  0.44190  1.0000
  C   C234      1.0  0.67820  0.18470  0.55810  1.0000
  C   C235      1.0  0.82180  0.68470  0.44190  1.0000
  C   C236      1.0  0.17820  0.68470  0.55810  1.0000
  C   C237      1.0  0.67820  0.81530  0.55810  1.0000
  C   C238      1.0  0.32180  0.81530  0.44190  1.0000
  C   C239      1.0  0.17820  0.31530  0.55810  1.0000
  C   C240      1.0  0.82180  0.31530  0.44190  1.0000
  H   H121      1.0  0.31030  0.17160  0.46320  1.0000
  H   H122      1.0  0.68970  0.17160  0.53680  1.0000
  H   H123      1.0  0.81030  0.67160  0.46320  1.0000
  H   H124      1.0  0.18970  0.67160  0.53680  1.0000
  H   H125      1.0  0.68970  0.82840  0.53680  1.0000
  H   H126      1.0  0.31030  0.82840  0.46320  1.0000
  H   H127      1.0  0.18970  0.32840  0.53680  1.0000
  H   H128      1.0  0.81030  0.32840  0.46320  1.0000
  N   N41       1.0  0.31050  0.18790  0.39690  1.0000
  N   N42       1.0  0.68950  0.18790  0.60310  1.0000
  N   N43       1.0  0.81050  0.68790  0.39690  1.0000
  N   N44       1.0  0.18950  0.68790  0.60310  1.0000
  N   N45       1.0  0.68950  0.81210  0.60310  1.0000
  N   N46       1.0  0.31050  0.81210  0.39690  1.0000
  N   N47       1.0  0.18950  0.31210  0.60310  1.0000
  N   N48       1.0  0.81050  0.31210  0.39690  1.0000
  O   O45       1.0  0.28380  0.17060  0.39510  1.0000
  O   O46       1.0  0.71620  0.17060  0.60490  1.0000
  O   O47       1.0  0.78380  0.67060  0.39510  1.0000
  O   O48       1.0  0.21620  0.67060  0.60490  1.0000
  O   O49       1.0  0.71620  0.82940  0.60490  1.0000
  O   O50       1.0  0.28380  0.82940  0.39510  1.0000
  O   O51       1.0  0.21620  0.32940  0.60490  1.0000
  O   O52       1.0  0.78380  0.32940  0.39510  1.0000
  C   C241      1.0  0.23560  0.14770  0.34880  1.0000
  C   C242      1.0  0.76440  0.14770  0.65120  1.0000
  C   C243      1.0  0.73560  0.64770  0.34880  1.0000
  C   C244      1.0  0.26440  0.64770  0.65120  1.0000
  C   C245      1.0  0.76440  0.85230  0.65120  1.0000
  C   C246      1.0  0.23560  0.85230  0.34880  1.0000
  C   C247      1.0  0.26440  0.35230  0.65120  1.0000
  C   C248      1.0  0.73560  0.35230  0.34880  1.0000
  C   C249      1.0  0.20830  0.15630  0.31810  1.0000
  C   C250      1.0  0.79170  0.15630  0.68190  1.0000
  C   C251      1.0  0.70830  0.65630  0.31810  1.0000
  C   C252      1.0  0.29170  0.65630  0.68190  1.0000
  C   C253      1.0  0.79170  0.84370  0.68190  1.0000
  C   C254      1.0  0.20830  0.84370  0.31810  1.0000
  C   C255      1.0  0.29170  0.34370  0.68190  1.0000
  C   C256      1.0  0.70830  0.34370  0.31810  1.0000
  H   H129      1.0  0.20710  0.17830  0.29380  1.0000
  H   H130      1.0  0.79290  0.17830  0.70620  1.0000
  H   H131      1.0  0.70710  0.67830  0.29380  1.0000
  H   H132      1.0  0.29290  0.67830  0.70620  1.0000
  H   H133      1.0  0.79290  0.82170  0.70620  1.0000
  H   H134      1.0  0.20710  0.82170  0.29380  1.0000
  H   H135      1.0  0.29290  0.32170  0.70620  1.0000
  H   H136      1.0  0.70710  0.32170  0.29380  1.0000
  C   C257      1.0  0.18310  0.13280  0.32310  1.0000
  C   C258      1.0  0.81690  0.13280  0.67690  1.0000
  C   C259      1.0  0.68310  0.63280  0.32310  1.0000
  C   C260      1.0  0.31690  0.63280  0.67690  1.0000
  C   C261      1.0  0.81690  0.86720  0.67690  1.0000
  C   C262      1.0  0.18310  0.86720  0.32310  1.0000
  C   C263      1.0  0.31690  0.36720  0.67690  1.0000
  C   C264      1.0  0.68310  0.36720  0.32310  1.0000
  H   H137      1.0  0.16480  0.13910  0.30210  1.0000
  H   H138      1.0  0.83520  0.13910  0.69790  1.0000
  H   H139      1.0  0.66480  0.63910  0.30210  1.0000
  H   H140      1.0  0.33520  0.63910  0.69790  1.0000
  H   H141      1.0  0.83520  0.86090  0.69790  1.0000
  H   H142      1.0  0.16480  0.86090  0.30210  1.0000
  H   H143      1.0  0.33520  0.36090  0.69790  1.0000
  H   H144      1.0  0.66480  0.36090  0.30210  1.0000
  C   C265      1.0  0.18440  0.10050  0.35810  1.0000
  C   C266      1.0  0.81560  0.10050  0.64190  1.0000
  C   C267      1.0  0.68440  0.60050  0.35810  1.0000
  C   C268      1.0  0.31560  0.60050  0.64190  1.0000
  C   C269      1.0  0.81560  0.89950  0.64190  1.0000
  C   C270      1.0  0.18440  0.89950  0.35810  1.0000
  C   C271      1.0  0.31560  0.39950  0.64190  1.0000
  C   C272      1.0  0.68440  0.39950  0.35810  1.0000
  C   C273      1.0  0.21150  0.09070  0.38950  1.0000
  C   C274      1.0  0.78850  0.09070  0.61050  1.0000
  C   C275      1.0  0.71150  0.59070  0.38950  1.0000
  C   C276      1.0  0.28850  0.59070  0.61050  1.0000
  C   C277      1.0  0.78850  0.90930  0.61050  1.0000
  C   C278      1.0  0.21150  0.90930  0.38950  1.0000
  C   C279      1.0  0.28850  0.40930  0.61050  1.0000
  C   C280      1.0  0.71150  0.40930  0.38950  1.0000
  H   H145      1.0  0.21280  0.06840  0.41360  1.0000
  H   H146      1.0  0.78720  0.06840  0.58640  1.0000
  H   H147      1.0  0.71280  0.56840  0.41360  1.0000
  H   H148      1.0  0.28720  0.56840  0.58640  1.0000
  H   H149      1.0  0.78720  0.93160  0.58640  1.0000
  H   H150      1.0  0.21280  0.93160  0.41360  1.0000
  H   H151      1.0  0.28720  0.43160  0.58640  1.0000
  H   H152      1.0  0.71280  0.43160  0.41360  1.0000
  C   C281      1.0  0.23590  0.11440  0.38400  1.0000
  C   C282      1.0  0.76410  0.11440  0.61600  1.0000
  C   C283      1.0  0.73590  0.61440  0.38400  1.0000
  C   C284      1.0  0.26410  0.61440  0.61600  1.0000
  C   C285      1.0  0.76410  0.88560  0.61600  1.0000
  C   C286      1.0  0.23590  0.88560  0.38400  1.0000
  C   C287      1.0  0.26410  0.38560  0.61600  1.0000
  C   C288      1.0  0.73590  0.38560  0.38400  1.0000
  H   H153      1.0  0.25420  0.10800  0.40510  1.0000
  H   H154      1.0  0.74580  0.10800  0.59490  1.0000
  H   H155      1.0  0.75420  0.60800  0.40510  1.0000
  H   H156      1.0  0.24580  0.60800  0.59490  1.0000
  H   H157      1.0  0.74580  0.89200  0.59490  1.0000
  H   H158      1.0  0.25420  0.89200  0.40510  1.0000
  H   H159      1.0  0.24580  0.39200  0.59490  1.0000
  H   H160      1.0  0.75420  0.39200  0.40510  1.0000
  C   C289      1.0  0.54490  0.42110  0.35050  1.0000
  C   C290      1.0  0.45510  0.42110  0.64950  1.0000
  C   C291      1.0  0.04490  0.92110  0.35050  1.0000
  C   C292      1.0  0.95510  0.92110  0.64950  1.0000
  C   C293      1.0  0.45510  0.57890  0.64950  1.0000
  C   C294      1.0  0.54490  0.57890  0.35050  1.0000
  C   C295      1.0  0.95510  0.07890  0.64950  1.0000
  C   C296      1.0  0.04490  0.07890  0.35050  1.0000
  O   O53       1.0  0.54600  0.44970  0.38460  1.0000
  O   O54       1.0  0.45400  0.44970  0.61540  1.0000
  O   O55       1.0  0.04600  0.94970  0.38460  1.0000
  O   O56       1.0  0.95400  0.94970  0.61540  1.0000
  O   O57       1.0  0.45400  0.55030  0.61540  1.0000
  O   O58       1.0  0.54600  0.55030  0.38460  1.0000
  O   O59       1.0  0.95400  0.05030  0.61540  1.0000
  O   O60       1.0  0.04600  0.05030  0.38460  1.0000
  O   O61       1.0  0.56338  0.41200  0.32540  1.0000
  O   O62       1.0  0.43662  0.41200  0.67460  1.0000
  O   O63       1.0  0.06338  0.91200  0.32540  1.0000
  O   O64       1.0  0.93662  0.91200  0.67460  1.0000
  O   O65       1.0  0.43662  0.58800  0.67460  1.0000
  O   O66       1.0  0.56338  0.58800  0.32540  1.0000
  O   O67       1.0  0.93662  0.08800  0.67460  1.0000
  O   O68       1.0  0.06338  0.08800  0.32540  1.0000
  O   O69       1.0  0.35490  0.21860  0.29700  1.0000
  O   O70       1.0  0.64510  0.21860  0.70300  1.0000
  O   O71       1.0  0.85490  0.71860  0.29700  1.0000
  O   O72       1.0  0.14510  0.71860  0.70300  1.0000
  O   O73       1.0  0.64510  0.78140  0.70300  1.0000
  O   O74       1.0  0.35490  0.78140  0.29700  1.0000
  O   O75       1.0  0.14510  0.28140  0.70300  1.0000
  O   O76       1.0  0.85490  0.28140  0.29700  1.0000
  O   O77       1.0  0.33360  0.28700  0.33070  1.0000
  O   O78       1.0  0.66640  0.28700  0.66930  1.0000
  O   O79       1.0  0.83360  0.78700  0.33070  1.0000
  O   O80       1.0  0.16640  0.78700  0.66930  1.0000
  O   O81       1.0  0.66640  0.71300  0.66930  1.0000
  O   O82       1.0  0.33360  0.71300  0.33070  1.0000
  O   O83       1.0  0.16640  0.21300  0.66930  1.0000
  O   O84       1.0  0.83360  0.21300  0.33070  1.0000
  O   O85       1.0  0.36180  0.23100  0.38850  1.0000
  O   O86       1.0  0.63820  0.23100  0.61150  1.0000
  O   O87       1.0  0.86180  0.73100  0.38850  1.0000
  O   O88       1.0  0.13820  0.73100  0.61150  1.0000
  O   O89       1.0  0.63820  0.76900  0.61150  1.0000
  O   O90       1.0  0.36180  0.76900  0.38850  1.0000
  O   O91       1.0  0.13820  0.26900  0.61150  1.0000
  O   O92       1.0  0.86180  0.26900  0.38850  1.0000
  C   C297      1.0  0.15720  0.07480  0.36460  1.0000
  C   C298      1.0  0.84280  0.07480  0.63540  1.0000
  C   C299      1.0  0.65720  0.57480  0.36460  1.0000
  C   C300      1.0  0.34280  0.57480  0.63540  1.0000
  C   C301      1.0  0.84280  0.92520  0.63540  1.0000
  C   C302      1.0  0.15720  0.92520  0.36460  1.0000
  C   C303      1.0  0.34280  0.42520  0.63540  1.0000
  C   C304      1.0  0.65720  0.42520  0.36460  1.0000
  O   O93       1.0  0.13321  0.08690  0.33740  1.0000
  O   O94       1.0  0.86679  0.08690  0.66260  1.0000
  O   O95       1.0  0.63321  0.58690  0.33740  1.0000
  O   O96       1.0  0.36679  0.58690  0.66260  1.0000
  O   O97       1.0  0.86679  0.91310  0.66260  1.0000
  O   O98       1.0  0.13321  0.91310  0.33740  1.0000
  O   O99       1.0  0.36679  0.41310  0.66260  1.0000
  O   O100      1.0  0.63321  0.41310  0.33740  1.0000
  O   O101      1.0  0.16110  0.04510  0.39680  1.0000
  O   O102      1.0  0.83890  0.04510  0.60320  1.0000
  O   O103      1.0  0.66110  0.54510  0.39680  1.0000
  O   O104      1.0  0.33890  0.54510  0.60320  1.0000
  O   O105      1.0  0.83890  0.95490  0.60320  1.0000
  O   O106      1.0  0.16110  0.95490  0.39680  1.0000
  O   O107      1.0  0.33890  0.45490  0.60320  1.0000
  O   O108      1.0  0.66110  0.45490  0.39680  1.0000
  C   C305      1.0  0.62160  0.50000  0.65370  1.0000
  C   C306      1.0  0.37840  0.50000  0.34630  1.0000
  C   C307      1.0  0.12160  0.00000  0.65370  1.0000
  C   C308      1.0  0.87840  0.00000  0.34630  1.0000
  C   C309      1.0  0.59420  0.50000  0.62200  1.0000
  C   C310      1.0  0.40580  0.50000  0.37800  1.0000
  C   C311      1.0  0.09420  0.00000  0.62200  1.0000
  C   C312      1.0  0.90580  0.00000  0.37800  1.0000
  H   H161      1.0  0.57670  0.50000  0.63580  1.0000
  H   H162      1.0  0.42330  0.50000  0.36420  1.0000
  H   H163      1.0  0.07670  0.00000  0.63580  1.0000
  H   H164      1.0  0.92330  0.00000  0.36420  1.0000
  C   C313      1.0  0.59110  0.50000  0.57170  1.0000
  C   C314      1.0  0.40890  0.50000  0.42830  1.0000
  C   C315      1.0  0.09110  0.00000  0.57170  1.0000
  C   C316      1.0  0.90890  0.00000  0.42830  1.0000
  H   H165      1.0  0.57190  0.50000  0.55180  1.0000
  H   H166      1.0  0.42810  0.50000  0.44820  1.0000
  H   H167      1.0  0.07190  0.00000  0.55180  1.0000
  H   H168      1.0  0.92810  0.00000  0.44820  1.0000
  C   C317      1.0  0.61610  0.50000  0.55010  1.0000
  C   C318      1.0  0.38390  0.50000  0.44990  1.0000
  C   C319      1.0  0.11610  0.00000  0.55010  1.0000
  C   C320      1.0  0.88390  0.00000  0.44990  1.0000
  C   C321      1.0  0.64370  0.50000  0.58080  1.0000
  C   C322      1.0  0.35630  0.50000  0.41920  1.0000
  C   C323      1.0  0.14370  0.00000  0.58080  1.0000
  C   C324      1.0  0.85630  0.00000  0.41920  1.0000
  H   H169      1.0  0.66120  0.50000  0.56710  1.0000
  H   H170      1.0  0.33880  0.50000  0.43290  1.0000
  H   H171      1.0  0.16120  0.00000  0.56710  1.0000
  H   H172      1.0  0.83880  0.00000  0.43290  1.0000
  C   C325      1.0  0.64610  0.50000  0.63120  1.0000
  C   C326      1.0  0.35390  0.50000  0.36880  1.0000
  C   C327      1.0  0.14610  0.00000  0.63120  1.0000
  C   C328      1.0  0.85390  0.00000  0.36880  1.0000
  H   H173      1.0  0.66540  0.50000  0.65120  1.0000
  H   H174      1.0  0.33460  0.50000  0.34880  1.0000
  H   H175      1.0  0.16540  0.00000  0.65120  1.0000
  H   H176      1.0  0.83460  0.00000  0.34880  1.0000
  B   B17       1.0  0.62300  0.50000  0.71150  1.0000
  B   B18       1.0  0.37700  0.50000  0.28850  1.0000
  B   B19       1.0  0.12300  0.00000  0.71150  1.0000
  B   B20       1.0  0.87700  0.00000  0.28850  1.0000
  O   O109      1.0  0.65270  0.50000  0.73710  1.0000
  O   O110      1.0  0.34730  0.50000  0.26290  1.0000
  O   O111      1.0  0.15270  0.00000  0.73710  1.0000
  O   O112      1.0  0.84730  0.00000  0.26290  1.0000
  N   N49       1.0  0.65550  0.50000  0.78550  1.0000
  N   N50       1.0  0.34450  0.50000  0.21450  1.0000
  N   N51       1.0  0.15550  0.00000  0.78550  1.0000
  N   N52       1.0  0.84450  0.00000  0.21450  1.0000
  C   C329      1.0  0.68250  0.50000  0.80690  1.0000
  C   C330      1.0  0.31750  0.50000  0.19310  1.0000
  C   C331      1.0  0.18250  0.00000  0.80690  1.0000
  C   C332      1.0  0.81750  0.00000  0.19310  1.0000
  H   H177      1.0  0.69700  0.50000  0.78670  1.0000
  H   H178      1.0  0.30300  0.50000  0.21330  1.0000
  H   H179      1.0  0.19700  0.00000  0.78670  1.0000
  H   H180      1.0  0.80300  0.00000  0.21330  1.0000
  C   C333      1.0  0.69280  0.50000  0.85890  1.0000
  C   C334      1.0  0.30720  0.50000  0.14110  1.0000
  C   C335      1.0  0.19280  0.00000  0.85890  1.0000
  C   C336      1.0  0.80720  0.00000  0.14110  1.0000
  C   C337      1.0  0.67460  0.50000  0.89500  1.0000
  C   C338      1.0  0.32540  0.50000  0.10500  1.0000
  C   C339      1.0  0.17460  0.00000  0.89500  1.0000
  C   C340      1.0  0.82540  0.00000  0.10500  1.0000
  C   C341      1.0  0.68860  0.50000  0.94580  1.0000
  C   C342      1.0  0.31140  0.50000  0.05420  1.0000
  C   C343      1.0  0.18860  0.00000  0.94580  1.0000
  C   C344      1.0  0.81140  0.00000  0.05420  1.0000
  C   C345      1.0  0.71970  0.50000  0.95920  1.0000
  C   C346      1.0  0.28030  0.50000  0.04080  1.0000
  C   C347      1.0  0.21970  0.00000  0.95920  1.0000
  C   C348      1.0  0.78030  0.00000  0.04080  1.0000
  H   H181      1.0  0.72900  0.50000  0.99280  1.0000
  H   H182      1.0  0.27100  0.50000  0.00720  1.0000
  H   H183      1.0  0.22900  0.00000  0.99280  1.0000
  H   H184      1.0  0.77100  0.00000  0.00720  1.0000
  Br  Br25      1.0  0.77836  0.50000  0.94098  1.0000
  Br  Br26      1.0  0.22164  0.50000  0.05902  1.0000
  Br  Br27      1.0  0.27836  0.00000  0.94098  1.0000
  Br  Br28      1.0  0.72164  0.00000  0.05902  1.0000
  C   C349      1.0  0.73662  0.50000  0.92290  1.0000
  C   C350      1.0  0.26338  0.50000  0.07710  1.0000
  C   C351      1.0  0.23662  0.00000  0.92290  1.0000
  C   C352      1.0  0.76338  0.00000  0.07710  1.0000
  C   C353      1.0  0.72420  0.50000  0.87370  1.0000
  C   C354      1.0  0.27580  0.50000  0.12630  1.0000
  C   C355      1.0  0.22420  0.00000  0.87370  1.0000
  C   C356      1.0  0.77580  0.00000  0.12630  1.0000
  H   H185      1.0  0.73660  0.50000  0.84990  1.0000
  H   H186      1.0  0.26340  0.50000  0.15010  1.0000
  H   H187      1.0  0.23660  0.00000  0.84990  1.0000
  H   H188      1.0  0.76340  0.00000  0.15010  1.0000
  C   C357      1.0  0.67270  0.50000  0.98610  1.0000
  C   C358      1.0  0.32730  0.50000  0.01390  1.0000
  C   C359      1.0  0.17270  0.00000  0.98610  1.0000
  C   C360      1.0  0.82730  0.00000  0.01390  1.0000
  H   H189      1.0  0.68420  0.50000  0.01830  1.0000
  H   H190      1.0  0.31580  0.50000  0.98170  1.0000
  H   H191      1.0  0.18420  0.00000  0.01830  1.0000
  H   H192      1.0  0.81580  0.00000  0.98170  1.0000
  N   N53       1.0  0.64500  0.50000  0.98200  1.0000
  N   N54       1.0  0.35500  0.50000  0.01800  1.0000
  N   N55       1.0  0.14500  0.00000  0.98200  1.0000
  N   N56       1.0  0.85500  0.00000  0.01800  1.0000
  O   O113      1.0  0.63750  0.50000  0.02750  1.0000
  O   O114      1.0  0.36250  0.50000  0.97250  1.0000
  O   O115      1.0  0.13750  0.00000  0.02750  1.0000
  O   O116      1.0  0.86250  0.00000  0.97250  1.0000
  B   B21       1.0  0.60600  0.50000  0.02780  1.0000
  B   B22       1.0  0.39400  0.50000  0.97220  1.0000
  B   B23       1.0  0.10600  0.00000  0.02780  1.0000
  B   B24       1.0  0.89400  0.00000  0.97220  1.0000
  O   O117      1.0  0.60638  0.53920  0.71840  1.0000
  O   O118      1.0  0.39362  0.53920  0.28160  1.0000
  O   O119      1.0  0.10638  0.03920  0.71840  1.0000
  O   O120      1.0  0.89362  0.03920  0.28160  1.0000
  O   O121      1.0  0.39362  0.46080  0.28160  1.0000
  O   O122      1.0  0.60638  0.46080  0.71840  1.0000
  O   O123      1.0  0.89362  0.96080  0.28160  1.0000
  O   O124      1.0  0.10638  0.96080  0.71840  1.0000
  N   N57       1.0  0.60230  0.54690  0.76480  1.0000
  N   N58       1.0  0.39770  0.54690  0.23520  1.0000
  N   N59       1.0  0.10230  0.04690  0.76480  1.0000
  N   N60       1.0  0.89770  0.04690  0.23520  1.0000
  N   N61       1.0  0.39770  0.45310  0.23520  1.0000
  N   N62       1.0  0.60230  0.45310  0.76480  1.0000
  N   N63       1.0  0.89770  0.95310  0.23520  1.0000
  N   N64       1.0  0.10230  0.95310  0.76480  1.0000
  C   C361      1.0  0.58770  0.58190  0.76640  1.0000
  C   C362      1.0  0.41230  0.58190  0.23360  1.0000
  C   C363      1.0  0.08770  0.08190  0.76640  1.0000
  C   C364      1.0  0.91230  0.08190  0.23360  1.0000
  C   C365      1.0  0.41230  0.41810  0.23360  1.0000
  C   C366      1.0  0.58770  0.41810  0.76640  1.0000
  C   C367      1.0  0.91230  0.91810  0.23360  1.0000
  C   C368      1.0  0.08770  0.91810  0.76640  1.0000
  H   H193      1.0  0.58200  0.59750  0.73660  1.0000
  H   H194      1.0  0.41800  0.59750  0.26340  1.0000
  H   H195      1.0  0.08200  0.09750  0.73660  1.0000
  H   H196      1.0  0.91800  0.09750  0.26340  1.0000
  H   H197      1.0  0.41800  0.40250  0.26340  1.0000
  H   H198      1.0  0.58200  0.40250  0.73660  1.0000
  H   H199      1.0  0.91800  0.90250  0.26340  1.0000
  H   H200      1.0  0.08200  0.90250  0.73660  1.0000
  C   C369      1.0  0.57890  0.60030  0.80950  1.0000
  C   C370      1.0  0.42110  0.60030  0.19050  1.0000
  C   C371      1.0  0.07890  0.10030  0.80950  1.0000
  C   C372      1.0  0.92110  0.10030  0.19050  1.0000
  C   C373      1.0  0.42110  0.39970  0.19050  1.0000
  C   C374      1.0  0.57890  0.39970  0.80950  1.0000
  C   C375      1.0  0.92110  0.89970  0.19050  1.0000
  C   C376      1.0  0.07890  0.89970  0.80950  1.0000
  C   C377      1.0  0.58420  0.57960  0.85600  1.0000
  C   C378      1.0  0.41580  0.57960  0.14400  1.0000
  C   C379      1.0  0.08420  0.07960  0.85600  1.0000
  C   C380      1.0  0.91580  0.07960  0.14400  1.0000
  C   C381      1.0  0.41580  0.42040  0.14400  1.0000
  C   C382      1.0  0.58420  0.42040  0.85600  1.0000
  C   C383      1.0  0.91580  0.92040  0.14400  1.0000
  C   C384      1.0  0.08420  0.92040  0.85600  1.0000
  C   C385      1.0  0.57450  0.60060  0.89620  1.0000
  C   C386      1.0  0.42550  0.60060  0.10380  1.0000
  C   C387      1.0  0.07450  0.10060  0.89620  1.0000
  C   C388      1.0  0.92550  0.10060  0.10380  1.0000
  C   C389      1.0  0.42550  0.39940  0.10380  1.0000
  C   C390      1.0  0.57450  0.39940  0.89620  1.0000
  C   C391      1.0  0.92550  0.89940  0.10380  1.0000
  C   C392      1.0  0.07450  0.89940  0.89620  1.0000
  C   C393      1.0  0.56040  0.64100  0.88860  1.0000
  C   C394      1.0  0.43960  0.64100  0.11140  1.0000
  C   C395      1.0  0.06040  0.14100  0.88860  1.0000
  C   C396      1.0  0.93960  0.14100  0.11140  1.0000
  C   C397      1.0  0.43960  0.35900  0.11140  1.0000
  C   C398      1.0  0.56040  0.35900  0.88860  1.0000
  C   C399      1.0  0.93960  0.85900  0.11140  1.0000
  C   C400      1.0  0.06040  0.85900  0.88860  1.0000
  H   H201      1.0  0.55340  0.65510  0.91470  1.0000
  H   H202      1.0  0.44660  0.65510  0.08530  1.0000
  H   H203      1.0  0.05340  0.15510  0.91470  1.0000
  H   H204      1.0  0.94660  0.15510  0.08530  1.0000
  H   H205      1.0  0.44660  0.34490  0.08530  1.0000
  H   H206      1.0  0.55340  0.34490  0.91470  1.0000
  H   H207      1.0  0.94660  0.84490  0.08530  1.0000
  H   H208      1.0  0.05340  0.84490  0.91470  1.0000
  Br  Br29      1.0  0.53808  0.71700  0.83463  1.0000
  Br  Br30      1.0  0.46192  0.71700  0.16537  1.0000
  Br  Br31      1.0  0.03808  0.21700  0.83463  1.0000
  Br  Br32      1.0  0.96192  0.21700  0.16537  1.0000
  Br  Br33      1.0  0.46192  0.28300  0.16537  1.0000
  Br  Br34      1.0  0.53808  0.28300  0.83463  1.0000
  Br  Br35      1.0  0.96192  0.78300  0.16537  1.0000
  Br  Br36      1.0  0.03808  0.78300  0.83463  1.0000
  C   C401      1.0  0.55650  0.66040  0.84340  1.0000
  C   C402      1.0  0.44350  0.66040  0.15660  1.0000
  C   C403      1.0  0.05650  0.16040  0.84340  1.0000
  C   C404      1.0  0.94350  0.16040  0.15660  1.0000
  C   C405      1.0  0.44350  0.33960  0.15660  1.0000
  C   C406      1.0  0.55650  0.33960  0.84340  1.0000
  C   C407      1.0  0.94350  0.83960  0.15660  1.0000
  C   C408      1.0  0.05650  0.83960  0.84340  1.0000
  C   C409      1.0  0.56500  0.64100  0.80420  1.0000
  C   C410      1.0  0.43500  0.64100  0.19580  1.0000
  C   C411      1.0  0.06500  0.14100  0.80420  1.0000
  C   C412      1.0  0.93500  0.14100  0.19580  1.0000
  C   C413      1.0  0.43500  0.35900  0.19580  1.0000
  C   C414      1.0  0.56500  0.35900  0.80420  1.0000
  C   C415      1.0  0.93500  0.85900  0.19580  1.0000
  C   C416      1.0  0.06500  0.85900  0.80420  1.0000
  H   H209      1.0  0.56150  0.65520  0.77320  1.0000
  H   H210      1.0  0.43850  0.65520  0.22680  1.0000
  H   H211      1.0  0.06150  0.15520  0.77320  1.0000
  H   H212      1.0  0.93850  0.15520  0.22680  1.0000
  H   H213      1.0  0.43850  0.34480  0.22680  1.0000
  H   H214      1.0  0.56150  0.34480  0.77320  1.0000
  H   H215      1.0  0.93850  0.84480  0.22680  1.0000
  H   H216      1.0  0.06150  0.84480  0.77320  1.0000
  C   C417      1.0  0.57810  0.58280  0.94490  1.0000
  C   C418      1.0  0.42190  0.58280  0.05510  1.0000
  C   C419      1.0  0.07810  0.08280  0.94490  1.0000
  C   C420      1.0  0.92190  0.08280  0.05510  1.0000
  C   C421      1.0  0.42190  0.41720  0.05510  1.0000
  C   C422      1.0  0.57810  0.41720  0.94490  1.0000
  C   C423      1.0  0.92190  0.91720  0.05510  1.0000
  C   C424      1.0  0.07810  0.91720  0.94490  1.0000
  H   H217      1.0  0.57030  0.59910  0.96870  1.0000
  H   H218      1.0  0.42970  0.59910  0.03130  1.0000
  H   H219      1.0  0.07030  0.09910  0.96870  1.0000
  H   H220      1.0  0.92970  0.09910  0.03130  1.0000
  H   H221      1.0  0.42970  0.40090  0.03130  1.0000
  H   H222      1.0  0.57030  0.40090  0.96870  1.0000
  H   H223      1.0  0.92970  0.90090  0.03130  1.0000
  H   H224      1.0  0.07030  0.90090  0.96870  1.0000
  N   N65       1.0  0.59100  0.54690  0.95850  1.0000
  N   N66       1.0  0.40900  0.54690  0.04150  1.0000
  N   N67       1.0  0.09100  0.04690  0.95850  1.0000
  N   N68       1.0  0.90900  0.04690  0.04150  1.0000
  N   N69       1.0  0.40900  0.45310  0.04150  1.0000
  N   N70       1.0  0.59100  0.45310  0.95850  1.0000
  N   N71       1.0  0.90900  0.95310  0.04150  1.0000
  N   N72       1.0  0.09100  0.95310  0.95850  1.0000
  O   O125      1.0  0.59090  0.53980  0.00820  1.0000
  O   O126      1.0  0.40910  0.53980  0.99180  1.0000
  O   O127      1.0  0.09090  0.03980  0.00820  1.0000
  O   O128      1.0  0.90910  0.03980  0.99180  1.0000
  O   O129      1.0  0.40910  0.46020  0.99180  1.0000
  O   O130      1.0  0.59090  0.46020  0.00820  1.0000
  O   O131      1.0  0.90910  0.96020  0.99180  1.0000
  O   O132      1.0  0.09090  0.96020  0.00820  1.0000
  C   C425      1.0  0.60220  0.50000  0.08370  1.0000
  C   C426      1.0  0.39780  0.50000  0.91630  1.0000
  C   C427      1.0  0.10220  0.00000  0.08370  1.0000
  C   C428      1.0  0.89780  0.00000  0.91630  1.0000
  C   C429      1.0  0.59940  0.53700  0.11080  1.0000
  C   C430      1.0  0.40060  0.53700  0.88920  1.0000
  C   C431      1.0  0.09940  0.03700  0.11080  1.0000
  C   C432      1.0  0.90060  0.03700  0.88920  1.0000
  C   C433      1.0  0.40060  0.46300  0.88920  1.0000
  C   C434      1.0  0.59940  0.46300  0.11080  1.0000
  C   C435      1.0  0.90060  0.96300  0.88920  1.0000
  C   C436      1.0  0.09940  0.96300  0.11080  1.0000
  H   H225      1.0  0.60030  0.56440  0.09520  1.0000
  H   H226      1.0  0.39970  0.56440  0.90480  1.0000
  H   H227      1.0  0.10030  0.06440  0.09520  1.0000
  H   H228      1.0  0.89970  0.06440  0.90480  1.0000
  H   H229      1.0  0.39970  0.43560  0.90480  1.0000
  H   H230      1.0  0.60030  0.43560  0.09520  1.0000
  H   H231      1.0  0.89970  0.93560  0.90480  1.0000
  H   H232      1.0  0.10030  0.93560  0.09520  1.0000
  C   C437      1.0  0.59540  0.53760  0.15810  1.0000
  C   C438      1.0  0.40460  0.53760  0.84190  1.0000
  C   C439      1.0  0.09540  0.03760  0.15810  1.0000
  C   C440      1.0  0.90460  0.03760  0.84190  1.0000
  C   C441      1.0  0.40460  0.46240  0.84190  1.0000
  C   C442      1.0  0.59540  0.46240  0.15810  1.0000
  C   C443      1.0  0.90460  0.96240  0.84190  1.0000
  C   C444      1.0  0.09540  0.96240  0.15810  1.0000
  H   H233      1.0  0.59330  0.56490  0.17340  1.0000
  H   H234      1.0  0.40670  0.56490  0.82660  1.0000
  H   H235      1.0  0.09330  0.06490  0.17340  1.0000
  H   H236      1.0  0.90670  0.06490  0.82660  1.0000
  H   H237      1.0  0.40670  0.43510  0.82660  1.0000
  H   H238      1.0  0.59330  0.43510  0.17340  1.0000
  H   H239      1.0  0.90670  0.93510  0.82660  1.0000
  H   H240      1.0  0.09330  0.93510  0.17340  1.0000
  C   C445      1.0  0.59420  0.50000  0.18420  1.0000
  C   C446      1.0  0.40580  0.50000  0.81580  1.0000
  C   C447      1.0  0.09420  0.00000  0.18420  1.0000
  C   C448      1.0  0.90580  0.00000  0.81580  1.0000
  C   C449      1.0  0.61170  0.50000  0.49480  1.0000
  C   C450      1.0  0.38830  0.50000  0.50520  1.0000
  C   C451      1.0  0.11170  0.00000  0.49480  1.0000
  C   C452      1.0  0.88830  0.00000  0.50520  1.0000
  O   O133      1.0  0.58520  0.50000  0.47340  1.0000
  O   O134      1.0  0.41480  0.50000  0.52660  1.0000
  O   O135      1.0  0.08520  0.00000  0.47340  1.0000
  O   O136      1.0  0.91480  0.00000  0.52660  1.0000
  O   O137      1.0  0.63560  0.50000  0.47790  1.0000
  O   O138      1.0  0.36440  0.50000  0.52210  1.0000
  O   O139      1.0  0.13560  0.00000  0.47790  1.0000
  O   O140      1.0  0.86440  0.00000  0.52210  1.0000
  O   O141      1.0  0.64680  0.50000  0.88300  1.0000
  O   O142      1.0  0.35320  0.50000  0.11700  1.0000
  O   O143      1.0  0.14680  0.00000  0.88300  1.0000
  O   O144      1.0  0.85320  0.00000  0.11700  1.0000
  O   O145      1.0  0.59857  0.54280  0.86180  1.0000
  O   O146      1.0  0.40143  0.54280  0.13820  1.0000
  O   O147      1.0  0.09857  0.04280  0.86180  1.0000
  O   O148      1.0  0.90143  0.04280  0.13820  1.0000
  O   O149      1.0  0.40143  0.45720  0.13820  1.0000
  O   O150      1.0  0.59857  0.45720  0.86180  1.0000
  O   O151      1.0  0.90143  0.95720  0.13820  1.0000
  O   O152      1.0  0.09857  0.95720  0.86180  1.0000
  C   C453      1.0  0.59350  0.50000  0.23840  1.0000
  C   C454      1.0  0.40650  0.50000  0.76160  1.0000
  C   C455      1.0  0.09350  0.00000  0.23840  1.0000
  C   C456      1.0  0.90650  0.00000  0.76160  1.0000
  O   O153      1.0  0.59340  0.53690  0.25790  1.0000
  O   O154      1.0  0.40660  0.53690  0.74210  1.0000
  O   O155      1.0  0.09340  0.03690  0.25790  1.0000
  O   O156      1.0  0.90660  0.03690  0.74210  1.0000
  O   O157      1.0  0.40660  0.46310  0.74210  1.0000
  O   O158      1.0  0.59340  0.46310  0.25790  1.0000
  O   O159      1.0  0.90660  0.96310  0.74210  1.0000
  O   O160      1.0  0.09340  0.96310  0.25790  1.0000
