data_image0
_chemical_formula_structural       Zn64O8C16H8C8H8Br8C16H8C8H8B8O8N8C8H8C32H8C16H8C8H8N8O8B8O8N8C8H8C32H8C16H8C8H8N8O16N8C8H8C32H8C16H8C8H8N8O8C16H8C8H8Br8C16H8C8H8O8C16H8C8H8C16H8C8H8C8O24C16H8C8H8C16H8C8H8C8O24C16H8C8H8C16H8C8H8C8O16C16H8C8H8Br8C16H8C8H8B8O8N8C8H8C32H8C16H8C8H8N8O8B8O8N8C8H8C32H8C16H8C8H8N8O16N8C8H8C32H8C16H8C8H8N8O8C16H8C8H8C8H8C8H8Br8C8O8C16H8C8H8C16H8C8H8C8O24C16H8C8H8C16H8C8H8C8O24C16H8C8H8C16H8C8H8C8O24S8C8H24C8H24O8S8C8H24C8H24
_chemical_formula_sum              "Zn64 O264 C944 H608 Br32 B32 N96 S16"
_cell_length_a       40.845
_cell_length_b       42.367
_cell_length_c       34.547
_cell_angle_alpha    90
_cell_angle_beta     115.816
_cell_angle_gamma    90

_space_group_name_H-M_alt    "P 1"
_space_group_IT_number       1

loop_
  _space_group_symop_operation_xyz
  'x, y, z'

loop_
  _atom_site_type_symbol
  _atom_site_label
  _atom_site_symmetry_multiplicity
  _atom_site_fract_x
  _atom_site_fract_y
  _atom_site_fract_z
  _atom_site_occupancy
  Zn  Zn1       1.0  0.00374  0.91164  0.13000  1.0000
  Zn  Zn2       1.0  0.99626  0.91164  0.37000  1.0000
  Zn  Zn3       1.0  0.50374  0.41164  0.13000  1.0000
  Zn  Zn4       1.0  0.49626  0.41164  0.37000  1.0000
  Zn  Zn5       1.0  0.99626  0.08836  0.87000  1.0000
  Zn  Zn6       1.0  0.00374  0.08836  0.63000  1.0000
  Zn  Zn7       1.0  0.49626  0.58836  0.87000  1.0000
  Zn  Zn8       1.0  0.50374  0.58836  0.63000  1.0000
  Zn  Zn9       1.0  0.04890  0.86507  0.11157  1.0000
  Zn  Zn10      1.0  0.95110  0.86507  0.38843  1.0000
  Zn  Zn11      1.0  0.54890  0.36507  0.11157  1.0000
  Zn  Zn12      1.0  0.45110  0.36507  0.38843  1.0000
  Zn  Zn13      1.0  0.95110  0.13493  0.88843  1.0000
  Zn  Zn14      1.0  0.04890  0.13493  0.61157  1.0000
  Zn  Zn15      1.0  0.45110  0.63493  0.88843  1.0000
  Zn  Zn16      1.0  0.54890  0.63493  0.61157  1.0000
  Zn  Zn17      1.0  0.47740  0.13126  0.57873  1.0000
  Zn  Zn18      1.0  0.52260  0.13126  0.92127  1.0000
  Zn  Zn19      1.0  0.97740  0.63126  0.57873  1.0000
  Zn  Zn20      1.0  0.02260  0.63126  0.92127  1.0000
  Zn  Zn21      1.0  0.52260  0.86874  0.42127  1.0000
  Zn  Zn22      1.0  0.47740  0.86874  0.07873  1.0000
  Zn  Zn23      1.0  0.02260  0.36874  0.42127  1.0000
  Zn  Zn24      1.0  0.97740  0.36874  0.07873  1.0000
  Zn  Zn25      1.0  0.51979  0.08404  0.55561  1.0000
  Zn  Zn26      1.0  0.48021  0.08404  0.94439  1.0000
  Zn  Zn27      1.0  0.01979  0.58404  0.55561  1.0000
  Zn  Zn28      1.0  0.98021  0.58404  0.94439  1.0000
  Zn  Zn29      1.0  0.48021  0.91596  0.44439  1.0000
  Zn  Zn30      1.0  0.51979  0.91596  0.05561  1.0000
  Zn  Zn31      1.0  0.98021  0.41596  0.44439  1.0000
  Zn  Zn32      1.0  0.01979  0.41596  0.05561  1.0000
  Zn  Zn33      1.0  0.24734  0.82115  0.55412  1.0000
  Zn  Zn34      1.0  0.75266  0.82115  0.94588  1.0000
  Zn  Zn35      1.0  0.74734  0.32115  0.55412  1.0000
  Zn  Zn36      1.0  0.25266  0.32115  0.94588  1.0000
  Zn  Zn37      1.0  0.75266  0.17885  0.44588  1.0000
  Zn  Zn38      1.0  0.24734  0.17885  0.05412  1.0000
  Zn  Zn39      1.0  0.25266  0.67885  0.44588  1.0000
  Zn  Zn40      1.0  0.74734  0.67885  0.05412  1.0000
  Zn  Zn41      1.0  0.25701  0.89548  0.56353  1.0000
  Zn  Zn42      1.0  0.74299  0.89548  0.93647  1.0000
  Zn  Zn43      1.0  0.75701  0.39548  0.56353  1.0000
  Zn  Zn44      1.0  0.24299  0.39548  0.93647  1.0000
  Zn  Zn45      1.0  0.74299  0.10452  0.43647  1.0000
  Zn  Zn46      1.0  0.25701  0.10452  0.06353  1.0000
  Zn  Zn47      1.0  0.24299  0.60452  0.43647  1.0000
  Zn  Zn48      1.0  0.75701  0.60452  0.06353  1.0000
  Zn  Zn49      1.0  0.31938  0.84741  0.62691  1.0000
  Zn  Zn50      1.0  0.68062  0.84741  0.87309  1.0000
  Zn  Zn51      1.0  0.81938  0.34741  0.62691  1.0000
  Zn  Zn52      1.0  0.18062  0.34741  0.87309  1.0000
  Zn  Zn53      1.0  0.68062  0.15259  0.37309  1.0000
  Zn  Zn54      1.0  0.31938  0.15259  0.12691  1.0000
  Zn  Zn55      1.0  0.18062  0.65259  0.37309  1.0000
  Zn  Zn56      1.0  0.81938  0.65259  0.12691  1.0000
  Zn  Zn57      1.0  0.24428  0.85505  0.63393  1.0000
  Zn  Zn58      1.0  0.75572  0.85505  0.86607  1.0000
  Zn  Zn59      1.0  0.74428  0.35505  0.63393  1.0000
  Zn  Zn60      1.0  0.25572  0.35505  0.86607  1.0000
  Zn  Zn61      1.0  0.75572  0.14495  0.36607  1.0000
  Zn  Zn62      1.0  0.24428  0.14495  0.13393  1.0000
  Zn  Zn63      1.0  0.25572  0.64495  0.36607  1.0000
  Zn  Zn64      1.0  0.74428  0.64495  0.13393  1.0000
  O   O1        1.0  0.26550  0.85570  0.59420  1.0000
  O   O2        1.0  0.73450  0.85570  0.90580  1.0000
  O   O3        1.0  0.76550  0.35570  0.59420  1.0000
  O   O4        1.0  0.23450  0.35570  0.90580  1.0000
  O   O5        1.0  0.73450  0.14430  0.40580  1.0000
  O   O6        1.0  0.26550  0.14430  0.09420  1.0000
  O   O7        1.0  0.23450  0.64430  0.40580  1.0000
  O   O8        1.0  0.76550  0.64430  0.09420  1.0000
  C   C1        1.0  0.58620  0.00830  0.51850  1.0000
  C   C2        1.0  0.41380  0.00830  0.98150  1.0000
  C   C3        1.0  0.08620  0.50830  0.51850  1.0000
  C   C4        1.0  0.91380  0.50830  0.98150  1.0000
  C   C5        1.0  0.41380  0.99170  0.48150  1.0000
  C   C6        1.0  0.58620  0.99170  0.01850  1.0000
  C   C7        1.0  0.91380  0.49170  0.48150  1.0000
  C   C8        1.0  0.08620  0.49170  0.01850  1.0000
  C   C9        1.0  0.61870  0.01550  0.51620  1.0000
  C   C10       1.0  0.38130  0.01550  0.98380  1.0000
  C   C11       1.0  0.11870  0.51550  0.51620  1.0000
  C   C12       1.0  0.88130  0.51550  0.98380  1.0000
  C   C13       1.0  0.38130  0.98450  0.48380  1.0000
  C   C14       1.0  0.61870  0.98450  0.01620  1.0000
  C   C15       1.0  0.88130  0.48450  0.48380  1.0000
  C   C16       1.0  0.11870  0.48450  0.01620  1.0000
  H   H1        1.0  0.62780  0.03650  0.52240  1.0000
  H   H2        1.0  0.37220  0.03650  0.97760  1.0000
  H   H3        1.0  0.12780  0.53650  0.52240  1.0000
  H   H4        1.0  0.87220  0.53650  0.97760  1.0000
  H   H5        1.0  0.37220  0.96350  0.47760  1.0000
  H   H6        1.0  0.62780  0.96350  0.02240  1.0000
  H   H7        1.0  0.87220  0.46350  0.47760  1.0000
  H   H8        1.0  0.12780  0.46350  0.02240  1.0000
  C   C17       1.0  0.63830  0.99340  0.50520  1.0000
  C   C18       1.0  0.36170  0.99340  0.99480  1.0000
  C   C19       1.0  0.13830  0.49340  0.50520  1.0000
  C   C20       1.0  0.86170  0.49340  0.99480  1.0000
  C   C21       1.0  0.36170  0.00660  0.49480  1.0000
  C   C22       1.0  0.63830  0.00660  0.00520  1.0000
  C   C23       1.0  0.86170  0.50660  0.49480  1.0000
  C   C24       1.0  0.13830  0.50660  0.00520  1.0000
  H   H9        1.0  0.66060  0.99920  0.50460  1.0000
  H   H10       1.0  0.33940  0.99920  0.99540  1.0000
  H   H11       1.0  0.16060  0.49920  0.50460  1.0000
  H   H12       1.0  0.83940  0.49920  0.99540  1.0000
  H   H13       1.0  0.33940  0.00080  0.49540  1.0000
  H   H14       1.0  0.66060  0.00080  0.00460  1.0000
  H   H15       1.0  0.83940  0.50080  0.49540  1.0000
  H   H16       1.0  0.16060  0.50080  0.00460  1.0000
  Br  Br1       1.0  0.65013  0.93162  0.47872  1.0000
  Br  Br2       1.0  0.34987  0.93162  0.02128  1.0000
  Br  Br3       1.0  0.15013  0.43162  0.47872  1.0000
  Br  Br4       1.0  0.84987  0.43162  0.02128  1.0000
  Br  Br5       1.0  0.34987  0.06838  0.52128  1.0000
  Br  Br6       1.0  0.65013  0.06838  0.97872  1.0000
  Br  Br7       1.0  0.84987  0.56838  0.52128  1.0000
  Br  Br8       1.0  0.15013  0.56838  0.97872  1.0000
  C   C25       1.0  0.62520  0.96300  0.49510  1.0000
  C   C26       1.0  0.37480  0.96300  0.00490  1.0000
  C   C27       1.0  0.12520  0.46300  0.49510  1.0000
  C   C28       1.0  0.87480  0.46300  0.00490  1.0000
  C   C29       1.0  0.37480  0.03700  0.50490  1.0000
  C   C30       1.0  0.62520  0.03700  0.99510  1.0000
  C   C31       1.0  0.87480  0.53700  0.50490  1.0000
  C   C32       1.0  0.12520  0.53700  0.99510  1.0000
  C   C33       1.0  0.59310  0.95550  0.49640  1.0000
  C   C34       1.0  0.40690  0.95550  0.00360  1.0000
  C   C35       1.0  0.09310  0.45550  0.49640  1.0000
  C   C36       1.0  0.90690  0.45550  0.00360  1.0000
  C   C37       1.0  0.40690  0.04450  0.50360  1.0000
  C   C38       1.0  0.59310  0.04450  0.99640  1.0000
  C   C39       1.0  0.90690  0.54450  0.50360  1.0000
  C   C40       1.0  0.09310  0.54450  0.99640  1.0000
  H   H17       1.0  0.58380  0.93470  0.48930  1.0000
  H   H18       1.0  0.41620  0.93470  0.01070  1.0000
  H   H19       1.0  0.08380  0.43470  0.48930  1.0000
  H   H20       1.0  0.91620  0.43470  0.01070  1.0000
  H   H21       1.0  0.41620  0.06530  0.51070  1.0000
  H   H22       1.0  0.58380  0.06530  0.98930  1.0000
  H   H23       1.0  0.91620  0.56530  0.51070  1.0000
  H   H24       1.0  0.08380  0.56530  0.98930  1.0000
  C   C41       1.0  0.57400  0.97730  0.50770  1.0000
  C   C42       1.0  0.42600  0.97730  0.99230  1.0000
  C   C43       1.0  0.07400  0.47730  0.50770  1.0000
  C   C44       1.0  0.92600  0.47730  0.99230  1.0000
  C   C45       1.0  0.42600  0.02270  0.49230  1.0000
  C   C46       1.0  0.57400  0.02270  0.00770  1.0000
  C   C47       1.0  0.92600  0.52270  0.49230  1.0000
  C   C48       1.0  0.07400  0.52270  0.00770  1.0000
  H   H25       1.0  0.55180  0.97110  0.50830  1.0000
  H   H26       1.0  0.44820  0.97110  0.99170  1.0000
  H   H27       1.0  0.05180  0.47110  0.50830  1.0000
  H   H28       1.0  0.94820  0.47110  0.99170  1.0000
  H   H29       1.0  0.44820  0.02890  0.49170  1.0000
  H   H30       1.0  0.55180  0.02890  0.00830  1.0000
  H   H31       1.0  0.94820  0.52890  0.49170  1.0000
  H   H32       1.0  0.05180  0.52890  0.00830  1.0000
  B   B1        1.0  0.56240  0.03260  0.53110  1.0000
  B   B2        1.0  0.43760  0.03260  0.96890  1.0000
  B   B3        1.0  0.06240  0.53260  0.53110  1.0000
  B   B4        1.0  0.93760  0.53260  0.96890  1.0000
  B   B5        1.0  0.43760  0.96740  0.46890  1.0000
  B   B6        1.0  0.56240  0.96740  0.03110  1.0000
  B   B7        1.0  0.93760  0.46740  0.46890  1.0000
  B   B8        1.0  0.06240  0.46740  0.03110  1.0000
  O   O9        1.0  0.58990  0.06180  0.55470  1.0000
  O   O10       1.0  0.41010  0.06180  0.94530  1.0000
  O   O11       1.0  0.08990  0.56180  0.55470  1.0000
  O   O12       1.0  0.91010  0.56180  0.94530  1.0000
  O   O13       1.0  0.41010  0.93820  0.44530  1.0000
  O   O14       1.0  0.58990  0.93820  0.05470  1.0000
  O   O15       1.0  0.91010  0.43820  0.44530  1.0000
  O   O16       1.0  0.08990  0.43820  0.05470  1.0000
  N   N1        1.0  0.57330  0.08670  0.56130  1.0000
  N   N2        1.0  0.42670  0.08670  0.93870  1.0000
  N   N3        1.0  0.07330  0.58670  0.56130  1.0000
  N   N4        1.0  0.92670  0.58670  0.93870  1.0000
  N   N5        1.0  0.42670  0.91330  0.43870  1.0000
  N   N6        1.0  0.57330  0.91330  0.06130  1.0000
  N   N7        1.0  0.92670  0.41330  0.43870  1.0000
  N   N8        1.0  0.07330  0.41330  0.06130  1.0000
  C   C49       1.0  0.59630  0.11200  0.57500  1.0000
  C   C50       1.0  0.40370  0.11200  0.92500  1.0000
  C   C51       1.0  0.09630  0.61200  0.57500  1.0000
  C   C52       1.0  0.90370  0.61200  0.92500  1.0000
  C   C53       1.0  0.40370  0.88800  0.42500  1.0000
  C   C54       1.0  0.59630  0.88800  0.07500  1.0000
  C   C55       1.0  0.90370  0.38800  0.42500  1.0000
  C   C56       1.0  0.09630  0.38800  0.07500  1.0000
  H   H33       1.0  0.62020  0.10910  0.57730  1.0000
  H   H34       1.0  0.37980  0.10910  0.92270  1.0000
  H   H35       1.0  0.12020  0.60910  0.57730  1.0000
  H   H36       1.0  0.87980  0.60910  0.92270  1.0000
  H   H37       1.0  0.37980  0.89090  0.42270  1.0000
  H   H38       1.0  0.62020  0.89090  0.07730  1.0000
  H   H39       1.0  0.87980  0.39090  0.42270  1.0000
  H   H40       1.0  0.12020  0.39090  0.07730  1.0000
  C   C57       1.0  0.58750  0.14380  0.58680  1.0000
  C   C58       1.0  0.41250  0.14380  0.91320  1.0000
  C   C59       1.0  0.08750  0.64380  0.58680  1.0000
  C   C60       1.0  0.91250  0.64380  0.91320  1.0000
  C   C61       1.0  0.41250  0.85620  0.41320  1.0000
  C   C62       1.0  0.58750  0.85620  0.08680  1.0000
  C   C63       1.0  0.91250  0.35620  0.41320  1.0000
  C   C64       1.0  0.08750  0.35620  0.08680  1.0000
  C   C65       1.0  0.55650  0.15040  0.59330  1.0000
  C   C66       1.0  0.44350  0.15040  0.90670  1.0000
  C   C67       1.0  0.05650  0.65040  0.59330  1.0000
  C   C68       1.0  0.94350  0.65040  0.90670  1.0000
  C   C69       1.0  0.44350  0.84960  0.40670  1.0000
  C   C70       1.0  0.55650  0.84960  0.09330  1.0000
  C   C71       1.0  0.94350  0.34960  0.40670  1.0000
  C   C72       1.0  0.05650  0.34960  0.09330  1.0000
  C   C73       1.0  0.55200  0.18200  0.60420  1.0000
  C   C74       1.0  0.44800  0.18200  0.89580  1.0000
  C   C75       1.0  0.05200  0.68200  0.60420  1.0000
  C   C76       1.0  0.94800  0.68200  0.89580  1.0000
  C   C77       1.0  0.44800  0.81800  0.39580  1.0000
  C   C78       1.0  0.55200  0.81800  0.10420  1.0000
  C   C79       1.0  0.94800  0.31800  0.39580  1.0000
  C   C80       1.0  0.05200  0.31800  0.10420  1.0000
  C   C81       1.0  0.57860  0.20480  0.60850  1.0000
  C   C82       1.0  0.42140  0.20480  0.89150  1.0000
  C   C83       1.0  0.07860  0.70480  0.60850  1.0000
  C   C84       1.0  0.92140  0.70480  0.89150  1.0000
  C   C85       1.0  0.42140  0.79520  0.39150  1.0000
  C   C86       1.0  0.57860  0.79520  0.10850  1.0000
  C   C87       1.0  0.92140  0.29520  0.39150  1.0000
  C   C88       1.0  0.07860  0.29520  0.10850  1.0000
  H   H41       1.0  0.57590  0.22570  0.61650  1.0000
  H   H42       1.0  0.42410  0.22570  0.88350  1.0000
  H   H43       1.0  0.07590  0.72570  0.61650  1.0000
  H   H44       1.0  0.92410  0.72570  0.88350  1.0000
  H   H45       1.0  0.42410  0.77430  0.38350  1.0000
  H   H46       1.0  0.57590  0.77430  0.11650  1.0000
  H   H47       1.0  0.92410  0.27430  0.38350  1.0000
  H   H48       1.0  0.07590  0.27430  0.11650  1.0000
  C   C89       1.0  0.60860  0.19750  0.60130  1.0000
  C   C90       1.0  0.39140  0.19750  0.89870  1.0000
  C   C91       1.0  0.10860  0.69750  0.60130  1.0000
  C   C92       1.0  0.89140  0.69750  0.89870  1.0000
  C   C93       1.0  0.39140  0.80250  0.39870  1.0000
  C   C94       1.0  0.60860  0.80250  0.10130  1.0000
  C   C95       1.0  0.89140  0.30250  0.39870  1.0000
  C   C96       1.0  0.10860  0.30250  0.10130  1.0000
  C   C97       1.0  0.61310  0.16680  0.59070  1.0000
  C   C98       1.0  0.38690  0.16680  0.90930  1.0000
  C   C99       1.0  0.11310  0.66680  0.59070  1.0000
  C   C100      1.0  0.88690  0.66680  0.90930  1.0000
  C   C101      1.0  0.38690  0.83320  0.40930  1.0000
  C   C102      1.0  0.61310  0.83320  0.09070  1.0000
  C   C103      1.0  0.88690  0.33320  0.40930  1.0000
  C   C104      1.0  0.11310  0.33320  0.09070  1.0000
  H   H49       1.0  0.63380  0.16140  0.58620  1.0000
  H   H50       1.0  0.36620  0.16140  0.91380  1.0000
  H   H51       1.0  0.13380  0.66140  0.58620  1.0000
  H   H52       1.0  0.86620  0.66140  0.91380  1.0000
  H   H53       1.0  0.36620  0.83860  0.41380  1.0000
  H   H54       1.0  0.63380  0.83860  0.08620  1.0000
  H   H55       1.0  0.86620  0.33860  0.41380  1.0000
  H   H56       1.0  0.13380  0.33860  0.08620  1.0000
  C   C105      1.0  0.52120  0.19320  0.61040  1.0000
  C   C106      1.0  0.47880  0.19320  0.88960  1.0000
  C   C107      1.0  0.02120  0.69320  0.61040  1.0000
  C   C108      1.0  0.97880  0.69320  0.88960  1.0000
  C   C109      1.0  0.47880  0.80680  0.38960  1.0000
  C   C110      1.0  0.52120  0.80680  0.11040  1.0000
  C   C111      1.0  0.97880  0.30680  0.38960  1.0000
  C   C112      1.0  0.02120  0.30680  0.11040  1.0000
  H   H57       1.0  0.52120  0.21480  0.61760  1.0000
  H   H58       1.0  0.47880  0.21480  0.88240  1.0000
  H   H59       1.0  0.02120  0.71480  0.61760  1.0000
  H   H60       1.0  0.97880  0.71480  0.88240  1.0000
  H   H61       1.0  0.47880  0.78520  0.38240  1.0000
  H   H62       1.0  0.52120  0.78520  0.11760  1.0000
  H   H63       1.0  0.97880  0.28520  0.38240  1.0000
  H   H64       1.0  0.02120  0.28520  0.11760  1.0000
  N   N9        1.0  0.49430  0.17680  0.60710  1.0000
  N   N10       1.0  0.50570  0.17680  0.89290  1.0000
  N   N11       1.0  0.99430  0.67680  0.60710  1.0000
  N   N12       1.0  0.00570  0.67680  0.89290  1.0000
  N   N13       1.0  0.50570  0.82320  0.39290  1.0000
  N   N14       1.0  0.49430  0.82320  0.10710  1.0000
  N   N15       1.0  0.00570  0.32320  0.39290  1.0000
  N   N16       1.0  0.99430  0.32320  0.10710  1.0000
  O   O17       1.0  0.46980  0.19390  0.61640  1.0000
  O   O18       1.0  0.53020  0.19390  0.88360  1.0000
  O   O19       1.0  0.96980  0.69390  0.61640  1.0000
  O   O20       1.0  0.03020  0.69390  0.88360  1.0000
  O   O21       1.0  0.53020  0.80610  0.38360  1.0000
  O   O22       1.0  0.46980  0.80610  0.11640  1.0000
  O   O23       1.0  0.03020  0.30610  0.38360  1.0000
  O   O24       1.0  0.96980  0.30610  0.11640  1.0000
  B   B9        1.0  0.43310  0.18050  0.60220  1.0000
  B   B10       1.0  0.56690  0.18050  0.89780  1.0000
  B   B11       1.0  0.93310  0.68050  0.60220  1.0000
  B   B12       1.0  0.06690  0.68050  0.89780  1.0000
  B   B13       1.0  0.56690  0.81950  0.39780  1.0000
  B   B14       1.0  0.43310  0.81950  0.10220  1.0000
  B   B15       1.0  0.06690  0.31950  0.39780  1.0000
  B   B16       1.0  0.93310  0.31950  0.10220  1.0000
  O   O25       1.0  0.53410  0.04440  0.49070  1.0000
  O   O26       1.0  0.46590  0.04440  0.00930  1.0000
  O   O27       1.0  0.03410  0.54440  0.49070  1.0000
  O   O28       1.0  0.96590  0.54440  0.00930  1.0000
  O   O29       1.0  0.46590  0.95560  0.50930  1.0000
  O   O30       1.0  0.53410  0.95560  0.99070  1.0000
  O   O31       1.0  0.96590  0.45560  0.50930  1.0000
  O   O32       1.0  0.03410  0.45560  0.99070  1.0000
  N   N17       1.0  0.51070  0.06770  0.49290  1.0000
  N   N18       1.0  0.48930  0.06770  0.00710  1.0000
  N   N19       1.0  0.01070  0.56770  0.49290  1.0000
  N   N20       1.0  0.98930  0.56770  0.00710  1.0000
  N   N21       1.0  0.48930  0.93230  0.50710  1.0000
  N   N22       1.0  0.51070  0.93230  0.99290  1.0000
  N   N23       1.0  0.98930  0.43230  0.50710  1.0000
  N   N24       1.0  0.01070  0.43230  0.99290  1.0000
  C   C113      1.0  0.48590  0.07590  0.45670  1.0000
  C   C114      1.0  0.51410  0.07590  0.04330  1.0000
  C   C115      1.0  0.98590  0.57590  0.45670  1.0000
  C   C116      1.0  0.01410  0.57590  0.04330  1.0000
  C   C117      1.0  0.51410  0.92410  0.54330  1.0000
  C   C118      1.0  0.48590  0.92410  0.95670  1.0000
  C   C119      1.0  0.01410  0.42410  0.54330  1.0000
  C   C120      1.0  0.98590  0.42410  0.95670  1.0000
  H   H65       1.0  0.48700  0.06640  0.43240  1.0000
  H   H66       1.0  0.51300  0.06640  0.06760  1.0000
  H   H67       1.0  0.98700  0.56640  0.43240  1.0000
  H   H68       1.0  0.01300  0.56640  0.06760  1.0000
  H   H69       1.0  0.51300  0.93360  0.56760  1.0000
  H   H70       1.0  0.48700  0.93360  0.93240  1.0000
  H   H71       1.0  0.01300  0.43360  0.56760  1.0000
  H   H72       1.0  0.98700  0.43360  0.93240  1.0000
  C   C121      1.0  0.45610  0.09760  0.44720  1.0000
  C   C122      1.0  0.54390  0.09760  0.05280  1.0000
  C   C123      1.0  0.95610  0.59760  0.44720  1.0000
  C   C124      1.0  0.04390  0.59760  0.05280  1.0000
  C   C125      1.0  0.54390  0.90240  0.55280  1.0000
  C   C126      1.0  0.45610  0.90240  0.94720  1.0000
  C   C127      1.0  0.04390  0.40240  0.55280  1.0000
  C   C128      1.0  0.95610  0.40240  0.94720  1.0000
  C   C129      1.0  0.45000  0.11420  0.47980  1.0000
  C   C130      1.0  0.55000  0.11420  0.02020  1.0000
  C   C131      1.0  0.95000  0.61420  0.47980  1.0000
  C   C132      1.0  0.05000  0.61420  0.02020  1.0000
  C   C133      1.0  0.55000  0.88580  0.52020  1.0000
  C   C134      1.0  0.45000  0.88580  0.97980  1.0000
  C   C135      1.0  0.05000  0.38580  0.52020  1.0000
  C   C136      1.0  0.95000  0.38580  0.97980  1.0000
  C   C137      1.0  0.41930  0.13500  0.46630  1.0000
  C   C138      1.0  0.58070  0.13500  0.03370  1.0000
  C   C139      1.0  0.91930  0.63500  0.46630  1.0000
  C   C140      1.0  0.08070  0.63500  0.03370  1.0000
  C   C141      1.0  0.58070  0.86500  0.53370  1.0000
  C   C142      1.0  0.41930  0.86500  0.96630  1.0000
  C   C143      1.0  0.08070  0.36500  0.53370  1.0000
  C   C144      1.0  0.91930  0.36500  0.96630  1.0000
  C   C145      1.0  0.39590  0.13820  0.42210  1.0000
  C   C146      1.0  0.60410  0.13820  0.07790  1.0000
  C   C147      1.0  0.89590  0.63820  0.42210  1.0000
  C   C148      1.0  0.10410  0.63820  0.07790  1.0000
  C   C149      1.0  0.60410  0.86180  0.57790  1.0000
  C   C150      1.0  0.39590  0.86180  0.92210  1.0000
  C   C151      1.0  0.10410  0.36180  0.57790  1.0000
  C   C152      1.0  0.89590  0.36180  0.92210  1.0000
  H   H73       1.0  0.37530  0.15170  0.41340  1.0000
  H   H74       1.0  0.62470  0.15170  0.08660  1.0000
  H   H75       1.0  0.87530  0.65170  0.41340  1.0000
  H   H76       1.0  0.12470  0.65170  0.08660  1.0000
  H   H77       1.0  0.62470  0.84830  0.58660  1.0000
  H   H78       1.0  0.37530  0.84830  0.91340  1.0000
  H   H79       1.0  0.12470  0.34830  0.58660  1.0000
  H   H80       1.0  0.87530  0.34830  0.91340  1.0000
  C   C153      1.0  0.40210  0.12200  0.39110  1.0000
  C   C154      1.0  0.59790  0.12200  0.10890  1.0000
  C   C155      1.0  0.90210  0.62200  0.39110  1.0000
  C   C156      1.0  0.09790  0.62200  0.10890  1.0000
  C   C157      1.0  0.59790  0.87800  0.60890  1.0000
  C   C158      1.0  0.40210  0.87800  0.89110  1.0000
  C   C159      1.0  0.09790  0.37800  0.60890  1.0000
  C   C160      1.0  0.90210  0.37800  0.89110  1.0000
  C   C161      1.0  0.43220  0.10210  0.40360  1.0000
  C   C162      1.0  0.56780  0.10210  0.09640  1.0000
  C   C163      1.0  0.93220  0.60210  0.40360  1.0000
  C   C164      1.0  0.06780  0.60210  0.09640  1.0000
  C   C165      1.0  0.56780  0.89790  0.59640  1.0000
  C   C166      1.0  0.43220  0.89790  0.90360  1.0000
  C   C167      1.0  0.06780  0.39790  0.59640  1.0000
  C   C168      1.0  0.93220  0.39790  0.90360  1.0000
  H   H81       1.0  0.43670  0.09140  0.38220  1.0000
  H   H82       1.0  0.56330  0.09140  0.11780  1.0000
  H   H83       1.0  0.93670  0.59140  0.38220  1.0000
  H   H84       1.0  0.06330  0.59140  0.11780  1.0000
  H   H85       1.0  0.56330  0.90860  0.61780  1.0000
  H   H86       1.0  0.43670  0.90860  0.88220  1.0000
  H   H87       1.0  0.06330  0.40860  0.61780  1.0000
  H   H88       1.0  0.93670  0.40860  0.88220  1.0000
  C   C169      1.0  0.41100  0.15410  0.49570  1.0000
  C   C170      1.0  0.58900  0.15410  0.00430  1.0000
  C   C171      1.0  0.91100  0.65410  0.49570  1.0000
  C   C172      1.0  0.08900  0.65410  0.00430  1.0000
  C   C173      1.0  0.58900  0.84590  0.50430  1.0000
  C   C174      1.0  0.41100  0.84590  0.99570  1.0000
  C   C175      1.0  0.08900  0.34590  0.50430  1.0000
  C   C176      1.0  0.91100  0.34590  0.99570  1.0000
  H   H89       1.0  0.38940  0.16640  0.48350  1.0000
  H   H90       1.0  0.61060  0.16640  0.01650  1.0000
  H   H91       1.0  0.88940  0.66640  0.48350  1.0000
  H   H92       1.0  0.11060  0.66640  0.01650  1.0000
  H   H93       1.0  0.61060  0.83360  0.51650  1.0000
  H   H94       1.0  0.38940  0.83360  0.98350  1.0000
  H   H95       1.0  0.11060  0.33360  0.51650  1.0000
  H   H96       1.0  0.88940  0.33360  0.98350  1.0000
  N   N25       1.0  0.42970  0.15620  0.53620  1.0000
  N   N26       1.0  0.57030  0.15620  0.96380  1.0000
  N   N27       1.0  0.92970  0.65620  0.53620  1.0000
  N   N28       1.0  0.07030  0.65620  0.96380  1.0000
  N   N29       1.0  0.57030  0.84380  0.46380  1.0000
  N   N30       1.0  0.42970  0.84380  0.03620  1.0000
  N   N31       1.0  0.07030  0.34380  0.46380  1.0000
  N   N32       1.0  0.92970  0.34380  0.03620  1.0000
  O   O33       1.0  0.41440  0.17720  0.55560  1.0000
  O   O34       1.0  0.58560  0.17720  0.94440  1.0000
  O   O35       1.0  0.91440  0.67720  0.55560  1.0000
  O   O36       1.0  0.08560  0.67720  0.94440  1.0000
  O   O37       1.0  0.58560  0.82280  0.44440  1.0000
  O   O38       1.0  0.41440  0.82280  0.05560  1.0000
  O   O39       1.0  0.08560  0.32280  0.44440  1.0000
  O   O40       1.0  0.91440  0.32280  0.05560  1.0000
  O   O41       1.0  0.55160  0.01900  0.56060  1.0000
  O   O42       1.0  0.44840  0.01900  0.93940  1.0000
  O   O43       1.0  0.05160  0.51900  0.56060  1.0000
  O   O44       1.0  0.94840  0.51900  0.93940  1.0000
  O   O45       1.0  0.44840  0.98100  0.43940  1.0000
  O   O46       1.0  0.55160  0.98100  0.06060  1.0000
  O   O47       1.0  0.94840  0.48100  0.43940  1.0000
  O   O48       1.0  0.05160  0.48100  0.06060  1.0000
  N   N33       1.0  0.52810  0.03570  0.57250  1.0000
  N   N34       1.0  0.47190  0.03570  0.92750  1.0000
  N   N35       1.0  0.02810  0.53570  0.57250  1.0000
  N   N36       1.0  0.97190  0.53570  0.92750  1.0000
  N   N37       1.0  0.47190  0.96430  0.42750  1.0000
  N   N38       1.0  0.52810  0.96430  0.07250  1.0000
  N   N39       1.0  0.97190  0.46430  0.42750  1.0000
  N   N40       1.0  0.02810  0.46430  0.07250  1.0000
  C   C177      1.0  0.50990  0.01830  0.58610  1.0000
  C   C178      1.0  0.49010  0.01830  0.91390  1.0000
  C   C179      1.0  0.00990  0.51830  0.58610  1.0000
  C   C180      1.0  0.99010  0.51830  0.91390  1.0000
  C   C181      1.0  0.49010  0.98170  0.41390  1.0000
  C   C182      1.0  0.50990  0.98170  0.08610  1.0000
  C   C183      1.0  0.99010  0.48170  0.41390  1.0000
  C   C184      1.0  0.00990  0.48170  0.08610  1.0000
  H   H97       1.0  0.51410  0.99620  0.58660  1.0000
  H   H98       1.0  0.48590  0.99620  0.91340  1.0000
  H   H99       1.0  0.01410  0.49620  0.58660  1.0000
  H   H100      1.0  0.98590  0.49620  0.91340  1.0000
  H   H101      1.0  0.48590  0.00380  0.41340  1.0000
  H   H102      1.0  0.51410  0.00380  0.08660  1.0000
  H   H103      1.0  0.98590  0.50380  0.41340  1.0000
  H   H104      1.0  0.01410  0.50380  0.08660  1.0000
  C   C185      1.0  0.48350  0.02860  0.60090  1.0000
  C   C186      1.0  0.51650  0.02860  0.89910  1.0000
  C   C187      1.0  0.98350  0.52860  0.60090  1.0000
  C   C188      1.0  0.01650  0.52860  0.89910  1.0000
  C   C189      1.0  0.51650  0.97140  0.39910  1.0000
  C   C190      1.0  0.48350  0.97140  0.10090  1.0000
  C   C191      1.0  0.01650  0.47140  0.39910  1.0000
  C   C192      1.0  0.98350  0.47140  0.10090  1.0000
  C   C193      1.0  0.47620  0.06130  0.60560  1.0000
  C   C194      1.0  0.52380  0.06130  0.89440  1.0000
  C   C195      1.0  0.97620  0.56130  0.60560  1.0000
  C   C196      1.0  0.02380  0.56130  0.89440  1.0000
  C   C197      1.0  0.52380  0.93870  0.39440  1.0000
  C   C198      1.0  0.47620  0.93870  0.10560  1.0000
  C   C199      1.0  0.02380  0.43870  0.39440  1.0000
  C   C200      1.0  0.97620  0.43870  0.10560  1.0000
  C   C201      1.0  0.44870  0.06780  0.61970  1.0000
  C   C202      1.0  0.55130  0.06780  0.88030  1.0000
  C   C203      1.0  0.94870  0.56780  0.61970  1.0000
  C   C204      1.0  0.05130  0.56780  0.88030  1.0000
  C   C205      1.0  0.55130  0.93220  0.38030  1.0000
  C   C206      1.0  0.44870  0.93220  0.11970  1.0000
  C   C207      1.0  0.05130  0.43220  0.38030  1.0000
  C   C208      1.0  0.94870  0.43220  0.11970  1.0000
  C   C209      1.0  0.42850  0.04310  0.62630  1.0000
  C   C210      1.0  0.57150  0.04310  0.87370  1.0000
  C   C211      1.0  0.92850  0.54310  0.62630  1.0000
  C   C212      1.0  0.07150  0.54310  0.87370  1.0000
  C   C213      1.0  0.57150  0.95690  0.37370  1.0000
  C   C214      1.0  0.42850  0.95690  0.12630  1.0000
  C   C215      1.0  0.07150  0.45690  0.37370  1.0000
  C   C216      1.0  0.92850  0.45690  0.12630  1.0000
  H   H105      1.0  0.41030  0.04800  0.63550  1.0000
  H   H106      1.0  0.58970  0.04800  0.86450  1.0000
  H   H107      1.0  0.91030  0.54800  0.63550  1.0000
  H   H108      1.0  0.08970  0.54800  0.86450  1.0000
  H   H109      1.0  0.58970  0.95200  0.36450  1.0000
  H   H110      1.0  0.41030  0.95200  0.13550  1.0000
  H   H111      1.0  0.08970  0.45200  0.36450  1.0000
  H   H112      1.0  0.91030  0.45200  0.13550  1.0000
  C   C217      1.0  0.43480  0.01180  0.61950  1.0000
  C   C218      1.0  0.56520  0.01180  0.88050  1.0000
  C   C219      1.0  0.93480  0.51180  0.61950  1.0000
  C   C220      1.0  0.06520  0.51180  0.88050  1.0000
  C   C221      1.0  0.56520  0.98820  0.38050  1.0000
  C   C222      1.0  0.43480  0.98820  0.11950  1.0000
  C   C223      1.0  0.06520  0.48820  0.38050  1.0000
  C   C224      1.0  0.93480  0.48820  0.11950  1.0000
  C   C225      1.0  0.46280  0.00490  0.60830  1.0000
  C   C226      1.0  0.53720  0.00490  0.89170  1.0000
  C   C227      1.0  0.96280  0.50490  0.60830  1.0000
  C   C228      1.0  0.03720  0.50490  0.89170  1.0000
  C   C229      1.0  0.53720  0.99510  0.39170  1.0000
  C   C230      1.0  0.46280  0.99510  0.10830  1.0000
  C   C231      1.0  0.03720  0.49510  0.39170  1.0000
  C   C232      1.0  0.96280  0.49510  0.10830  1.0000
  H   H113      1.0  0.46800  0.98340  0.60540  1.0000
  H   H114      1.0  0.53200  0.98340  0.89460  1.0000
  H   H115      1.0  0.96800  0.48340  0.60540  1.0000
  H   H116      1.0  0.03200  0.48340  0.89460  1.0000
  H   H117      1.0  0.53200  0.01660  0.39460  1.0000
  H   H118      1.0  0.46800  0.01660  0.10540  1.0000
  H   H119      1.0  0.03200  0.51660  0.39460  1.0000
  H   H120      1.0  0.96800  0.51660  0.10540  1.0000
  C   C233      1.0  0.43890  0.09930  0.62680  1.0000
  C   C234      1.0  0.56110  0.09930  0.87320  1.0000
  C   C235      1.0  0.93890  0.59930  0.62680  1.0000
  C   C236      1.0  0.06110  0.59930  0.87320  1.0000
  C   C237      1.0  0.56110  0.90070  0.37320  1.0000
  C   C238      1.0  0.43890  0.90070  0.12680  1.0000
  C   C239      1.0  0.06110  0.40070  0.37320  1.0000
  C   C240      1.0  0.93890  0.40070  0.12680  1.0000
  H   H121      1.0  0.42270  0.10090  0.63980  1.0000
  H   H122      1.0  0.57730  0.10090  0.86020  1.0000
  H   H123      1.0  0.92270  0.60090  0.63980  1.0000
  H   H124      1.0  0.07730  0.60090  0.86020  1.0000
  H   H125      1.0  0.57730  0.89910  0.36020  1.0000
  H   H126      1.0  0.42270  0.89910  0.13980  1.0000
  H   H127      1.0  0.07730  0.39910  0.36020  1.0000
  H   H128      1.0  0.92270  0.39910  0.13980  1.0000
  N   N41       1.0  0.44960  0.12500  0.61750  1.0000
  N   N42       1.0  0.55040  0.12500  0.88250  1.0000
  N   N43       1.0  0.94960  0.62500  0.61750  1.0000
  N   N44       1.0  0.05040  0.62500  0.88250  1.0000
  N   N45       1.0  0.55040  0.87500  0.38250  1.0000
  N   N46       1.0  0.44960  0.87500  0.11750  1.0000
  N   N47       1.0  0.05040  0.37500  0.38250  1.0000
  N   N48       1.0  0.94960  0.37500  0.11750  1.0000
  O   O49       1.0  0.43370  0.15220  0.62640  1.0000
  O   O50       1.0  0.56630  0.15220  0.87360  1.0000
  O   O51       1.0  0.93370  0.65220  0.62640  1.0000
  O   O52       1.0  0.06630  0.65220  0.87360  1.0000
  O   O53       1.0  0.56630  0.84780  0.37360  1.0000
  O   O54       1.0  0.43370  0.84780  0.12640  1.0000
  O   O55       1.0  0.06630  0.34780  0.37360  1.0000
  O   O56       1.0  0.93370  0.34780  0.12640  1.0000
  C   C241      1.0  0.41120  0.20650  0.61480  1.0000
  C   C242      1.0  0.58880  0.20650  0.88520  1.0000
  C   C243      1.0  0.91120  0.70650  0.61480  1.0000
  C   C244      1.0  0.08880  0.70650  0.88520  1.0000
  C   C245      1.0  0.58880  0.79350  0.38520  1.0000
  C   C246      1.0  0.41120  0.79350  0.11480  1.0000
  C   C247      1.0  0.08880  0.29350  0.38520  1.0000
  C   C248      1.0  0.91120  0.29350  0.11480  1.0000
  C   C249      1.0  0.41310  0.20940  0.65610  1.0000
  C   C250      1.0  0.58690  0.20940  0.84390  1.0000
  C   C251      1.0  0.91310  0.70940  0.65610  1.0000
  C   C252      1.0  0.08690  0.70940  0.84390  1.0000
  C   C253      1.0  0.58690  0.79060  0.34390  1.0000
  C   C254      1.0  0.41310  0.79060  0.15610  1.0000
  C   C255      1.0  0.08690  0.29060  0.34390  1.0000
  C   C256      1.0  0.91310  0.29060  0.15610  1.0000
  H   H129      1.0  0.42800  0.19500  0.67760  1.0000
  H   H130      1.0  0.57200  0.19500  0.82240  1.0000
  H   H131      1.0  0.92800  0.69500  0.67760  1.0000
  H   H132      1.0  0.07200  0.69500  0.82240  1.0000
  H   H133      1.0  0.57200  0.80500  0.32240  1.0000
  H   H134      1.0  0.42800  0.80500  0.17760  1.0000
  H   H135      1.0  0.07200  0.30500  0.32240  1.0000
  H   H136      1.0  0.92800  0.30500  0.17760  1.0000
  C   C257      1.0  0.39420  0.23210  0.66690  1.0000
  C   C258      1.0  0.60580  0.23210  0.83310  1.0000
  C   C259      1.0  0.89420  0.73210  0.66690  1.0000
  C   C260      1.0  0.10580  0.73210  0.83310  1.0000
  C   C261      1.0  0.60580  0.76790  0.33310  1.0000
  C   C262      1.0  0.39420  0.76790  0.16690  1.0000
  C   C263      1.0  0.10580  0.26790  0.33310  1.0000
  C   C264      1.0  0.89420  0.26790  0.16690  1.0000
  H   H137      1.0  0.39580  0.23260  0.69520  1.0000
  H   H138      1.0  0.60420  0.23260  0.80480  1.0000
  H   H139      1.0  0.89580  0.73260  0.69520  1.0000
  H   H140      1.0  0.10420  0.73260  0.80480  1.0000
  H   H141      1.0  0.60420  0.76740  0.30480  1.0000
  H   H142      1.0  0.39580  0.76740  0.19520  1.0000
  H   H143      1.0  0.10420  0.26740  0.30480  1.0000
  H   H144      1.0  0.89580  0.26740  0.19520  1.0000
  Br  Br9       1.0  0.34500  0.28409  0.65010  1.0000
  Br  Br10      1.0  0.65500  0.28409  0.84990  1.0000
  Br  Br11      1.0  0.84500  0.78409  0.65010  1.0000
  Br  Br12      1.0  0.15500  0.78409  0.84990  1.0000
  Br  Br13      1.0  0.65500  0.71591  0.34990  1.0000
  Br  Br14      1.0  0.34500  0.71591  0.15010  1.0000
  Br  Br15      1.0  0.15500  0.21591  0.34990  1.0000
  Br  Br16      1.0  0.84500  0.21591  0.15010  1.0000
  C   C265      1.0  0.37340  0.25390  0.63720  1.0000
  C   C266      1.0  0.62660  0.25390  0.86280  1.0000
  C   C267      1.0  0.87340  0.75390  0.63720  1.0000
  C   C268      1.0  0.12660  0.75390  0.86280  1.0000
  C   C269      1.0  0.62660  0.74610  0.36280  1.0000
  C   C270      1.0  0.37340  0.74610  0.13720  1.0000
  C   C271      1.0  0.12660  0.24610  0.36280  1.0000
  C   C272      1.0  0.87340  0.24610  0.13720  1.0000
  C   C273      1.0  0.37140  0.25290  0.59650  1.0000
  C   C274      1.0  0.62860  0.25290  0.90350  1.0000
  C   C275      1.0  0.87140  0.75290  0.59650  1.0000
  C   C276      1.0  0.12860  0.75290  0.90350  1.0000
  C   C277      1.0  0.62860  0.74710  0.40350  1.0000
  C   C278      1.0  0.37140  0.74710  0.09650  1.0000
  C   C279      1.0  0.12860  0.24710  0.40350  1.0000
  C   C280      1.0  0.87140  0.24710  0.09650  1.0000
  H   H145      1.0  0.35790  0.26840  0.57580  1.0000
  H   H146      1.0  0.64210  0.26840  0.92420  1.0000
  H   H147      1.0  0.85790  0.76840  0.57580  1.0000
  H   H148      1.0  0.14210  0.76840  0.92420  1.0000
  H   H149      1.0  0.64210  0.73160  0.42420  1.0000
  H   H150      1.0  0.35790  0.73160  0.07580  1.0000
  H   H151      1.0  0.14210  0.23160  0.42420  1.0000
  H   H152      1.0  0.85790  0.23160  0.07580  1.0000
  C   C281      1.0  0.38950  0.22920  0.58600  1.0000
  C   C282      1.0  0.61050  0.22920  0.91400  1.0000
  C   C283      1.0  0.88950  0.72920  0.58600  1.0000
  C   C284      1.0  0.11050  0.72920  0.91400  1.0000
  C   C285      1.0  0.61050  0.77080  0.41400  1.0000
  C   C286      1.0  0.38950  0.77080  0.08600  1.0000
  C   C287      1.0  0.11050  0.27080  0.41400  1.0000
  C   C288      1.0  0.88950  0.27080  0.08600  1.0000
  H   H153      1.0  0.38690  0.22830  0.55730  1.0000
  H   H154      1.0  0.61310  0.22830  0.94270  1.0000
  H   H155      1.0  0.88690  0.72830  0.55730  1.0000
  H   H156      1.0  0.11310  0.72830  0.94270  1.0000
  H   H157      1.0  0.61310  0.77170  0.44270  1.0000
  H   H158      1.0  0.38690  0.77170  0.05730  1.0000
  H   H159      1.0  0.11310  0.27170  0.44270  1.0000
  H   H160      1.0  0.88690  0.27170  0.05730  1.0000
  O   O57       1.0  0.53220  0.12880  0.58770  1.0000
  O   O58       1.0  0.46780  0.12880  0.91230  1.0000
  O   O59       1.0  0.03220  0.62880  0.58770  1.0000
  O   O60       1.0  0.96780  0.62880  0.91230  1.0000
  O   O61       1.0  0.46780  0.87120  0.41230  1.0000
  O   O62       1.0  0.53220  0.87120  0.08770  1.0000
  O   O63       1.0  0.96780  0.37120  0.41230  1.0000
  O   O64       1.0  0.03220  0.37120  0.08770  1.0000
  C   C289      1.0  0.63410  0.22250  0.60130  1.0000
  C   C290      1.0  0.36590  0.22250  0.89870  1.0000
  C   C291      1.0  0.13410  0.72250  0.60130  1.0000
  C   C292      1.0  0.86590  0.72250  0.89870  1.0000
  C   C293      1.0  0.36590  0.77750  0.39870  1.0000
  C   C294      1.0  0.63410  0.77750  0.10130  1.0000
  C   C295      1.0  0.86590  0.27750  0.39870  1.0000
  C   C296      1.0  0.13410  0.27750  0.10130  1.0000
  C   C297      1.0  0.64440  0.22420  0.56790  1.0000
  C   C298      1.0  0.35560  0.22420  0.93210  1.0000
  C   C299      1.0  0.14440  0.72420  0.56790  1.0000
  C   C300      1.0  0.85560  0.72420  0.93210  1.0000
  C   C301      1.0  0.35560  0.77580  0.43210  1.0000
  C   C302      1.0  0.64440  0.77580  0.06790  1.0000
  C   C303      1.0  0.85560  0.27580  0.43210  1.0000
  C   C304      1.0  0.14440  0.27580  0.06790  1.0000
  H   H161      1.0  0.63640  0.20850  0.54610  1.0000
  H   H162      1.0  0.36360  0.20850  0.95390  1.0000
  H   H163      1.0  0.13640  0.70850  0.54610  1.0000
  H   H164      1.0  0.86360  0.70850  0.95390  1.0000
  H   H165      1.0  0.36360  0.79150  0.45390  1.0000
  H   H166      1.0  0.63640  0.79150  0.04610  1.0000
  H   H167      1.0  0.86360  0.29150  0.45390  1.0000
  H   H168      1.0  0.13640  0.29150  0.04610  1.0000
  C   C305      1.0  0.66640  0.24860  0.56630  1.0000
  C   C306      1.0  0.33360  0.24860  0.93370  1.0000
  C   C307      1.0  0.16640  0.74860  0.56630  1.0000
  C   C308      1.0  0.83360  0.74860  0.93370  1.0000
  C   C309      1.0  0.33360  0.75140  0.43370  1.0000
  C   C310      1.0  0.66640  0.75140  0.06630  1.0000
  C   C311      1.0  0.83360  0.25140  0.43370  1.0000
  C   C312      1.0  0.16640  0.25140  0.06630  1.0000
  H   H169      1.0  0.67240  0.25000  0.54270  1.0000
  H   H170      1.0  0.32760  0.25000  0.95730  1.0000
  H   H171      1.0  0.17240  0.75000  0.54270  1.0000
  H   H172      1.0  0.82760  0.75000  0.95730  1.0000
  H   H173      1.0  0.32760  0.75000  0.45730  1.0000
  H   H174      1.0  0.67240  0.75000  0.04270  1.0000
  H   H175      1.0  0.82760  0.25000  0.45730  1.0000
  H   H176      1.0  0.17240  0.25000  0.04270  1.0000
  C   C313      1.0  0.67970  0.27120  0.59880  1.0000
  C   C314      1.0  0.32030  0.27120  0.90120  1.0000
  C   C315      1.0  0.17970  0.77120  0.59880  1.0000
  C   C316      1.0  0.82030  0.77120  0.90120  1.0000
  C   C317      1.0  0.32030  0.72880  0.40120  1.0000
  C   C318      1.0  0.67970  0.72880  0.09880  1.0000
  C   C319      1.0  0.82030  0.22880  0.40120  1.0000
  C   C320      1.0  0.17970  0.22880  0.09880  1.0000
  C   C321      1.0  0.67030  0.26870  0.63290  1.0000
  C   C322      1.0  0.32970  0.26870  0.86710  1.0000
  C   C323      1.0  0.17030  0.76870  0.63290  1.0000
  C   C324      1.0  0.82970  0.76870  0.86710  1.0000
  C   C325      1.0  0.32970  0.73130  0.36710  1.0000
  C   C326      1.0  0.67030  0.73130  0.13290  1.0000
  C   C327      1.0  0.82970  0.23130  0.36710  1.0000
  C   C328      1.0  0.17030  0.23130  0.13290  1.0000
  H   H177      1.0  0.67990  0.28340  0.65590  1.0000
  H   H178      1.0  0.32010  0.28340  0.84410  1.0000
  H   H179      1.0  0.17990  0.78340  0.65590  1.0000
  H   H180      1.0  0.82010  0.78340  0.84410  1.0000
  H   H181      1.0  0.32010  0.71660  0.34410  1.0000
  H   H182      1.0  0.67990  0.71660  0.15590  1.0000
  H   H183      1.0  0.82010  0.21660  0.34410  1.0000
  H   H184      1.0  0.17990  0.21660  0.15590  1.0000
  C   C329      1.0  0.64740  0.24520  0.63370  1.0000
  C   C330      1.0  0.35260  0.24520  0.86630  1.0000
  C   C331      1.0  0.14740  0.74520  0.63370  1.0000
  C   C332      1.0  0.85260  0.74520  0.86630  1.0000
  C   C333      1.0  0.35260  0.75480  0.36630  1.0000
  C   C334      1.0  0.64740  0.75480  0.13370  1.0000
  C   C335      1.0  0.85260  0.25480  0.36630  1.0000
  C   C336      1.0  0.14740  0.25480  0.13370  1.0000
  H   H185      1.0  0.64050  0.24450  0.65670  1.0000
  H   H186      1.0  0.35950  0.24450  0.84330  1.0000
  H   H187      1.0  0.14050  0.74450  0.65670  1.0000
  H   H188      1.0  0.85950  0.74450  0.84330  1.0000
  H   H189      1.0  0.35950  0.75550  0.34330  1.0000
  H   H190      1.0  0.64050  0.75550  0.15670  1.0000
  H   H191      1.0  0.85950  0.25550  0.34330  1.0000
  H   H192      1.0  0.14050  0.25550  0.15670  1.0000
  C   C337      1.0  0.70300  0.29810  0.59670  1.0000
  C   C338      1.0  0.29700  0.29810  0.90330  1.0000
  C   C339      1.0  0.20300  0.79810  0.59670  1.0000
  C   C340      1.0  0.79700  0.79810  0.90330  1.0000
  C   C341      1.0  0.29700  0.70190  0.40330  1.0000
  C   C342      1.0  0.70300  0.70190  0.09670  1.0000
  C   C343      1.0  0.79700  0.20190  0.40330  1.0000
  C   C344      1.0  0.20300  0.20190  0.09670  1.0000
  O   O65       1.0  0.71040  0.29850  0.56480  1.0000
  O   O66       1.0  0.28960  0.29850  0.93520  1.0000
  O   O67       1.0  0.21040  0.79850  0.56480  1.0000
  O   O68       1.0  0.78960  0.79850  0.93520  1.0000
  O   O69       1.0  0.28960  0.70150  0.43520  1.0000
  O   O70       1.0  0.71040  0.70150  0.06480  1.0000
  O   O71       1.0  0.78960  0.20150  0.43520  1.0000
  O   O72       1.0  0.21040  0.20150  0.06480  1.0000
  O   O73       1.0  0.47190  0.11000  0.52100  1.0000
  O   O74       1.0  0.52810  0.11000  0.97900  1.0000
  O   O75       1.0  0.97190  0.61000  0.52100  1.0000
  O   O76       1.0  0.02810  0.61000  0.97900  1.0000
  O   O77       1.0  0.52810  0.89000  0.47900  1.0000
  O   O78       1.0  0.47190  0.89000  0.02100  1.0000
  O   O79       1.0  0.02810  0.39000  0.47900  1.0000
  O   O80       1.0  0.97190  0.39000  0.02100  1.0000
  O   O81       1.0  0.71380  0.31720  0.62690  1.0000
  O   O82       1.0  0.28620  0.31720  0.87310  1.0000
  O   O83       1.0  0.21380  0.81720  0.62690  1.0000
  O   O84       1.0  0.78620  0.81720  0.87310  1.0000
  O   O85       1.0  0.28620  0.68280  0.37310  1.0000
  O   O86       1.0  0.71380  0.68280  0.12690  1.0000
  O   O87       1.0  0.78620  0.18280  0.37310  1.0000
  O   O88       1.0  0.21380  0.18280  0.12690  1.0000
  C   C345      1.0  0.37830  0.12620  0.34440  1.0000
  C   C346      1.0  0.62170  0.12620  0.15560  1.0000
  C   C347      1.0  0.87830  0.62620  0.34440  1.0000
  C   C348      1.0  0.12170  0.62620  0.15560  1.0000
  C   C349      1.0  0.62170  0.87380  0.65560  1.0000
  C   C350      1.0  0.37830  0.87380  0.84440  1.0000
  C   C351      1.0  0.12170  0.37380  0.65560  1.0000
  C   C352      1.0  0.87830  0.37380  0.84440  1.0000
  C   C353      1.0  0.39170  0.12310  0.31370  1.0000
  C   C354      1.0  0.60830  0.12310  0.18630  1.0000
  C   C355      1.0  0.89170  0.62310  0.31370  1.0000
  C   C356      1.0  0.10830  0.62310  0.18630  1.0000
  C   C357      1.0  0.60830  0.87690  0.68630  1.0000
  C   C358      1.0  0.39170  0.87690  0.81370  1.0000
  C   C359      1.0  0.10830  0.37690  0.68630  1.0000
  C   C360      1.0  0.89170  0.37690  0.81370  1.0000
  H   H193      1.0  0.41650  0.11770  0.32280  1.0000
  H   H194      1.0  0.58350  0.11770  0.17720  1.0000
  H   H195      1.0  0.91650  0.61770  0.32280  1.0000
  H   H196      1.0  0.08350  0.61770  0.17720  1.0000
  H   H197      1.0  0.58350  0.88230  0.67720  1.0000
  H   H198      1.0  0.41650  0.88230  0.82280  1.0000
  H   H199      1.0  0.08350  0.38230  0.67720  1.0000
  H   H200      1.0  0.91650  0.38230  0.82280  1.0000
  C   C361      1.0  0.36970  0.12770  0.27040  1.0000
  C   C362      1.0  0.63030  0.12770  0.22960  1.0000
  C   C363      1.0  0.86970  0.62770  0.27040  1.0000
  C   C364      1.0  0.13030  0.62770  0.22960  1.0000
  C   C365      1.0  0.63030  0.87230  0.72960  1.0000
  C   C366      1.0  0.36970  0.87230  0.77040  1.0000
  C   C367      1.0  0.13030  0.37230  0.72960  1.0000
  C   C368      1.0  0.86970  0.37230  0.77040  1.0000
  H   H201      1.0  0.37970  0.12630  0.25030  1.0000
  H   H202      1.0  0.62030  0.12630  0.24970  1.0000
  H   H203      1.0  0.87970  0.62630  0.25030  1.0000
  H   H204      1.0  0.12030  0.62630  0.24970  1.0000
  H   H205      1.0  0.62030  0.87370  0.74970  1.0000
  H   H206      1.0  0.37970  0.87370  0.75030  1.0000
  H   H207      1.0  0.12030  0.37370  0.74970  1.0000
  H   H208      1.0  0.87970  0.37370  0.75030  1.0000
  C   C369      1.0  0.33270  0.13460  0.25620  1.0000
  C   C370      1.0  0.66730  0.13460  0.24380  1.0000
  C   C371      1.0  0.83270  0.63460  0.25620  1.0000
  C   C372      1.0  0.16730  0.63460  0.24380  1.0000
  C   C373      1.0  0.66730  0.86540  0.74380  1.0000
  C   C374      1.0  0.33270  0.86540  0.75620  1.0000
  C   C375      1.0  0.16730  0.36540  0.74380  1.0000
  C   C376      1.0  0.83270  0.36540  0.75620  1.0000
  C   C377      1.0  0.31910  0.13730  0.28640  1.0000
  C   C378      1.0  0.68090  0.13730  0.21360  1.0000
  C   C379      1.0  0.81910  0.63730  0.28640  1.0000
  C   C380      1.0  0.18090  0.63730  0.21360  1.0000
  C   C381      1.0  0.68090  0.86270  0.71360  1.0000
  C   C382      1.0  0.31910  0.86270  0.78640  1.0000
  C   C383      1.0  0.18090  0.36270  0.71360  1.0000
  C   C384      1.0  0.81910  0.36270  0.78640  1.0000
  H   H209      1.0  0.29400  0.14160  0.27730  1.0000
  H   H210      1.0  0.70600  0.14160  0.22270  1.0000
  H   H211      1.0  0.79400  0.64160  0.27730  1.0000
  H   H212      1.0  0.20600  0.64160  0.22270  1.0000
  H   H213      1.0  0.70600  0.85840  0.72270  1.0000
  H   H214      1.0  0.29400  0.85840  0.77730  1.0000
  H   H215      1.0  0.20600  0.35840  0.72270  1.0000
  H   H216      1.0  0.79400  0.35840  0.77730  1.0000
  C   C385      1.0  0.34170  0.13370  0.33010  1.0000
  C   C386      1.0  0.65830  0.13370  0.16990  1.0000
  C   C387      1.0  0.84170  0.63370  0.33010  1.0000
  C   C388      1.0  0.15830  0.63370  0.16990  1.0000
  C   C389      1.0  0.65830  0.86630  0.66990  1.0000
  C   C390      1.0  0.34170  0.86630  0.83010  1.0000
  C   C391      1.0  0.15830  0.36630  0.66990  1.0000
  C   C392      1.0  0.84170  0.36630  0.83010  1.0000
  H   H217      1.0  0.33210  0.13650  0.35050  1.0000
  H   H218      1.0  0.66790  0.13650  0.14950  1.0000
  H   H219      1.0  0.83210  0.63650  0.35050  1.0000
  H   H220      1.0  0.16790  0.63650  0.14950  1.0000
  H   H221      1.0  0.66790  0.86350  0.64950  1.0000
  H   H222      1.0  0.33210  0.86350  0.85050  1.0000
  H   H223      1.0  0.16790  0.36350  0.64950  1.0000
  H   H224      1.0  0.83210  0.36350  0.85050  1.0000
  C   C393      1.0  0.30830  0.13750  0.20870  1.0000
  C   C394      1.0  0.69170  0.13750  0.29130  1.0000
  C   C395      1.0  0.80830  0.63750  0.20870  1.0000
  C   C396      1.0  0.19170  0.63750  0.29130  1.0000
  C   C397      1.0  0.69170  0.86250  0.79130  1.0000
  C   C398      1.0  0.30830  0.86250  0.70870  1.0000
  C   C399      1.0  0.19170  0.36250  0.79130  1.0000
  C   C400      1.0  0.80830  0.36250  0.70870  1.0000
  O   O89       1.0  0.49490  0.08430  0.59880  1.0000
  O   O90       1.0  0.50510  0.08430  0.90120  1.0000
  O   O91       1.0  0.99490  0.58430  0.59880  1.0000
  O   O92       1.0  0.00510  0.58430  0.90120  1.0000
  O   O93       1.0  0.50510  0.91570  0.40120  1.0000
  O   O94       1.0  0.49490  0.91570  0.09880  1.0000
  O   O95       1.0  0.00510  0.41570  0.40120  1.0000
  O   O96       1.0  0.99490  0.41570  0.09880  1.0000
  O   O97       1.0  0.32270  0.13340  0.18310  1.0000
  O   O98       1.0  0.67730  0.13340  0.31690  1.0000
  O   O99       1.0  0.82270  0.63340  0.18310  1.0000
  O   O100      1.0  0.17730  0.63340  0.31690  1.0000
  O   O101      1.0  0.67730  0.86660  0.81690  1.0000
  O   O102      1.0  0.32270  0.86660  0.68310  1.0000
  O   O103      1.0  0.17730  0.36660  0.81690  1.0000
  O   O104      1.0  0.82270  0.36660  0.68310  1.0000
  O   O105      1.0  0.27530  0.14250  0.19480  1.0000
  O   O106      1.0  0.72470  0.14250  0.30520  1.0000
  O   O107      1.0  0.77530  0.64250  0.19480  1.0000
  O   O108      1.0  0.22470  0.64250  0.30520  1.0000
  O   O109      1.0  0.72470  0.85750  0.80520  1.0000
  O   O110      1.0  0.27530  0.85750  0.69480  1.0000
  O   O111      1.0  0.22470  0.35750  0.80520  1.0000
  O   O112      1.0  0.77530  0.35750  0.69480  1.0000
  C   C401      1.0  0.40960  0.98650  0.61960  1.0000
  C   C402      1.0  0.59040  0.98650  0.88040  1.0000
  C   C403      1.0  0.90960  0.48650  0.61960  1.0000
  C   C404      1.0  0.09040  0.48650  0.88040  1.0000
  C   C405      1.0  0.59040  0.01350  0.38040  1.0000
  C   C406      1.0  0.40960  0.01350  0.11960  1.0000
  C   C407      1.0  0.09040  0.51350  0.38040  1.0000
  C   C408      1.0  0.90960  0.51350  0.11960  1.0000
  C   C409      1.0  0.37280  0.99330  0.60480  1.0000
  C   C410      1.0  0.62720  0.99330  0.89520  1.0000
  C   C411      1.0  0.87280  0.49330  0.60480  1.0000
  C   C412      1.0  0.12720  0.49330  0.89520  1.0000
  C   C413      1.0  0.62720  0.00670  0.39520  1.0000
  C   C414      1.0  0.37280  0.00670  0.10480  1.0000
  C   C415      1.0  0.12720  0.50670  0.39520  1.0000
  C   C416      1.0  0.87280  0.50670  0.10480  1.0000
  H   H225      1.0  0.36450  0.01440  0.59800  1.0000
  H   H226      1.0  0.63550  0.01440  0.90200  1.0000
  H   H227      1.0  0.86450  0.51440  0.59800  1.0000
  H   H228      1.0  0.13550  0.51440  0.90200  1.0000
  H   H229      1.0  0.63550  0.98560  0.40200  1.0000
  H   H230      1.0  0.36450  0.98560  0.09800  1.0000
  H   H231      1.0  0.13550  0.48560  0.40200  1.0000
  H   H232      1.0  0.86450  0.48560  0.09800  1.0000
  C   C417      1.0  0.34840  0.96930  0.60010  1.0000
  C   C418      1.0  0.65160  0.96930  0.89990  1.0000
  C   C419      1.0  0.84840  0.46930  0.60010  1.0000
  C   C420      1.0  0.15160  0.46930  0.89990  1.0000
  C   C421      1.0  0.65160  0.03070  0.39990  1.0000
  C   C422      1.0  0.34840  0.03070  0.10010  1.0000
  C   C423      1.0  0.15160  0.53070  0.39990  1.0000
  C   C424      1.0  0.84840  0.53070  0.10010  1.0000
  H   H233      1.0  0.32330  0.97420  0.58920  1.0000
  H   H234      1.0  0.67670  0.97420  0.91080  1.0000
  H   H235      1.0  0.82330  0.47420  0.58920  1.0000
  H   H236      1.0  0.17670  0.47420  0.91080  1.0000
  H   H237      1.0  0.67670  0.02580  0.41080  1.0000
  H   H238      1.0  0.32330  0.02580  0.08920  1.0000
  H   H239      1.0  0.17670  0.52580  0.41080  1.0000
  H   H240      1.0  0.82330  0.52580  0.08920  1.0000
  C   C425      1.0  0.35990  0.93820  0.61100  1.0000
  C   C426      1.0  0.64010  0.93820  0.88900  1.0000
  C   C427      1.0  0.85990  0.43820  0.61100  1.0000
  C   C428      1.0  0.14010  0.43820  0.88900  1.0000
  C   C429      1.0  0.64010  0.06180  0.38900  1.0000
  C   C430      1.0  0.35990  0.06180  0.11100  1.0000
  C   C431      1.0  0.14010  0.56180  0.38900  1.0000
  C   C432      1.0  0.85990  0.56180  0.11100  1.0000
  C   C433      1.0  0.39720  0.93180  0.62820  1.0000
  C   C434      1.0  0.60280  0.93180  0.87180  1.0000
  C   C435      1.0  0.89720  0.43180  0.62820  1.0000
  C   C436      1.0  0.10280  0.43180  0.87180  1.0000
  C   C437      1.0  0.60280  0.06820  0.37180  1.0000
  C   C438      1.0  0.39720  0.06820  0.12820  1.0000
  C   C439      1.0  0.10280  0.56820  0.37180  1.0000
  C   C440      1.0  0.89720  0.56820  0.12820  1.0000
  H   H241      1.0  0.40600  0.91100  0.63700  1.0000
  H   H242      1.0  0.59400  0.91100  0.86300  1.0000
  H   H243      1.0  0.90600  0.41100  0.63700  1.0000
  H   H244      1.0  0.09400  0.41100  0.86300  1.0000
  H   H245      1.0  0.59400  0.08900  0.36300  1.0000
  H   H246      1.0  0.40600  0.08900  0.13700  1.0000
  H   H247      1.0  0.09400  0.58900  0.36300  1.0000
  H   H248      1.0  0.90600  0.58900  0.13700  1.0000
  C   C441      1.0  0.42140  0.95600  0.63230  1.0000
  C   C442      1.0  0.57860  0.95600  0.86770  1.0000
  C   C443      1.0  0.92140  0.45600  0.63230  1.0000
  C   C444      1.0  0.07860  0.45600  0.86770  1.0000
  C   C445      1.0  0.57860  0.04400  0.36770  1.0000
  C   C446      1.0  0.42140  0.04400  0.13230  1.0000
  C   C447      1.0  0.07860  0.54400  0.36770  1.0000
  C   C448      1.0  0.92140  0.54400  0.13230  1.0000
  H   H249      1.0  0.44670  0.95160  0.64410  1.0000
  H   H250      1.0  0.55330  0.95160  0.85590  1.0000
  H   H251      1.0  0.94670  0.45160  0.64410  1.0000
  H   H252      1.0  0.05330  0.45160  0.85590  1.0000
  H   H253      1.0  0.55330  0.04840  0.35590  1.0000
  H   H254      1.0  0.44670  0.04840  0.14410  1.0000
  H   H255      1.0  0.05330  0.54840  0.35590  1.0000
  H   H256      1.0  0.94670  0.54840  0.14410  1.0000
  C   C449      1.0  0.33200  0.91230  0.60240  1.0000
  C   C450      1.0  0.66800  0.91230  0.89760  1.0000
  C   C451      1.0  0.83200  0.41230  0.60240  1.0000
  C   C452      1.0  0.16800  0.41230  0.89760  1.0000
  C   C453      1.0  0.66800  0.08770  0.39760  1.0000
  C   C454      1.0  0.33200  0.08770  0.10240  1.0000
  C   C455      1.0  0.16800  0.58770  0.39760  1.0000
  C   C456      1.0  0.83200  0.58770  0.10240  1.0000
  O   O113      1.0  0.34450  0.88570  0.61820  1.0000
  O   O114      1.0  0.65550  0.88570  0.88180  1.0000
  O   O115      1.0  0.84450  0.38570  0.61820  1.0000
  O   O116      1.0  0.15550  0.38570  0.88180  1.0000
  O   O117      1.0  0.65550  0.11430  0.38180  1.0000
  O   O118      1.0  0.34450  0.11430  0.11820  1.0000
  O   O119      1.0  0.15550  0.61430  0.38180  1.0000
  O   O120      1.0  0.84450  0.61430  0.11820  1.0000
  O   O121      1.0  0.29910  0.91950  0.58090  1.0000
  O   O122      1.0  0.70090  0.91950  0.91910  1.0000
  O   O123      1.0  0.79910  0.41950  0.58090  1.0000
  O   O124      1.0  0.20090  0.41950  0.91910  1.0000
  O   O125      1.0  0.70090  0.08050  0.41910  1.0000
  O   O126      1.0  0.29910  0.08050  0.08090  1.0000
  O   O127      1.0  0.20090  0.58050  0.41910  1.0000
  O   O128      1.0  0.79910  0.58050  0.08090  1.0000
  C   C457      1.0  0.93030  0.98550  0.15850  1.0000
  C   C458      1.0  0.06970  0.98550  0.34150  1.0000
  C   C459      1.0  0.43030  0.48550  0.15850  1.0000
  C   C460      1.0  0.56970  0.48550  0.34150  1.0000
  C   C461      1.0  0.06970  0.01450  0.84150  1.0000
  C   C462      1.0  0.93030  0.01450  0.65850  1.0000
  C   C463      1.0  0.56970  0.51450  0.84150  1.0000
  C   C464      1.0  0.43030  0.51450  0.65850  1.0000
  C   C465      1.0  0.94480  0.01070  0.18690  1.0000
  C   C466      1.0  0.05520  0.01070  0.31310  1.0000
  C   C467      1.0  0.44480  0.51070  0.18690  1.0000
  C   C468      1.0  0.55520  0.51070  0.31310  1.0000
  C   C469      1.0  0.05520  0.98930  0.81310  1.0000
  C   C470      1.0  0.94480  0.98930  0.68690  1.0000
  C   C471      1.0  0.55520  0.48930  0.81310  1.0000
  C   C472      1.0  0.44480  0.48930  0.68690  1.0000
  H   H257      1.0  0.97060  0.01230  0.20200  1.0000
  H   H258      1.0  0.02940  0.01230  0.29800  1.0000
  H   H259      1.0  0.47060  0.51230  0.20200  1.0000
  H   H260      1.0  0.52940  0.51230  0.29800  1.0000
  H   H261      1.0  0.02940  0.98770  0.79800  1.0000
  H   H262      1.0  0.97060  0.98770  0.70200  1.0000
  H   H263      1.0  0.52940  0.48770  0.79800  1.0000
  H   H264      1.0  0.47060  0.48770  0.70200  1.0000
  C   C473      1.0  0.92400  0.03330  0.19410  1.0000
  C   C474      1.0  0.07600  0.03330  0.30590  1.0000
  C   C475      1.0  0.42400  0.53330  0.19410  1.0000
  C   C476      1.0  0.57600  0.53330  0.30590  1.0000
  C   C477      1.0  0.07600  0.96670  0.80590  1.0000
  C   C478      1.0  0.92400  0.96670  0.69410  1.0000
  C   C479      1.0  0.57600  0.46670  0.80590  1.0000
  C   C480      1.0  0.42400  0.46670  0.69410  1.0000
  H   H265      1.0  0.93520  0.04940  0.21480  1.0000
  H   H266      1.0  0.06480  0.04940  0.28520  1.0000
  H   H267      1.0  0.43520  0.54940  0.21480  1.0000
  H   H268      1.0  0.56480  0.54940  0.28520  1.0000
  H   H269      1.0  0.06480  0.95060  0.78520  1.0000
  H   H270      1.0  0.93520  0.95060  0.71480  1.0000
  H   H271      1.0  0.56480  0.45060  0.78520  1.0000
  H   H272      1.0  0.43520  0.45060  0.71480  1.0000
  Br  Br17      1.0  0.85755  0.06425  0.17900  1.0000
  Br  Br18      1.0  0.14245  0.06425  0.32100  1.0000
  Br  Br19      1.0  0.35755  0.56425  0.17900  1.0000
  Br  Br20      1.0  0.64245  0.56425  0.32100  1.0000
  Br  Br21      1.0  0.14245  0.93575  0.82100  1.0000
  Br  Br22      1.0  0.85755  0.93575  0.67900  1.0000
  Br  Br23      1.0  0.64245  0.43575  0.82100  1.0000
  Br  Br24      1.0  0.35755  0.43575  0.67900  1.0000
  C   C481      1.0  0.88680  0.03230  0.17140  1.0000
  C   C482      1.0  0.11320  0.03230  0.32860  1.0000
  C   C483      1.0  0.38680  0.53230  0.17140  1.0000
  C   C484      1.0  0.61320  0.53230  0.32860  1.0000
  C   C485      1.0  0.11320  0.96770  0.82860  1.0000
  C   C486      1.0  0.88680  0.96770  0.67140  1.0000
  C   C487      1.0  0.61320  0.46770  0.82860  1.0000
  C   C488      1.0  0.38680  0.46770  0.67140  1.0000
  C   C489      1.0  0.87110  0.00870  0.14230  1.0000
  C   C490      1.0  0.12890  0.00870  0.35770  1.0000
  C   C491      1.0  0.37110  0.50870  0.14230  1.0000
  C   C492      1.0  0.62890  0.50870  0.35770  1.0000
  C   C493      1.0  0.12890  0.99130  0.85770  1.0000
  C   C494      1.0  0.87110  0.99130  0.64230  1.0000
  C   C495      1.0  0.62890  0.49130  0.85770  1.0000
  C   C496      1.0  0.37110  0.49130  0.64230  1.0000
  H   H273      1.0  0.84540  0.00800  0.12620  1.0000
  H   H274      1.0  0.15460  0.00800  0.37380  1.0000
  H   H275      1.0  0.34540  0.50800  0.12620  1.0000
  H   H276      1.0  0.65460  0.50800  0.37380  1.0000
  H   H277      1.0  0.15460  0.99200  0.87380  1.0000
  H   H278      1.0  0.84540  0.99200  0.62620  1.0000
  H   H279      1.0  0.65460  0.49200  0.87380  1.0000
  H   H280      1.0  0.34540  0.49200  0.62620  1.0000
  C   C497      1.0  0.89240  0.98570  0.13620  1.0000
  C   C498      1.0  0.10760  0.98570  0.36380  1.0000
  C   C499      1.0  0.39240  0.48570  0.13620  1.0000
  C   C500      1.0  0.60760  0.48570  0.36380  1.0000
  C   C501      1.0  0.10760  0.01430  0.86380  1.0000
  C   C502      1.0  0.89240  0.01430  0.63620  1.0000
  C   C503      1.0  0.60760  0.51430  0.86380  1.0000
  C   C504      1.0  0.39240  0.51430  0.63620  1.0000
  H   H281      1.0  0.88080  0.96940  0.11600  1.0000
  H   H282      1.0  0.11920  0.96940  0.38400  1.0000
  H   H283      1.0  0.38080  0.46940  0.11600  1.0000
  H   H284      1.0  0.61920  0.46940  0.38400  1.0000
  H   H285      1.0  0.11920  0.03060  0.88400  1.0000
  H   H286      1.0  0.88080  0.03060  0.61600  1.0000
  H   H287      1.0  0.61920  0.53060  0.88400  1.0000
  H   H288      1.0  0.38080  0.53060  0.61600  1.0000
  B   B17       1.0  0.95450  0.95860  0.15140  1.0000
  B   B18       1.0  0.04550  0.95860  0.34860  1.0000
  B   B19       1.0  0.45450  0.45860  0.15140  1.0000
  B   B20       1.0  0.54550  0.45860  0.34860  1.0000
  B   B21       1.0  0.04550  0.04140  0.84860  1.0000
  B   B22       1.0  0.95450  0.04140  0.65140  1.0000
  B   B23       1.0  0.54550  0.54140  0.84860  1.0000
  B   B24       1.0  0.45450  0.54140  0.65140  1.0000
  O   O129      1.0  0.97120  0.97680  0.12130  1.0000
  O   O130      1.0  0.02880  0.97680  0.37870  1.0000
  O   O131      1.0  0.47120  0.47680  0.12130  1.0000
  O   O132      1.0  0.52880  0.47680  0.37870  1.0000
  O   O133      1.0  0.02880  0.02320  0.87870  1.0000
  O   O134      1.0  0.97120  0.02320  0.62130  1.0000
  O   O135      1.0  0.52880  0.52320  0.87870  1.0000
  O   O136      1.0  0.47120  0.52320  0.62130  1.0000
  N   N49       1.0  0.99780  0.96070  0.11710  1.0000
  N   N50       1.0  0.00220  0.96070  0.38290  1.0000
  N   N51       1.0  0.49780  0.46070  0.11710  1.0000
  N   N52       1.0  0.50220  0.46070  0.38290  1.0000
  N   N53       1.0  0.00220  0.03930  0.88290  1.0000
  N   N54       1.0  0.99780  0.03930  0.61710  1.0000
  N   N55       1.0  0.50220  0.53930  0.88290  1.0000
  N   N56       1.0  0.49780  0.53930  0.61710  1.0000
  C   C505      1.0  0.01940  0.97900  0.10650  1.0000
  C   C506      1.0  0.98060  0.97900  0.39350  1.0000
  C   C507      1.0  0.51940  0.47900  0.10650  1.0000
  C   C508      1.0  0.48060  0.47900  0.39350  1.0000
  C   C509      1.0  0.98060  0.02100  0.89350  1.0000
  C   C510      1.0  0.01940  0.02100  0.60650  1.0000
  C   C511      1.0  0.48060  0.52100  0.89350  1.0000
  C   C512      1.0  0.51940  0.52100  0.60650  1.0000
  H   H289      1.0  0.01350  0.00080  0.10200  1.0000
  H   H290      1.0  0.98650  0.00080  0.39800  1.0000
  H   H291      1.0  0.51350  0.50080  0.10200  1.0000
  H   H292      1.0  0.48650  0.50080  0.39800  1.0000
  H   H293      1.0  0.98650  0.99920  0.89800  1.0000
  H   H294      1.0  0.01350  0.99920  0.60200  1.0000
  H   H295      1.0  0.48650  0.49920  0.89800  1.0000
  H   H296      1.0  0.51350  0.49920  0.60200  1.0000
  C   C513      1.0  0.05200  0.96820  0.10100  1.0000
  C   C514      1.0  0.94800  0.96820  0.39900  1.0000
  C   C515      1.0  0.55200  0.46820  0.10100  1.0000
  C   C516      1.0  0.44800  0.46820  0.39900  1.0000
  C   C517      1.0  0.94800  0.03180  0.89900  1.0000
  C   C518      1.0  0.05200  0.03180  0.60100  1.0000
  C   C519      1.0  0.44800  0.53180  0.89900  1.0000
  C   C520      1.0  0.55200  0.53180  0.60100  1.0000
  C   C521      1.0  0.05890  0.93610  0.09540  1.0000
  C   C522      1.0  0.94110  0.93610  0.40460  1.0000
  C   C523      1.0  0.55890  0.43610  0.09540  1.0000
  C   C524      1.0  0.44110  0.43610  0.40460  1.0000
  C   C525      1.0  0.94110  0.06390  0.90460  1.0000
  C   C526      1.0  0.05890  0.06390  0.59540  1.0000
  C   C527      1.0  0.44110  0.56390  0.90460  1.0000
  C   C528      1.0  0.55890  0.56390  0.59540  1.0000
  C   C529      1.0  0.08990  0.92970  0.08790  1.0000
  C   C530      1.0  0.91010  0.92970  0.41210  1.0000
  C   C531      1.0  0.58990  0.42970  0.08790  1.0000
  C   C532      1.0  0.41010  0.42970  0.41210  1.0000
  C   C533      1.0  0.91010  0.07030  0.91210  1.0000
  C   C534      1.0  0.08990  0.07030  0.58790  1.0000
  C   C535      1.0  0.41010  0.57030  0.91210  1.0000
  C   C536      1.0  0.58990  0.57030  0.58790  1.0000
  C   C537      1.0  0.11210  0.95500  0.08760  1.0000
  C   C538      1.0  0.88790  0.95500  0.41240  1.0000
  C   C539      1.0  0.61210  0.45500  0.08760  1.0000
  C   C540      1.0  0.38790  0.45500  0.41240  1.0000
  C   C541      1.0  0.88790  0.04500  0.91240  1.0000
  C   C542      1.0  0.11210  0.04500  0.58760  1.0000
  C   C543      1.0  0.38790  0.54500  0.91240  1.0000
  C   C544      1.0  0.61210  0.54500  0.58760  1.0000
  H   H297      1.0  0.13280  0.95030  0.08280  1.0000
  H   H298      1.0  0.86720  0.95030  0.41720  1.0000
  H   H299      1.0  0.63280  0.45030  0.08280  1.0000
  H   H300      1.0  0.36720  0.45030  0.41720  1.0000
  H   H301      1.0  0.86720  0.04970  0.91720  1.0000
  H   H302      1.0  0.13280  0.04970  0.58280  1.0000
  H   H303      1.0  0.36720  0.54970  0.91720  1.0000
  H   H304      1.0  0.63280  0.54970  0.58280  1.0000
  C   C545      1.0  0.10580  0.98640  0.09400  1.0000
  C   C546      1.0  0.89420  0.98640  0.40600  1.0000
  C   C547      1.0  0.60580  0.48640  0.09400  1.0000
  C   C548      1.0  0.39420  0.48640  0.40600  1.0000
  C   C549      1.0  0.89420  0.01360  0.90600  1.0000
  C   C550      1.0  0.10580  0.01360  0.59400  1.0000
  C   C551      1.0  0.39420  0.51360  0.90600  1.0000
  C   C552      1.0  0.60580  0.51360  0.59400  1.0000
  C   C553      1.0  0.07500  0.99210  0.10010  1.0000
  C   C554      1.0  0.92500  0.99210  0.39990  1.0000
  C   C555      1.0  0.57500  0.49210  0.10010  1.0000
  C   C556      1.0  0.42500  0.49210  0.39990  1.0000
  C   C557      1.0  0.92500  0.00790  0.89990  1.0000
  C   C558      1.0  0.07500  0.00790  0.60010  1.0000
  C   C559      1.0  0.42500  0.50790  0.89990  1.0000
  C   C560      1.0  0.57500  0.50790  0.60010  1.0000
  H   H305      1.0  0.06930  0.01330  0.10390  1.0000
  H   H306      1.0  0.93070  0.01330  0.39610  1.0000
  H   H307      1.0  0.56930  0.51330  0.10390  1.0000
  H   H308      1.0  0.43070  0.51330  0.39610  1.0000
  H   H309      1.0  0.93070  0.98670  0.89610  1.0000
  H   H310      1.0  0.06930  0.98670  0.60390  1.0000
  H   H311      1.0  0.43070  0.48670  0.89610  1.0000
  H   H312      1.0  0.56930  0.48670  0.60390  1.0000
  C   C561      1.0  0.10060  0.89830  0.08210  1.0000
  C   C562      1.0  0.89940  0.89830  0.41790  1.0000
  C   C563      1.0  0.60060  0.39830  0.08210  1.0000
  C   C564      1.0  0.39940  0.39830  0.41790  1.0000
  C   C565      1.0  0.89940  0.10170  0.91790  1.0000
  C   C566      1.0  0.10060  0.10170  0.58210  1.0000
  C   C567      1.0  0.39940  0.60170  0.91790  1.0000
  C   C568      1.0  0.60060  0.60170  0.58210  1.0000
  H   H313      1.0  0.12080  0.89690  0.07540  1.0000
  H   H314      1.0  0.87920  0.89690  0.42460  1.0000
  H   H315      1.0  0.62080  0.39690  0.07540  1.0000
  H   H316      1.0  0.37920  0.39690  0.42460  1.0000
  H   H317      1.0  0.87920  0.10310  0.92460  1.0000
  H   H318      1.0  0.12080  0.10310  0.57540  1.0000
  H   H319      1.0  0.37920  0.60310  0.92460  1.0000
  H   H320      1.0  0.62080  0.60310  0.57540  1.0000
  N   N57       1.0  0.08650  0.87230  0.08480  1.0000
  N   N58       1.0  0.91350  0.87230  0.41520  1.0000
  N   N59       1.0  0.58650  0.37230  0.08480  1.0000
  N   N60       1.0  0.41350  0.37230  0.41520  1.0000
  N   N61       1.0  0.91350  0.12770  0.91520  1.0000
  N   N62       1.0  0.08650  0.12770  0.58480  1.0000
  N   N63       1.0  0.41350  0.62770  0.91520  1.0000
  N   N64       1.0  0.58650  0.62770  0.58480  1.0000
  O   O137      1.0  0.10520  0.84560  0.08010  1.0000
  O   O138      1.0  0.89480  0.84560  0.41990  1.0000
  O   O139      1.0  0.60520  0.34560  0.08010  1.0000
  O   O140      1.0  0.39480  0.34560  0.41990  1.0000
  O   O141      1.0  0.89480  0.15440  0.91990  1.0000
  O   O142      1.0  0.10520  0.15440  0.58010  1.0000
  O   O143      1.0  0.39480  0.65440  0.91990  1.0000
  O   O144      1.0  0.60520  0.65440  0.58010  1.0000
  B   B25       1.0  0.09600  0.81460  0.09340  1.0000
  B   B26       1.0  0.90400  0.81460  0.40660  1.0000
  B   B27       1.0  0.59600  0.31460  0.09340  1.0000
  B   B28       1.0  0.40400  0.31460  0.40660  1.0000
  B   B29       1.0  0.90400  0.18540  0.90660  1.0000
  B   B30       1.0  0.09600  0.18540  0.59340  1.0000
  B   B31       1.0  0.40400  0.68540  0.90660  1.0000
  B   B32       1.0  0.59600  0.68540  0.59340  1.0000
  O   O145      1.0  0.98520  0.95170  0.19210  1.0000
  O   O146      1.0  0.01480  0.95170  0.30790  1.0000
  O   O147      1.0  0.48520  0.45170  0.19210  1.0000
  O   O148      1.0  0.51480  0.45170  0.30790  1.0000
  O   O149      1.0  0.01480  0.04830  0.80790  1.0000
  O   O150      1.0  0.98520  0.04830  0.69210  1.0000
  O   O151      1.0  0.51480  0.54830  0.80790  1.0000
  O   O152      1.0  0.48520  0.54830  0.69210  1.0000
  N   N65       1.0  0.00980  0.92890  0.19240  1.0000
  N   N66       1.0  0.99020  0.92890  0.30760  1.0000
  N   N67       1.0  0.50980  0.42890  0.19240  1.0000
  N   N68       1.0  0.49020  0.42890  0.30760  1.0000
  N   N69       1.0  0.99020  0.07110  0.80760  1.0000
  N   N70       1.0  0.00980  0.07110  0.69240  1.0000
  N   N71       1.0  0.49020  0.57110  0.80760  1.0000
  N   N72       1.0  0.50980  0.57110  0.69240  1.0000
  C   C569      1.0  0.03440  0.92240  0.22970  1.0000
  C   C570      1.0  0.96560  0.92240  0.27030  1.0000
  C   C571      1.0  0.53440  0.42240  0.22970  1.0000
  C   C572      1.0  0.46560  0.42240  0.27030  1.0000
  C   C573      1.0  0.96560  0.07760  0.77030  1.0000
  C   C574      1.0  0.03440  0.07760  0.72970  1.0000
  C   C575      1.0  0.46560  0.57760  0.77030  1.0000
  C   C576      1.0  0.53440  0.57760  0.72970  1.0000
  H   H321      1.0  0.03360  0.93360  0.25310  1.0000
  H   H322      1.0  0.96640  0.93360  0.24690  1.0000
  H   H323      1.0  0.53360  0.43360  0.25310  1.0000
  H   H324      1.0  0.46640  0.43360  0.24690  1.0000
  H   H325      1.0  0.96640  0.06640  0.74690  1.0000
  H   H326      1.0  0.03360  0.06640  0.75310  1.0000
  H   H327      1.0  0.46640  0.56640  0.74690  1.0000
  H   H328      1.0  0.53360  0.56640  0.75310  1.0000
  C   C577      1.0  0.06370  0.89950  0.24010  1.0000
  C   C578      1.0  0.93630  0.89950  0.25990  1.0000
  C   C579      1.0  0.56370  0.39950  0.24010  1.0000
  C   C580      1.0  0.43630  0.39950  0.25990  1.0000
  C   C581      1.0  0.93630  0.10050  0.75990  1.0000
  C   C582      1.0  0.06370  0.10050  0.74010  1.0000
  C   C583      1.0  0.43630  0.60050  0.75990  1.0000
  C   C584      1.0  0.56370  0.60050  0.74010  1.0000
  C   C585      1.0  0.06870  0.87980  0.20930  1.0000
  C   C586      1.0  0.93130  0.87980  0.29070  1.0000
  C   C587      1.0  0.56870  0.37980  0.20930  1.0000
  C   C588      1.0  0.43130  0.37980  0.29070  1.0000
  C   C589      1.0  0.93130  0.12020  0.79070  1.0000
  C   C590      1.0  0.06870  0.12020  0.70930  1.0000
  C   C591      1.0  0.43130  0.62020  0.79070  1.0000
  C   C592      1.0  0.56870  0.62020  0.70930  1.0000
  C   C593      1.0  0.09910  0.85850  0.22440  1.0000
  C   C594      1.0  0.90090  0.85850  0.27560  1.0000
  C   C595      1.0  0.59910  0.35850  0.22440  1.0000
  C   C596      1.0  0.40090  0.35850  0.27560  1.0000
  C   C597      1.0  0.90090  0.14150  0.77560  1.0000
  C   C598      1.0  0.09910  0.14150  0.72440  1.0000
  C   C599      1.0  0.40090  0.64150  0.77560  1.0000
  C   C600      1.0  0.59910  0.64150  0.72440  1.0000
  C   C601      1.0  0.12190  0.85700  0.26870  1.0000
  C   C602      1.0  0.87810  0.85700  0.23130  1.0000
  C   C603      1.0  0.62190  0.35700  0.26870  1.0000
  C   C604      1.0  0.37810  0.35700  0.23130  1.0000
  C   C605      1.0  0.87810  0.14300  0.73130  1.0000
  C   C606      1.0  0.12190  0.14300  0.76870  1.0000
  C   C607      1.0  0.37810  0.64300  0.73130  1.0000
  C   C608      1.0  0.62190  0.64300  0.76870  1.0000
  H   H329      1.0  0.14140  0.84230  0.27870  1.0000
  H   H330      1.0  0.85860  0.84230  0.22130  1.0000
  H   H331      1.0  0.64140  0.34230  0.27870  1.0000
  H   H332      1.0  0.35860  0.34230  0.22130  1.0000
  H   H333      1.0  0.85860  0.15770  0.72130  1.0000
  H   H334      1.0  0.14140  0.15770  0.77870  1.0000
  H   H335      1.0  0.35860  0.65770  0.72130  1.0000
  H   H336      1.0  0.64140  0.65770  0.77870  1.0000
  C   C609      1.0  0.11700  0.87610  0.29840  1.0000
  C   C610      1.0  0.88300  0.87610  0.20160  1.0000
  C   C611      1.0  0.61700  0.37610  0.29840  1.0000
  C   C612      1.0  0.38300  0.37610  0.20160  1.0000
  C   C613      1.0  0.88300  0.12390  0.70160  1.0000
  C   C614      1.0  0.11700  0.12390  0.79840  1.0000
  C   C615      1.0  0.38300  0.62390  0.70160  1.0000
  C   C616      1.0  0.61700  0.62390  0.79840  1.0000
  C   C617      1.0  0.08820  0.89720  0.28380  1.0000
  C   C618      1.0  0.91180  0.89720  0.21620  1.0000
  C   C619      1.0  0.58820  0.39720  0.28380  1.0000
  C   C620      1.0  0.41180  0.39720  0.21620  1.0000
  C   C621      1.0  0.91180  0.10280  0.71620  1.0000
  C   C622      1.0  0.08820  0.10280  0.78380  1.0000
  C   C623      1.0  0.41180  0.60280  0.71620  1.0000
  C   C624      1.0  0.58820  0.60280  0.78380  1.0000
  H   H337      1.0  0.08490  0.91040  0.30400  1.0000
  H   H338      1.0  0.91510  0.91040  0.19600  1.0000
  H   H339      1.0  0.58490  0.41040  0.30400  1.0000
  H   H340      1.0  0.41510  0.41040  0.19600  1.0000
  H   H341      1.0  0.91510  0.08960  0.69600  1.0000
  H   H342      1.0  0.08490  0.08960  0.80400  1.0000
  H   H343      1.0  0.41510  0.58960  0.69600  1.0000
  H   H344      1.0  0.58490  0.58960  0.80400  1.0000
  C   C625      1.0  0.10830  0.83810  0.19680  1.0000
  C   C626      1.0  0.89170  0.83810  0.30320  1.0000
  C   C627      1.0  0.60830  0.33810  0.19680  1.0000
  C   C628      1.0  0.39170  0.33810  0.30320  1.0000
  C   C629      1.0  0.89170  0.16190  0.80320  1.0000
  C   C630      1.0  0.10830  0.16190  0.69680  1.0000
  C   C631      1.0  0.39170  0.66190  0.80320  1.0000
  C   C632      1.0  0.60830  0.66190  0.69680  1.0000
  H   H345      1.0  0.12830  0.82430  0.21070  1.0000
  H   H346      1.0  0.87170  0.82430  0.28930  1.0000
  H   H347      1.0  0.62830  0.32430  0.21070  1.0000
  H   H348      1.0  0.37170  0.32430  0.28930  1.0000
  H   H349      1.0  0.87170  0.17570  0.78930  1.0000
  H   H350      1.0  0.12830  0.17570  0.71070  1.0000
  H   H351      1.0  0.37170  0.67570  0.78930  1.0000
  H   H352      1.0  0.62830  0.67570  0.71070  1.0000
  N   N73       1.0  0.09230  0.83690  0.15610  1.0000
  N   N74       1.0  0.90770  0.83690  0.34390  1.0000
  N   N75       1.0  0.59230  0.33690  0.15610  1.0000
  N   N76       1.0  0.40770  0.33690  0.34390  1.0000
  N   N77       1.0  0.90770  0.16310  0.84390  1.0000
  N   N78       1.0  0.09230  0.16310  0.65610  1.0000
  N   N79       1.0  0.40770  0.66310  0.84390  1.0000
  N   N80       1.0  0.59230  0.66310  0.65610  1.0000
  O   O153      1.0  0.10770  0.81570  0.13860  1.0000
  O   O154      1.0  0.89230  0.81570  0.36140  1.0000
  O   O155      1.0  0.60770  0.31570  0.13860  1.0000
  O   O156      1.0  0.39230  0.31570  0.36140  1.0000
  O   O157      1.0  0.89230  0.18430  0.86140  1.0000
  O   O158      1.0  0.10770  0.18430  0.63860  1.0000
  O   O159      1.0  0.39230  0.68430  0.86140  1.0000
  O   O160      1.0  0.60770  0.68430  0.63860  1.0000
  O   O161      1.0  0.93160  0.93410  0.12650  1.0000
  O   O162      1.0  0.06840  0.93410  0.37350  1.0000
  O   O163      1.0  0.43160  0.43410  0.12650  1.0000
  O   O164      1.0  0.56840  0.43410  0.37350  1.0000
  O   O165      1.0  0.06840  0.06590  0.87350  1.0000
  O   O166      1.0  0.93160  0.06590  0.62650  1.0000
  O   O167      1.0  0.56840  0.56590  0.87350  1.0000
  O   O168      1.0  0.43160  0.56590  0.62650  1.0000
  N   N81       1.0  0.94720  0.90880  0.11480  1.0000
  N   N82       1.0  0.05280  0.90880  0.38520  1.0000
  N   N83       1.0  0.44720  0.40880  0.11480  1.0000
  N   N84       1.0  0.55280  0.40880  0.38520  1.0000
  N   N85       1.0  0.05280  0.09120  0.88520  1.0000
  N   N86       1.0  0.94720  0.09120  0.61480  1.0000
  N   N87       1.0  0.55280  0.59120  0.88520  1.0000
  N   N88       1.0  0.44720  0.59120  0.61480  1.0000
  C   C633      1.0  0.92590  0.88550  0.10010  1.0000
  C   C634      1.0  0.07410  0.88550  0.39990  1.0000
  C   C635      1.0  0.42590  0.38550  0.10010  1.0000
  C   C636      1.0  0.57410  0.38550  0.39990  1.0000
  C   C637      1.0  0.07410  0.11450  0.89990  1.0000
  C   C638      1.0  0.92590  0.11450  0.60010  1.0000
  C   C639      1.0  0.57410  0.61450  0.89990  1.0000
  C   C640      1.0  0.42590  0.61450  0.60010  1.0000
  H   H353      1.0  0.90210  0.88780  0.09830  1.0000
  H   H354      1.0  0.09790  0.88780  0.40170  1.0000
  H   H355      1.0  0.40210  0.38780  0.09830  1.0000
  H   H356      1.0  0.59790  0.38780  0.40170  1.0000
  H   H357      1.0  0.09790  0.11220  0.90170  1.0000
  H   H358      1.0  0.90210  0.11220  0.59830  1.0000
  H   H359      1.0  0.59790  0.61220  0.90170  1.0000
  H   H360      1.0  0.40210  0.61220  0.59830  1.0000
  C   C641      1.0  0.93400  0.85560  0.08580  1.0000
  C   C642      1.0  0.06600  0.85560  0.41420  1.0000
  C   C643      1.0  0.43400  0.35560  0.08580  1.0000
  C   C644      1.0  0.56600  0.35560  0.41420  1.0000
  C   C645      1.0  0.06600  0.14440  0.91420  1.0000
  C   C646      1.0  0.93400  0.14440  0.58580  1.0000
  C   C647      1.0  0.56600  0.64440  0.91420  1.0000
  C   C648      1.0  0.43400  0.64440  0.58580  1.0000
  C   C649      1.0  0.96710  0.84890  0.08250  1.0000
  C   C650      1.0  0.03290  0.84890  0.41750  1.0000
  C   C651      1.0  0.46710  0.34890  0.08250  1.0000
  C   C652      1.0  0.53290  0.34890  0.41750  1.0000
  C   C653      1.0  0.03290  0.15110  0.91750  1.0000
  C   C654      1.0  0.96710  0.15110  0.58250  1.0000
  C   C655      1.0  0.53290  0.65110  0.91750  1.0000
  C   C656      1.0  0.46710  0.65110  0.58250  1.0000
  C   C657      1.0  0.97130  0.81770  0.06970  1.0000
  C   C658      1.0  0.02870  0.81770  0.43030  1.0000
  C   C659      1.0  0.47130  0.31770  0.06970  1.0000
  C   C660      1.0  0.52870  0.31770  0.43030  1.0000
  C   C661      1.0  0.02870  0.18230  0.93030  1.0000
  C   C662      1.0  0.97130  0.18230  0.56970  1.0000
  C   C663      1.0  0.52870  0.68230  0.93030  1.0000
  C   C664      1.0  0.47130  0.68230  0.56970  1.0000
  C   C665      1.0  0.94490  0.79450  0.06260  1.0000
  C   C666      1.0  0.05510  0.79450  0.43740  1.0000
  C   C667      1.0  0.44490  0.29450  0.06260  1.0000
  C   C668      1.0  0.55510  0.29450  0.43740  1.0000
  C   C669      1.0  0.05510  0.20550  0.93740  1.0000
  C   C670      1.0  0.94490  0.20550  0.56260  1.0000
  C   C671      1.0  0.55510  0.70550  0.93740  1.0000
  C   C672      1.0  0.44490  0.70550  0.56260  1.0000
  H   H361      1.0  0.94880  0.77370  0.05500  1.0000
  H   H362      1.0  0.05120  0.77370  0.44500  1.0000
  H   H363      1.0  0.44880  0.27370  0.05500  1.0000
  H   H364      1.0  0.55120  0.27370  0.44500  1.0000
  H   H365      1.0  0.05120  0.22630  0.94500  1.0000
  H   H366      1.0  0.94880  0.22630  0.55500  1.0000
  H   H367      1.0  0.55120  0.72630  0.94500  1.0000
  H   H368      1.0  0.44880  0.72630  0.55500  1.0000
  C   C673      1.0  0.91300  0.80100  0.06650  1.0000
  C   C674      1.0  0.08700  0.80100  0.43350  1.0000
  C   C675      1.0  0.41300  0.30100  0.06650  1.0000
  C   C676      1.0  0.58700  0.30100  0.43350  1.0000
  C   C677      1.0  0.08700  0.19900  0.93350  1.0000
  C   C678      1.0  0.91300  0.19900  0.56650  1.0000
  C   C679      1.0  0.58700  0.69900  0.93350  1.0000
  C   C680      1.0  0.41300  0.69900  0.56650  1.0000
  C   C681      1.0  0.90820  0.83130  0.07770  1.0000
  C   C682      1.0  0.09180  0.83130  0.42230  1.0000
  C   C683      1.0  0.40820  0.33130  0.07770  1.0000
  C   C684      1.0  0.59180  0.33130  0.42230  1.0000
  C   C685      1.0  0.09180  0.16870  0.92230  1.0000
  C   C686      1.0  0.90820  0.16870  0.57770  1.0000
  C   C687      1.0  0.59180  0.66870  0.92230  1.0000
  C   C688      1.0  0.40820  0.66870  0.57770  1.0000
  H   H369      1.0  0.88640  0.83610  0.08020  1.0000
  H   H370      1.0  0.11360  0.83610  0.41980  1.0000
  H   H371      1.0  0.38640  0.33610  0.08020  1.0000
  H   H372      1.0  0.61360  0.33610  0.41980  1.0000
  H   H373      1.0  0.11360  0.16390  0.91980  1.0000
  H   H374      1.0  0.88640  0.16390  0.58020  1.0000
  H   H375      1.0  0.61360  0.66390  0.91980  1.0000
  H   H376      1.0  0.38640  0.66390  0.58020  1.0000
  C   C689      1.0  0.00330  0.80700  0.06500  1.0000
  C   C690      1.0  0.99670  0.80700  0.43500  1.0000
  C   C691      1.0  0.50330  0.30700  0.06500  1.0000
  C   C692      1.0  0.49670  0.30700  0.43500  1.0000
  C   C693      1.0  0.99670  0.19300  0.93500  1.0000
  C   C694      1.0  0.00330  0.19300  0.56500  1.0000
  C   C695      1.0  0.49670  0.69300  0.93500  1.0000
  C   C696      1.0  0.50330  0.69300  0.56500  1.0000
  H   H377      1.0  0.00250  0.78670  0.05320  1.0000
  H   H378      1.0  0.99750  0.78670  0.44680  1.0000
  H   H379      1.0  0.50250  0.28670  0.05320  1.0000
  H   H380      1.0  0.49750  0.28670  0.44680  1.0000
  H   H381      1.0  0.99750  0.21330  0.94680  1.0000
  H   H382      1.0  0.00250  0.21330  0.55320  1.0000
  H   H383      1.0  0.49750  0.71330  0.94680  1.0000
  H   H384      1.0  0.50250  0.71330  0.55320  1.0000
  N   N89       1.0  0.03240  0.82300  0.07570  1.0000
  N   N90       1.0  0.96760  0.82300  0.42430  1.0000
  N   N91       1.0  0.53240  0.32300  0.07570  1.0000
  N   N92       1.0  0.46760  0.32300  0.42430  1.0000
  N   N93       1.0  0.96760  0.17700  0.92430  1.0000
  N   N94       1.0  0.03240  0.17700  0.57570  1.0000
  N   N95       1.0  0.46760  0.67700  0.92430  1.0000
  N   N96       1.0  0.53240  0.67700  0.57570  1.0000
  O   O169      1.0  0.05800  0.80660  0.06890  1.0000
  O   O170      1.0  0.94200  0.80660  0.43110  1.0000
  O   O171      1.0  0.55800  0.30660  0.06890  1.0000
  O   O172      1.0  0.44200  0.30660  0.43110  1.0000
  O   O173      1.0  0.94200  0.19340  0.93110  1.0000
  O   O174      1.0  0.05800  0.19340  0.56890  1.0000
  O   O175      1.0  0.44200  0.69340  0.93110  1.0000
  O   O176      1.0  0.55800  0.69340  0.56890  1.0000
  C   C697      1.0  0.12020  0.78830  0.08500  1.0000
  C   C698      1.0  0.87980  0.78830  0.41500  1.0000
  C   C699      1.0  0.62020  0.28830  0.08500  1.0000
  C   C700      1.0  0.37980  0.28830  0.41500  1.0000
  C   C701      1.0  0.87980  0.21170  0.91500  1.0000
  C   C702      1.0  0.12020  0.21170  0.58500  1.0000
  C   C703      1.0  0.37980  0.71170  0.91500  1.0000
  C   C704      1.0  0.62020  0.71170  0.58500  1.0000
  C   C705      1.0  0.15140  0.77490  0.11690  1.0000
  C   C706      1.0  0.84860  0.77490  0.38310  1.0000
  C   C707      1.0  0.65140  0.27490  0.11690  1.0000
  C   C708      1.0  0.34860  0.27490  0.38310  1.0000
  C   C709      1.0  0.84860  0.22510  0.88310  1.0000
  C   C710      1.0  0.15140  0.22510  0.61690  1.0000
  C   C711      1.0  0.34860  0.72510  0.88310  1.0000
  C   C712      1.0  0.65140  0.72510  0.61690  1.0000
  H   H385      1.0  0.16010  0.78330  0.14520  1.0000
  H   H386      1.0  0.83990  0.78330  0.35480  1.0000
  H   H387      1.0  0.66010  0.28330  0.14520  1.0000
  H   H388      1.0  0.33990  0.28330  0.35480  1.0000
  H   H389      1.0  0.83990  0.21670  0.85480  1.0000
  H   H390      1.0  0.16010  0.21670  0.64520  1.0000
  H   H391      1.0  0.33990  0.71670  0.85480  1.0000
  H   H392      1.0  0.66010  0.71670  0.64520  1.0000
  C   C713      1.0  0.11000  0.77520  0.04430  1.0000
  C   C714      1.0  0.89000  0.77520  0.45570  1.0000
  C   C715      1.0  0.61000  0.27520  0.04430  1.0000
  C   C716      1.0  0.39000  0.27520  0.45570  1.0000
  C   C717      1.0  0.89000  0.22480  0.95570  1.0000
  C   C718      1.0  0.11000  0.22480  0.54430  1.0000
  C   C719      1.0  0.39000  0.72480  0.95570  1.0000
  C   C720      1.0  0.61000  0.72480  0.54430  1.0000
  H   H393      1.0  0.08900  0.78350  0.02100  1.0000
  H   H394      1.0  0.91100  0.78350  0.47900  1.0000
  H   H395      1.0  0.58900  0.28350  0.02100  1.0000
  H   H396      1.0  0.41100  0.28350  0.47900  1.0000
  H   H397      1.0  0.91100  0.21650  0.97900  1.0000
  H   H398      1.0  0.08900  0.21650  0.52100  1.0000
  H   H399      1.0  0.41100  0.71650  0.97900  1.0000
  H   H400      1.0  0.58900  0.71650  0.52100  1.0000
  C   C721      1.0  0.17060  0.75010  0.11000  1.0000
  C   C722      1.0  0.82940  0.75010  0.39000  1.0000
  C   C723      1.0  0.67060  0.25010  0.11000  1.0000
  C   C724      1.0  0.32940  0.25010  0.39000  1.0000
  C   C725      1.0  0.82940  0.24990  0.89000  1.0000
  C   C726      1.0  0.17060  0.24990  0.61000  1.0000
  C   C727      1.0  0.32940  0.74990  0.89000  1.0000
  C   C728      1.0  0.67060  0.74990  0.61000  1.0000
  H   H401      1.0  0.19120  0.74130  0.13320  1.0000
  H   H402      1.0  0.80880  0.74130  0.36680  1.0000
  H   H403      1.0  0.69120  0.24130  0.13320  1.0000
  H   H404      1.0  0.30880  0.24130  0.36680  1.0000
  H   H405      1.0  0.80880  0.25870  0.86680  1.0000
  H   H406      1.0  0.19120  0.25870  0.63320  1.0000
  H   H407      1.0  0.30880  0.75870  0.86680  1.0000
  H   H408      1.0  0.69120  0.75870  0.63320  1.0000
  C   C729      1.0  0.12860  0.75090  0.03610  1.0000
  C   C730      1.0  0.87140  0.75090  0.46390  1.0000
  C   C731      1.0  0.62860  0.25090  0.03610  1.0000
  C   C732      1.0  0.37140  0.25090  0.46390  1.0000
  C   C733      1.0  0.87140  0.24910  0.96390  1.0000
  C   C734      1.0  0.12860  0.24910  0.53610  1.0000
  C   C735      1.0  0.37140  0.74910  0.96390  1.0000
  C   C736      1.0  0.62860  0.74910  0.53610  1.0000
  H   H409      1.0  0.12040  0.74290  0.00780  1.0000
  H   H410      1.0  0.87960  0.74290  0.49220  1.0000
  H   H411      1.0  0.62040  0.24290  0.00780  1.0000
  H   H412      1.0  0.37960  0.24290  0.49220  1.0000
  H   H413      1.0  0.87960  0.25710  0.99220  1.0000
  H   H414      1.0  0.12040  0.25710  0.50780  1.0000
  H   H415      1.0  0.37960  0.75710  0.99220  1.0000
  H   H416      1.0  0.62040  0.75710  0.50780  1.0000
  Br  Br25      1.0  0.18548  0.70600  0.05700  1.0000
  Br  Br26      1.0  0.81452  0.70600  0.44300  1.0000
  Br  Br27      1.0  0.68548  0.20600  0.05700  1.0000
  Br  Br28      1.0  0.31452  0.20600  0.44300  1.0000
  Br  Br29      1.0  0.81452  0.29400  0.94300  1.0000
  Br  Br30      1.0  0.18548  0.29400  0.55700  1.0000
  Br  Br31      1.0  0.31452  0.79400  0.94300  1.0000
  Br  Br32      1.0  0.68548  0.79400  0.55700  1.0000
  C   C737      1.0  0.15910  0.73850  0.06910  1.0000
  C   C738      1.0  0.84090  0.73850  0.43090  1.0000
  C   C739      1.0  0.65910  0.23850  0.06910  1.0000
  C   C740      1.0  0.34090  0.23850  0.43090  1.0000
  C   C741      1.0  0.84090  0.26150  0.93090  1.0000
  C   C742      1.0  0.15910  0.26150  0.56910  1.0000
  C   C743      1.0  0.34090  0.76150  0.93090  1.0000
  C   C744      1.0  0.65910  0.76150  0.56910  1.0000
  O   O177      1.0  0.03830  0.91340  0.09770  1.0000
  O   O178      1.0  0.96170  0.91340  0.40230  1.0000
  O   O179      1.0  0.53830  0.41340  0.09770  1.0000
  O   O180      1.0  0.46170  0.41340  0.40230  1.0000
  O   O181      1.0  0.96170  0.08660  0.90230  1.0000
  O   O182      1.0  0.03830  0.08660  0.59770  1.0000
  O   O183      1.0  0.46170  0.58660  0.90230  1.0000
  O   O184      1.0  0.53830  0.58660  0.59770  1.0000
  C   C745      1.0  0.13090  0.01200  0.09560  1.0000
  C   C746      1.0  0.86910  0.01200  0.40440  1.0000
  C   C747      1.0  0.63090  0.51200  0.09560  1.0000
  C   C748      1.0  0.36910  0.51200  0.40440  1.0000
  C   C749      1.0  0.86910  0.98800  0.90440  1.0000
  C   C750      1.0  0.13090  0.98800  0.59560  1.0000
  C   C751      1.0  0.36910  0.48800  0.90440  1.0000
  C   C752      1.0  0.63090  0.48800  0.59560  1.0000
  C   C753      1.0  0.13220  0.04070  0.11580  1.0000
  C   C754      1.0  0.86780  0.04070  0.38420  1.0000
  C   C755      1.0  0.63220  0.54070  0.11580  1.0000
  C   C756      1.0  0.36780  0.54070  0.38420  1.0000
  C   C757      1.0  0.86780  0.95930  0.88420  1.0000
  C   C758      1.0  0.13220  0.95930  0.61580  1.0000
  C   C759      1.0  0.36780  0.45930  0.88420  1.0000
  C   C760      1.0  0.63220  0.45930  0.61580  1.0000
  H   H417      1.0  0.11570  0.04440  0.12800  1.0000
  H   H418      1.0  0.88430  0.04440  0.37200  1.0000
  H   H419      1.0  0.61570  0.54440  0.12800  1.0000
  H   H420      1.0  0.38430  0.54440  0.37200  1.0000
  H   H421      1.0  0.88430  0.95560  0.87200  1.0000
  H   H422      1.0  0.11570  0.95560  0.62800  1.0000
  H   H423      1.0  0.38430  0.45560  0.87200  1.0000
  H   H424      1.0  0.61570  0.45560  0.62800  1.0000
  C   C761      1.0  0.15670  0.06400  0.11880  1.0000
  C   C762      1.0  0.84330  0.06400  0.38120  1.0000
  C   C763      1.0  0.65670  0.56400  0.11880  1.0000
  C   C764      1.0  0.34330  0.56400  0.38120  1.0000
  C   C765      1.0  0.84330  0.93600  0.88120  1.0000
  C   C766      1.0  0.15670  0.93600  0.61880  1.0000
  C   C767      1.0  0.34330  0.43600  0.88120  1.0000
  C   C768      1.0  0.65670  0.43600  0.61880  1.0000
  H   H425      1.0  0.15690  0.08330  0.13290  1.0000
  H   H426      1.0  0.84310  0.08330  0.36710  1.0000
  H   H427      1.0  0.65690  0.58330  0.13290  1.0000
  H   H428      1.0  0.34310  0.58330  0.36710  1.0000
  H   H429      1.0  0.84310  0.91670  0.86710  1.0000
  H   H430      1.0  0.15690  0.91670  0.63290  1.0000
  H   H431      1.0  0.34310  0.41670  0.86710  1.0000
  H   H432      1.0  0.65690  0.41670  0.63290  1.0000
  C   C769      1.0  0.18110  0.05960  0.10110  1.0000
  C   C770      1.0  0.81890  0.05960  0.39890  1.0000
  C   C771      1.0  0.68110  0.55960  0.10110  1.0000
  C   C772      1.0  0.31890  0.55960  0.39890  1.0000
  C   C773      1.0  0.81890  0.94040  0.89890  1.0000
  C   C774      1.0  0.18110  0.94040  0.60110  1.0000
  C   C775      1.0  0.31890  0.44040  0.89890  1.0000
  C   C776      1.0  0.68110  0.44040  0.60110  1.0000
  C   C777      1.0  0.18040  0.03080  0.08140  1.0000
  C   C778      1.0  0.81960  0.03080  0.41860  1.0000
  C   C779      1.0  0.68040  0.53080  0.08140  1.0000
  C   C780      1.0  0.31960  0.53080  0.41860  1.0000
  C   C781      1.0  0.81960  0.96920  0.91860  1.0000
  C   C782      1.0  0.18040  0.96920  0.58140  1.0000
  C   C783      1.0  0.31960  0.46920  0.91860  1.0000
  C   C784      1.0  0.68040  0.46920  0.58140  1.0000
  H   H433      1.0  0.19720  0.02710  0.06970  1.0000
  H   H434      1.0  0.80280  0.02710  0.43030  1.0000
  H   H435      1.0  0.69720  0.52710  0.06970  1.0000
  H   H436      1.0  0.30280  0.52710  0.43030  1.0000
  H   H437      1.0  0.80280  0.97290  0.93030  1.0000
  H   H438      1.0  0.19720  0.97290  0.56970  1.0000
  H   H439      1.0  0.30280  0.47290  0.93030  1.0000
  H   H440      1.0  0.69720  0.47290  0.56970  1.0000
  C   C785      1.0  0.15580  0.00760  0.07850  1.0000
  C   C786      1.0  0.84420  0.00760  0.42150  1.0000
  C   C787      1.0  0.65580  0.50760  0.07850  1.0000
  C   C788      1.0  0.34420  0.50760  0.42150  1.0000
  C   C789      1.0  0.84420  0.99240  0.92150  1.0000
  C   C790      1.0  0.15580  0.99240  0.57850  1.0000
  C   C791      1.0  0.34420  0.49240  0.92150  1.0000
  C   C792      1.0  0.65580  0.49240  0.57850  1.0000
  H   H441      1.0  0.15580  0.98820  0.06460  1.0000
  H   H442      1.0  0.84420  0.98820  0.43540  1.0000
  H   H443      1.0  0.65580  0.48820  0.06460  1.0000
  H   H444      1.0  0.34420  0.48820  0.43540  1.0000
  H   H445      1.0  0.84420  0.01180  0.93540  1.0000
  H   H446      1.0  0.15580  0.01180  0.56460  1.0000
  H   H447      1.0  0.34420  0.51180  0.93540  1.0000
  H   H448      1.0  0.65580  0.51180  0.56460  1.0000
  C   C793      1.0  0.20720  0.08480  0.10200  1.0000
  C   C794      1.0  0.79280  0.08480  0.39800  1.0000
  C   C795      1.0  0.70720  0.58480  0.10200  1.0000
  C   C796      1.0  0.29280  0.58480  0.39800  1.0000
  C   C797      1.0  0.79280  0.91520  0.89800  1.0000
  C   C798      1.0  0.20720  0.91520  0.60200  1.0000
  C   C799      1.0  0.29280  0.41520  0.89800  1.0000
  C   C800      1.0  0.70720  0.41520  0.60200  1.0000
  O   O185      1.0  0.20920  0.10960  0.12230  1.0000
  O   O186      1.0  0.79080  0.10960  0.37770  1.0000
  O   O187      1.0  0.70920  0.60960  0.12230  1.0000
  O   O188      1.0  0.29080  0.60960  0.37770  1.0000
  O   O189      1.0  0.79080  0.89040  0.87770  1.0000
  O   O190      1.0  0.20920  0.89040  0.62230  1.0000
  O   O191      1.0  0.29080  0.39040  0.87770  1.0000
  O   O192      1.0  0.70920  0.39040  0.62230  1.0000
  O   O193      1.0  0.04560  0.88050  0.16890  1.0000
  O   O194      1.0  0.95440  0.88050  0.33110  1.0000
  O   O195      1.0  0.54560  0.38050  0.16890  1.0000
  O   O196      1.0  0.45440  0.38050  0.33110  1.0000
  O   O197      1.0  0.95440  0.11950  0.83110  1.0000
  O   O198      1.0  0.04560  0.11950  0.66890  1.0000
  O   O199      1.0  0.45440  0.61950  0.83110  1.0000
  O   O200      1.0  0.54560  0.61950  0.66890  1.0000
  O   O201      1.0  0.22660  0.07830  0.08240  1.0000
  O   O202      1.0  0.77340  0.07830  0.41760  1.0000
  O   O203      1.0  0.72660  0.57830  0.08240  1.0000
  O   O204      1.0  0.27340  0.57830  0.41760  1.0000
  O   O205      1.0  0.77340  0.92170  0.91760  1.0000
  O   O206      1.0  0.22660  0.92170  0.58240  1.0000
  O   O207      1.0  0.27340  0.42170  0.91760  1.0000
  O   O208      1.0  0.72660  0.42170  0.58240  1.0000
  C   C801      1.0  0.14240  0.87440  0.34480  1.0000
  C   C802      1.0  0.85760  0.87440  0.15520  1.0000
  C   C803      1.0  0.64240  0.37440  0.34480  1.0000
  C   C804      1.0  0.35760  0.37440  0.15520  1.0000
  C   C805      1.0  0.85760  0.12560  0.65520  1.0000
  C   C806      1.0  0.14240  0.12560  0.84480  1.0000
  C   C807      1.0  0.35760  0.62560  0.65520  1.0000
  C   C808      1.0  0.64240  0.62560  0.84480  1.0000
  C   C809      1.0  0.15230  0.90090  0.37140  1.0000
  C   C810      1.0  0.84770  0.90090  0.12860  1.0000
  C   C811      1.0  0.65230  0.40090  0.37140  1.0000
  C   C812      1.0  0.34770  0.40090  0.12860  1.0000
  C   C813      1.0  0.84770  0.09910  0.62860  1.0000
  C   C814      1.0  0.15230  0.09910  0.87140  1.0000
  C   C815      1.0  0.34770  0.59910  0.62860  1.0000
  C   C816      1.0  0.65230  0.59910  0.87140  1.0000
  H   H449      1.0  0.14290  0.92100  0.35950  1.0000
  H   H450      1.0  0.85710  0.92100  0.14050  1.0000
  H   H451      1.0  0.64290  0.42100  0.35950  1.0000
  H   H452      1.0  0.35710  0.42100  0.14050  1.0000
  H   H453      1.0  0.85710  0.07900  0.64050  1.0000
  H   H454      1.0  0.14290  0.07900  0.85950  1.0000
  H   H455      1.0  0.35710  0.57900  0.64050  1.0000
  H   H456      1.0  0.64290  0.57900  0.85950  1.0000
  C   C817      1.0  0.17570  0.89860  0.41470  1.0000
  C   C818      1.0  0.82430  0.89860  0.08530  1.0000
  C   C819      1.0  0.67570  0.39860  0.41470  1.0000
  C   C820      1.0  0.32430  0.39860  0.08530  1.0000
  C   C821      1.0  0.82430  0.10140  0.58530  1.0000
  C   C822      1.0  0.17570  0.10140  0.91470  1.0000
  C   C823      1.0  0.32430  0.60140  0.58530  1.0000
  C   C824      1.0  0.67570  0.60140  0.91470  1.0000
  H   H457      1.0  0.18250  0.91700  0.43210  1.0000
  H   H458      1.0  0.81750  0.91700  0.06790  1.0000
  H   H459      1.0  0.68250  0.41700  0.43210  1.0000
  H   H460      1.0  0.31750  0.41700  0.06790  1.0000
  H   H461      1.0  0.81750  0.08300  0.56790  1.0000
  H   H462      1.0  0.18250  0.08300  0.93210  1.0000
  H   H463      1.0  0.31750  0.58300  0.56790  1.0000
  H   H464      1.0  0.68250  0.58300  0.93210  1.0000
  C   C825      1.0  0.18920  0.86900  0.43280  1.0000
  C   C826      1.0  0.81080  0.86900  0.06720  1.0000
  C   C827      1.0  0.68920  0.36900  0.43280  1.0000
  C   C828      1.0  0.31080  0.36900  0.06720  1.0000
  C   C829      1.0  0.81080  0.13100  0.56720  1.0000
  C   C830      1.0  0.18920  0.13100  0.93280  1.0000
  C   C831      1.0  0.31080  0.63100  0.56720  1.0000
  C   C832      1.0  0.68920  0.63100  0.93280  1.0000
  C   C833      1.0  0.17970  0.84240  0.40610  1.0000
  C   C834      1.0  0.82030  0.84240  0.09390  1.0000
  C   C835      1.0  0.67970  0.34240  0.40610  1.0000
  C   C836      1.0  0.32030  0.34240  0.09390  1.0000
  C   C837      1.0  0.82030  0.15760  0.59390  1.0000
  C   C838      1.0  0.17970  0.15760  0.90610  1.0000
  C   C839      1.0  0.32030  0.65760  0.59390  1.0000
  C   C840      1.0  0.67970  0.65760  0.90610  1.0000
  H   H465      1.0  0.18920  0.82240  0.41790  1.0000
  H   H466      1.0  0.81080  0.82240  0.08210  1.0000
  H   H467      1.0  0.68920  0.32240  0.41790  1.0000
  H   H468      1.0  0.31080  0.32240  0.08210  1.0000
  H   H469      1.0  0.81080  0.17760  0.58210  1.0000
  H   H470      1.0  0.18920  0.17760  0.91790  1.0000
  H   H471      1.0  0.31080  0.67760  0.58210  1.0000
  H   H472      1.0  0.68920  0.67760  0.91790  1.0000
  C   C841      1.0  0.15680  0.84510  0.36280  1.0000
  C   C842      1.0  0.84320  0.84510  0.13720  1.0000
  C   C843      1.0  0.65680  0.34510  0.36280  1.0000
  C   C844      1.0  0.34320  0.34510  0.13720  1.0000
  C   C845      1.0  0.84320  0.15490  0.63720  1.0000
  C   C846      1.0  0.15680  0.15490  0.86280  1.0000
  C   C847      1.0  0.34320  0.65490  0.63720  1.0000
  C   C848      1.0  0.65680  0.65490  0.86280  1.0000
  H   H473      1.0  0.15080  0.82680  0.34500  1.0000
  H   H474      1.0  0.84920  0.82680  0.15500  1.0000
  H   H475      1.0  0.65080  0.32680  0.34500  1.0000
  H   H476      1.0  0.34920  0.32680  0.15500  1.0000
  H   H477      1.0  0.84920  0.17320  0.65500  1.0000
  H   H478      1.0  0.15080  0.17320  0.84500  1.0000
  H   H479      1.0  0.34920  0.67320  0.65500  1.0000
  H   H480      1.0  0.65080  0.67320  0.84500  1.0000
  C   C849      1.0  0.21310  0.86500  0.48040  1.0000
  C   C850      1.0  0.78690  0.86500  0.01960  1.0000
  C   C851      1.0  0.71310  0.36500  0.48040  1.0000
  C   C852      1.0  0.28690  0.36500  0.01960  1.0000
  C   C853      1.0  0.78690  0.13500  0.51960  1.0000
  C   C854      1.0  0.21310  0.13500  0.98040  1.0000
  C   C855      1.0  0.28690  0.63500  0.51960  1.0000
  C   C856      1.0  0.71310  0.63500  0.98040  1.0000
  O   O209      1.0  0.99210  0.87030  0.09080  1.0000
  O   O210      1.0  0.00790  0.87030  0.40920  1.0000
  O   O211      1.0  0.49210  0.37030  0.09080  1.0000
  O   O212      1.0  0.50790  0.37030  0.40920  1.0000
  O   O213      1.0  0.00790  0.12970  0.90920  1.0000
  O   O214      1.0  0.99210  0.12970  0.59080  1.0000
  O   O215      1.0  0.50790  0.62970  0.90920  1.0000
  O   O216      1.0  0.49210  0.62970  0.59080  1.0000
  O   O217      1.0  0.22640  0.88990  0.50270  1.0000
  O   O218      1.0  0.77360  0.88990  0.99730  1.0000
  O   O219      1.0  0.72640  0.38990  0.50270  1.0000
  O   O220      1.0  0.27360  0.38990  0.99730  1.0000
  O   O221      1.0  0.77360  0.11010  0.49730  1.0000
  O   O222      1.0  0.22640  0.11010  0.00270  1.0000
  O   O223      1.0  0.27360  0.61010  0.49730  1.0000
  O   O224      1.0  0.72640  0.61010  0.00270  1.0000
  O   O225      1.0  0.22080  0.83740  0.49460  1.0000
  O   O226      1.0  0.77920  0.83740  0.00540  1.0000
  O   O227      1.0  0.72080  0.33740  0.49460  1.0000
  O   O228      1.0  0.27920  0.33740  0.00540  1.0000
  O   O229      1.0  0.77920  0.16260  0.50540  1.0000
  O   O230      1.0  0.22080  0.16260  0.99460  1.0000
  O   O231      1.0  0.27920  0.66260  0.50540  1.0000
  O   O232      1.0  0.72080  0.66260  0.99460  1.0000
  C   C857      1.0  0.88630  0.77540  0.06100  1.0000
  C   C858      1.0  0.11370  0.77540  0.43900  1.0000
  C   C859      1.0  0.38630  0.27540  0.06100  1.0000
  C   C860      1.0  0.61370  0.27540  0.43900  1.0000
  C   C861      1.0  0.11370  0.22460  0.93900  1.0000
  C   C862      1.0  0.88630  0.22460  0.56100  1.0000
  C   C863      1.0  0.61370  0.72460  0.93900  1.0000
  C   C864      1.0  0.38630  0.72460  0.56100  1.0000
  C   C865      1.0  0.89830  0.74510  0.07720  1.0000
  C   C866      1.0  0.10170  0.74510  0.42280  1.0000
  C   C867      1.0  0.39830  0.24510  0.07720  1.0000
  C   C868      1.0  0.60170  0.24510  0.42280  1.0000
  C   C869      1.0  0.10170  0.25490  0.92280  1.0000
  C   C870      1.0  0.89830  0.25490  0.57720  1.0000
  C   C871      1.0  0.60170  0.75490  0.92280  1.0000
  C   C872      1.0  0.39830  0.75490  0.57720  1.0000
  H   H481      1.0  0.92340  0.74020  0.08900  1.0000
  H   H482      1.0  0.07660  0.74020  0.41100  1.0000
  H   H483      1.0  0.42340  0.24020  0.08900  1.0000
  H   H484      1.0  0.57660  0.24020  0.41100  1.0000
  H   H485      1.0  0.07660  0.25980  0.91100  1.0000
  H   H486      1.0  0.92340  0.25980  0.58900  1.0000
  H   H487      1.0  0.57660  0.75980  0.91100  1.0000
  H   H488      1.0  0.42340  0.75980  0.58900  1.0000
  C   C873      1.0  0.87370  0.72240  0.07620  1.0000
  C   C874      1.0  0.12630  0.72240  0.42380  1.0000
  C   C875      1.0  0.37370  0.22240  0.07620  1.0000
  C   C876      1.0  0.62630  0.22240  0.42380  1.0000
  C   C877      1.0  0.12630  0.27760  0.92380  1.0000
  C   C878      1.0  0.87370  0.27760  0.57620  1.0000
  C   C879      1.0  0.62630  0.77760  0.92380  1.0000
  C   C880      1.0  0.37370  0.77760  0.57620  1.0000
  H   H489      1.0  0.88230  0.70200  0.08720  1.0000
  H   H490      1.0  0.11770  0.70200  0.41280  1.0000
  H   H491      1.0  0.38230  0.20200  0.08720  1.0000
  H   H492      1.0  0.61770  0.20200  0.41280  1.0000
  H   H493      1.0  0.11770  0.29800  0.91280  1.0000
  H   H494      1.0  0.88230  0.29800  0.58720  1.0000
  H   H495      1.0  0.61770  0.79800  0.91280  1.0000
  H   H496      1.0  0.38230  0.79800  0.58720  1.0000
  C   C881      1.0  0.83680  0.72870  0.05960  1.0000
  C   C882      1.0  0.16320  0.72870  0.44040  1.0000
  C   C883      1.0  0.33680  0.22870  0.05960  1.0000
  C   C884      1.0  0.66320  0.22870  0.44040  1.0000
  C   C885      1.0  0.16320  0.27130  0.94040  1.0000
  C   C886      1.0  0.83680  0.27130  0.55960  1.0000
  C   C887      1.0  0.66320  0.77130  0.94040  1.0000
  C   C888      1.0  0.33680  0.77130  0.55960  1.0000
  C   C889      1.0  0.82440  0.75840  0.04200  1.0000
  C   C890      1.0  0.17560  0.75840  0.45800  1.0000
  C   C891      1.0  0.32440  0.25840  0.04200  1.0000
  C   C892      1.0  0.67560  0.25840  0.45800  1.0000
  C   C893      1.0  0.17560  0.24160  0.95800  1.0000
  C   C894      1.0  0.82440  0.24160  0.54200  1.0000
  C   C895      1.0  0.67560  0.74160  0.95800  1.0000
  C   C896      1.0  0.32440  0.74160  0.54200  1.0000
  H   H497      1.0  0.79910  0.76310  0.02980  1.0000
  H   H498      1.0  0.20090  0.76310  0.47020  1.0000
  H   H499      1.0  0.29910  0.26310  0.02980  1.0000
  H   H500      1.0  0.70090  0.26310  0.47020  1.0000
  H   H501      1.0  0.20090  0.23690  0.97020  1.0000
  H   H502      1.0  0.79910  0.23690  0.52980  1.0000
  H   H503      1.0  0.70090  0.73690  0.97020  1.0000
  H   H504      1.0  0.29910  0.73690  0.52980  1.0000
  C   C897      1.0  0.84880  0.78100  0.04230  1.0000
  C   C898      1.0  0.15120  0.78100  0.45770  1.0000
  C   C899      1.0  0.34880  0.28100  0.04230  1.0000
  C   C900      1.0  0.65120  0.28100  0.45770  1.0000
  C   C901      1.0  0.15120  0.21900  0.95770  1.0000
  C   C902      1.0  0.84880  0.21900  0.54230  1.0000
  C   C903      1.0  0.65120  0.71900  0.95770  1.0000
  C   C904      1.0  0.34880  0.71900  0.54230  1.0000
  H   H505      1.0  0.83990  0.80090  0.02950  1.0000
  H   H506      1.0  0.16010  0.80090  0.47050  1.0000
  H   H507      1.0  0.33990  0.30090  0.02950  1.0000
  H   H508      1.0  0.66010  0.30090  0.47050  1.0000
  H   H509      1.0  0.16010  0.19910  0.97050  1.0000
  H   H510      1.0  0.83990  0.19910  0.52950  1.0000
  H   H511      1.0  0.66010  0.69910  0.97050  1.0000
  H   H512      1.0  0.33990  0.69910  0.52950  1.0000
  C   C905      1.0  0.81010  0.70420  0.06030  1.0000
  C   C906      1.0  0.18990  0.70420  0.43970  1.0000
  C   C907      1.0  0.31010  0.20420  0.06030  1.0000
  C   C908      1.0  0.68990  0.20420  0.43970  1.0000
  C   C909      1.0  0.18990  0.29580  0.93970  1.0000
  C   C910      1.0  0.81010  0.29580  0.56030  1.0000
  C   C911      1.0  0.68990  0.79580  0.93970  1.0000
  C   C912      1.0  0.31010  0.79580  0.56030  1.0000
  O   O233      1.0  0.77750  0.71110  0.04530  1.0000
  O   O234      1.0  0.22250  0.71110  0.45470  1.0000
  O   O235      1.0  0.27750  0.21110  0.04530  1.0000
  O   O236      1.0  0.72250  0.21110  0.45470  1.0000
  O   O237      1.0  0.22250  0.28890  0.95470  1.0000
  O   O238      1.0  0.77750  0.28890  0.54530  1.0000
  O   O239      1.0  0.72250  0.78890  0.95470  1.0000
  O   O240      1.0  0.27750  0.78890  0.54530  1.0000
  O   O241      1.0  0.82300  0.67810  0.07650  1.0000
  O   O242      1.0  0.17700  0.67810  0.42350  1.0000
  O   O243      1.0  0.32300  0.17810  0.07650  1.0000
  O   O244      1.0  0.67700  0.17810  0.42350  1.0000
  O   O245      1.0  0.17700  0.32190  0.92350  1.0000
  O   O246      1.0  0.82300  0.32190  0.57650  1.0000
  O   O247      1.0  0.67700  0.82190  0.92350  1.0000
  O   O248      1.0  0.32300  0.82190  0.57650  1.0000
  O   O249      1.0  0.37460  0.82680  0.65990  1.0000
  O   O250      1.0  0.62540  0.82680  0.84010  1.0000
  O   O251      1.0  0.87460  0.32680  0.65990  1.0000
  O   O252      1.0  0.12540  0.32680  0.84010  1.0000
  O   O253      1.0  0.62540  0.17320  0.34010  1.0000
  O   O254      1.0  0.37460  0.17320  0.15990  1.0000
  O   O255      1.0  0.12540  0.67320  0.34010  1.0000
  O   O256      1.0  0.87460  0.67320  0.15990  1.0000
  S   S1        1.0  0.41140  0.83670  0.68740  1.0000
  S   S2        1.0  0.58860  0.83670  0.81260  1.0000
  S   S3        1.0  0.91140  0.33670  0.68740  1.0000
  S   S4        1.0  0.08860  0.33670  0.81260  1.0000
  S   S5        1.0  0.58860  0.16330  0.31260  1.0000
  S   S6        1.0  0.41140  0.16330  0.18740  1.0000
  S   S7        1.0  0.08860  0.66330  0.31260  1.0000
  S   S8        1.0  0.91140  0.66330  0.18740  1.0000
  C   C913      1.0  0.42690  0.81050  0.73290  1.0000
  C   C914      1.0  0.57310  0.81050  0.76710  1.0000
  C   C915      1.0  0.92690  0.31050  0.73290  1.0000
  C   C916      1.0  0.07310  0.31050  0.76710  1.0000
  C   C917      1.0  0.57310  0.18950  0.26710  1.0000
  C   C918      1.0  0.42690  0.18950  0.23290  1.0000
  C   C919      1.0  0.07310  0.68950  0.26710  1.0000
  C   C920      1.0  0.92690  0.68950  0.23290  1.0000
  H   H513      1.0  0.45190  0.81600  0.75300  1.0000
  H   H514      1.0  0.54810  0.81600  0.74700  1.0000
  H   H515      1.0  0.95190  0.31600  0.75300  1.0000
  H   H516      1.0  0.04810  0.31600  0.74700  1.0000
  H   H517      1.0  0.54810  0.18400  0.24700  1.0000
  H   H518      1.0  0.45190  0.18400  0.25300  1.0000
  H   H519      1.0  0.04810  0.68400  0.24700  1.0000
  H   H520      1.0  0.95190  0.68400  0.25300  1.0000
  H   H521      1.0  0.41110  0.81250  0.74750  1.0000
  H   H522      1.0  0.58890  0.81250  0.75250  1.0000
  H   H523      1.0  0.91110  0.31250  0.74750  1.0000
  H   H524      1.0  0.08890  0.31250  0.75250  1.0000
  H   H525      1.0  0.58890  0.18750  0.25250  1.0000
  H   H526      1.0  0.41110  0.18750  0.24750  1.0000
  H   H527      1.0  0.08890  0.68750  0.25250  1.0000
  H   H528      1.0  0.91110  0.68750  0.24750  1.0000
  H   H529      1.0  0.42620  0.78860  0.72320  1.0000
  H   H530      1.0  0.57380  0.78860  0.77680  1.0000
  H   H531      1.0  0.92620  0.28860  0.72320  1.0000
  H   H532      1.0  0.07380  0.28860  0.77680  1.0000
  H   H533      1.0  0.57380  0.21140  0.27680  1.0000
  H   H534      1.0  0.42620  0.21140  0.22320  1.0000
  H   H535      1.0  0.07380  0.71140  0.27680  1.0000
  H   H536      1.0  0.92620  0.71140  0.22320  1.0000
  C   C921      1.0  0.44420  0.81780  0.67270  1.0000
  C   C922      1.0  0.55580  0.81780  0.82730  1.0000
  C   C923      1.0  0.94420  0.31780  0.67270  1.0000
  C   C924      1.0  0.05580  0.31780  0.82730  1.0000
  C   C925      1.0  0.55580  0.18220  0.32730  1.0000
  C   C926      1.0  0.44420  0.18220  0.17270  1.0000
  C   C927      1.0  0.05580  0.68220  0.32730  1.0000
  C   C928      1.0  0.94420  0.68220  0.17270  1.0000
  H   H537      1.0  0.46870  0.82500  0.69200  1.0000
  H   H538      1.0  0.53130  0.82500  0.80800  1.0000
  H   H539      1.0  0.96870  0.32500  0.69200  1.0000
  H   H540      1.0  0.03130  0.32500  0.80800  1.0000
  H   H541      1.0  0.53130  0.17500  0.30800  1.0000
  H   H542      1.0  0.46870  0.17500  0.19200  1.0000
  H   H543      1.0  0.03130  0.67500  0.30800  1.0000
  H   H544      1.0  0.96870  0.67500  0.19200  1.0000
  H   H545      1.0  0.44280  0.79480  0.67520  1.0000
  H   H546      1.0  0.55720  0.79480  0.82480  1.0000
  H   H547      1.0  0.94280  0.29480  0.67520  1.0000
  H   H548      1.0  0.05720  0.29480  0.82480  1.0000
  H   H549      1.0  0.55720  0.20520  0.32480  1.0000
  H   H550      1.0  0.44280  0.20520  0.17520  1.0000
  H   H551      1.0  0.05720  0.70520  0.32480  1.0000
  H   H552      1.0  0.94280  0.70520  0.17520  1.0000
  H   H553      1.0  0.43890  0.82330  0.64300  1.0000
  H   H554      1.0  0.56110  0.82330  0.85700  1.0000
  H   H555      1.0  0.93890  0.32330  0.64300  1.0000
  H   H556      1.0  0.06110  0.32330  0.85700  1.0000
  H   H557      1.0  0.56110  0.17670  0.35700  1.0000
  H   H558      1.0  0.43890  0.17670  0.14300  1.0000
  H   H559      1.0  0.06110  0.67670  0.35700  1.0000
  H   H560      1.0  0.93890  0.67670  0.14300  1.0000
  O   O257      1.0  0.29690  0.80350  0.64290  1.0000
  O   O258      1.0  0.70310  0.80350  0.85710  1.0000
  O   O259      1.0  0.79690  0.30350  0.64290  1.0000
  O   O260      1.0  0.20310  0.30350  0.85710  1.0000
  O   O261      1.0  0.70310  0.19650  0.35710  1.0000
  O   O262      1.0  0.29690  0.19650  0.14290  1.0000
  O   O263      1.0  0.20310  0.69650  0.35710  1.0000
  O   O264      1.0  0.79690  0.69650  0.14290  1.0000
  S   S9        1.0  0.31580  0.78500  0.68250  1.0000
  S   S10       1.0  0.68420  0.78500  0.81750  1.0000
  S   S11       1.0  0.81580  0.28500  0.68250  1.0000
  S   S12       1.0  0.18420  0.28500  0.81750  1.0000
  S   S13       1.0  0.68420  0.21500  0.31750  1.0000
  S   S14       1.0  0.31580  0.21500  0.18250  1.0000
  S   S15       1.0  0.18420  0.71500  0.31750  1.0000
  S   S16       1.0  0.81580  0.71500  0.18250  1.0000
  C   C929      1.0  0.28140  0.76460  0.69010  1.0000
  C   C930      1.0  0.71860  0.76460  0.80990  1.0000
  C   C931      1.0  0.78140  0.26460  0.69010  1.0000
  C   C932      1.0  0.21860  0.26460  0.80990  1.0000
  C   C933      1.0  0.71860  0.23540  0.30990  1.0000
  C   C934      1.0  0.28140  0.23540  0.19010  1.0000
  C   C935      1.0  0.21860  0.73540  0.30990  1.0000
  C   C936      1.0  0.78140  0.73540  0.19010  1.0000
  H   H561      1.0  0.29250  0.75170  0.71620  1.0000
  H   H562      1.0  0.70750  0.75170  0.78380  1.0000
  H   H563      1.0  0.79250  0.25170  0.71620  1.0000
  H   H564      1.0  0.20750  0.25170  0.78380  1.0000
  H   H565      1.0  0.70750  0.24830  0.28380  1.0000
  H   H566      1.0  0.29250  0.24830  0.21620  1.0000
  H   H567      1.0  0.20750  0.74830  0.28380  1.0000
  H   H568      1.0  0.79250  0.74830  0.21620  1.0000
  H   H569      1.0  0.26460  0.77990  0.69300  1.0000
  H   H570      1.0  0.73540  0.77990  0.80700  1.0000
  H   H571      1.0  0.76460  0.27990  0.69300  1.0000
  H   H572      1.0  0.23540  0.27990  0.80700  1.0000
  H   H573      1.0  0.73540  0.22010  0.30700  1.0000
  H   H574      1.0  0.26460  0.22010  0.19300  1.0000
  H   H575      1.0  0.23540  0.72010  0.30700  1.0000
  H   H576      1.0  0.76460  0.72010  0.19300  1.0000
  H   H577      1.0  0.26820  0.75090  0.66530  1.0000
  H   H578      1.0  0.73180  0.75090  0.83470  1.0000
  H   H579      1.0  0.76820  0.25090  0.66530  1.0000
  H   H580      1.0  0.23180  0.25090  0.83470  1.0000
  H   H581      1.0  0.73180  0.24910  0.33470  1.0000
  H   H582      1.0  0.26820  0.24910  0.16530  1.0000
  H   H583      1.0  0.23180  0.74910  0.33470  1.0000
  H   H584      1.0  0.76820  0.74910  0.16530  1.0000
  C   C937      1.0  0.33440  0.74960  0.67350  1.0000
  C   C938      1.0  0.66560  0.74960  0.82650  1.0000
  C   C939      1.0  0.83440  0.24960  0.67350  1.0000
  C   C940      1.0  0.16560  0.24960  0.82650  1.0000
  C   C941      1.0  0.66560  0.25040  0.32650  1.0000
  C   C942      1.0  0.33440  0.25040  0.17350  1.0000
  C   C943      1.0  0.16560  0.75040  0.32650  1.0000
  C   C944      1.0  0.83440  0.75040  0.17350  1.0000
  H   H585      1.0  0.34670  0.73810  0.70060  1.0000
  H   H586      1.0  0.65330  0.73810  0.79940  1.0000
  H   H587      1.0  0.84670  0.23810  0.70060  1.0000
  H   H588      1.0  0.15330  0.23810  0.79940  1.0000
  H   H589      1.0  0.65330  0.26190  0.29940  1.0000
  H   H590      1.0  0.34670  0.26190  0.20060  1.0000
  H   H591      1.0  0.15330  0.76190  0.29940  1.0000
  H   H592      1.0  0.84670  0.76190  0.20060  1.0000
  H   H593      1.0  0.31480  0.73650  0.65270  1.0000
  H   H594      1.0  0.68520  0.73650  0.84730  1.0000
  H   H595      1.0  0.81480  0.23650  0.65270  1.0000
  H   H596      1.0  0.18520  0.23650  0.84730  1.0000
  H   H597      1.0  0.68520  0.26350  0.34730  1.0000
  H   H598      1.0  0.31480  0.26350  0.15270  1.0000
  H   H599      1.0  0.18520  0.76350  0.34730  1.0000
  H   H600      1.0  0.81480  0.76350  0.15270  1.0000
  H   H601      1.0  0.35190  0.75450  0.66200  1.0000
  H   H602      1.0  0.64810  0.75450  0.83800  1.0000
  H   H603      1.0  0.85190  0.25450  0.66200  1.0000
  H   H604      1.0  0.14810  0.25450  0.83800  1.0000
  H   H605      1.0  0.64810  0.24550  0.33800  1.0000
  H   H606      1.0  0.35190  0.24550  0.16200  1.0000
  H   H607      1.0  0.14810  0.74550  0.33800  1.0000
  H   H608      1.0  0.85190  0.74550  0.16200  1.0000
