data_image0
_chemical_formula_structural       Tb24O168C72N24O36C24H24C24N24H24C24H24C72H24C48N24C24N24H24C24H24C48H24C24H24C48
_chemical_formula_sum              "Tb24 O204 C432 N96 H192"
_cell_length_a       27.7055
_cell_length_b       27.7055
_cell_length_c       27.7055
_cell_angle_alpha    90
_cell_angle_beta     90
_cell_angle_gamma    90

_space_group_name_H-M_alt    "P 1"
_space_group_IT_number       1

loop_
  _space_group_symop_operation_xyz
  'x, y, z'

loop_
  _atom_site_type_symbol
  _atom_site_label
  _atom_site_symmetry_multiplicity
  _atom_site_fract_x
  _atom_site_fract_y
  _atom_site_fract_z
  _atom_site_occupancy
  Tb  Tb1       1.0  0.25139  0.95972  0.44763  1.0000
  Tb  Tb2       1.0  0.74861  0.04028  0.44763  1.0000
  Tb  Tb3       1.0  0.74861  0.95972  0.55237  1.0000
  Tb  Tb4       1.0  0.25139  0.04028  0.55237  1.0000
  Tb  Tb5       1.0  0.44763  0.25139  0.95972  1.0000
  Tb  Tb6       1.0  0.44763  0.74861  0.04028  1.0000
  Tb  Tb7       1.0  0.55237  0.74861  0.95972  1.0000
  Tb  Tb8       1.0  0.55237  0.25139  0.04028  1.0000
  Tb  Tb9       1.0  0.95972  0.44763  0.25139  1.0000
  Tb  Tb10      1.0  0.04028  0.44763  0.74861  1.0000
  Tb  Tb11      1.0  0.95972  0.55237  0.74861  1.0000
  Tb  Tb12      1.0  0.04028  0.55237  0.25139  1.0000
  Tb  Tb13      1.0  0.75139  0.45972  0.94763  1.0000
  Tb  Tb14      1.0  0.24861  0.54028  0.94763  1.0000
  Tb  Tb15      1.0  0.24861  0.45972  0.05237  1.0000
  Tb  Tb16      1.0  0.75139  0.54028  0.05237  1.0000
  Tb  Tb17      1.0  0.94763  0.75139  0.45972  1.0000
  Tb  Tb18      1.0  0.94763  0.24861  0.54028  1.0000
  Tb  Tb19      1.0  0.05237  0.24861  0.45972  1.0000
  Tb  Tb20      1.0  0.05237  0.75139  0.54028  1.0000
  Tb  Tb21      1.0  0.45972  0.94763  0.75139  1.0000
  Tb  Tb22      1.0  0.54028  0.94763  0.24861  1.0000
  Tb  Tb23      1.0  0.45972  0.05237  0.24861  1.0000
  Tb  Tb24      1.0  0.54028  0.05237  0.75139  1.0000
  O   O1        1.0  0.39016  0.89762  0.73125  1.0000
  O   O2        1.0  0.60984  0.10238  0.73125  1.0000
  O   O3        1.0  0.60984  0.89762  0.26875  1.0000
  O   O4        1.0  0.39016  0.10238  0.26875  1.0000
  O   O5        1.0  0.73125  0.39016  0.89762  1.0000
  O   O6        1.0  0.73125  0.60984  0.10238  1.0000
  O   O7        1.0  0.26875  0.60984  0.89762  1.0000
  O   O8        1.0  0.26875  0.39016  0.10238  1.0000
  O   O9        1.0  0.89762  0.73125  0.39016  1.0000
  O   O10       1.0  0.10238  0.73125  0.60984  1.0000
  O   O11       1.0  0.89762  0.26875  0.60984  1.0000
  O   O12       1.0  0.10238  0.26875  0.39016  1.0000
  O   O13       1.0  0.89016  0.39762  0.23125  1.0000
  O   O14       1.0  0.10984  0.60238  0.23125  1.0000
  O   O15       1.0  0.10984  0.39762  0.76875  1.0000
  O   O16       1.0  0.89016  0.60238  0.76875  1.0000
  O   O17       1.0  0.23125  0.89016  0.39762  1.0000
  O   O18       1.0  0.23125  0.10984  0.60238  1.0000
  O   O19       1.0  0.76875  0.10984  0.39762  1.0000
  O   O20       1.0  0.76875  0.89016  0.60238  1.0000
  O   O21       1.0  0.39762  0.23125  0.89016  1.0000
  O   O22       1.0  0.60238  0.23125  0.10984  1.0000
  O   O23       1.0  0.39762  0.76875  0.10984  1.0000
  O   O24       1.0  0.60238  0.76875  0.89016  1.0000
  O   O25       1.0  0.29198  0.96350  0.53152  1.0000
  O   O26       1.0  0.70802  0.03650  0.53152  1.0000
  O   O27       1.0  0.70802  0.96350  0.46848  1.0000
  O   O28       1.0  0.29198  0.03650  0.46848  1.0000
  O   O29       1.0  0.53152  0.29198  0.96350  1.0000
  O   O30       1.0  0.53152  0.70802  0.03650  1.0000
  O   O31       1.0  0.46848  0.70802  0.96350  1.0000
  O   O32       1.0  0.46848  0.29198  0.03650  1.0000
  O   O33       1.0  0.96350  0.53152  0.29198  1.0000
  O   O34       1.0  0.03650  0.53152  0.70802  1.0000
  O   O35       1.0  0.96350  0.46848  0.70802  1.0000
  O   O36       1.0  0.03650  0.46848  0.29198  1.0000
  O   O37       1.0  0.79198  0.46350  0.03152  1.0000
  O   O38       1.0  0.20802  0.53650  0.03152  1.0000
  O   O39       1.0  0.20802  0.46350  0.96848  1.0000
  O   O40       1.0  0.79198  0.53650  0.96848  1.0000
  O   O41       1.0  0.03152  0.79198  0.46350  1.0000
  O   O42       1.0  0.03152  0.20802  0.53650  1.0000
  O   O43       1.0  0.96848  0.20802  0.46350  1.0000
  O   O44       1.0  0.96848  0.79198  0.53650  1.0000
  O   O45       1.0  0.46350  0.03152  0.79198  1.0000
  O   O46       1.0  0.53650  0.03152  0.20802  1.0000
  O   O47       1.0  0.46350  0.96848  0.20802  1.0000
  O   O48       1.0  0.53650  0.96848  0.79198  1.0000
  O   O49       1.0  0.41588  0.94405  0.67306  1.0000
  O   O50       1.0  0.58412  0.05595  0.67306  1.0000
  O   O51       1.0  0.58412  0.94405  0.32694  1.0000
  O   O52       1.0  0.41588  0.05595  0.32694  1.0000
  O   O53       1.0  0.67306  0.41588  0.94405  1.0000
  O   O54       1.0  0.67306  0.58412  0.05595  1.0000
  O   O55       1.0  0.32694  0.58412  0.94405  1.0000
  O   O56       1.0  0.32694  0.41588  0.05595  1.0000
  O   O57       1.0  0.94405  0.67306  0.41588  1.0000
  O   O58       1.0  0.05595  0.67306  0.58412  1.0000
  O   O59       1.0  0.94405  0.32694  0.58412  1.0000
  O   O60       1.0  0.05595  0.32694  0.41588  1.0000
  O   O61       1.0  0.91588  0.44405  0.17306  1.0000
  O   O62       1.0  0.08412  0.55595  0.17306  1.0000
  O   O63       1.0  0.08412  0.44405  0.82694  1.0000
  O   O64       1.0  0.91588  0.55595  0.82694  1.0000
  O   O65       1.0  0.17306  0.91588  0.44405  1.0000
  O   O66       1.0  0.17306  0.08412  0.55595  1.0000
  O   O67       1.0  0.82694  0.08412  0.44405  1.0000
  O   O68       1.0  0.82694  0.91588  0.55595  1.0000
  O   O69       1.0  0.44405  0.17306  0.91588  1.0000
  O   O70       1.0  0.55595  0.17306  0.08412  1.0000
  O   O71       1.0  0.44405  0.82694  0.08412  1.0000
  O   O72       1.0  0.55595  0.82694  0.91588  1.0000
  O   O73       1.0  0.26467  0.89384  0.50579  1.0000
  O   O74       1.0  0.73533  0.10616  0.50579  1.0000
  O   O75       1.0  0.73533  0.89384  0.49421  1.0000
  O   O76       1.0  0.26467  0.10616  0.49421  1.0000
  O   O77       1.0  0.50579  0.26467  0.89384  1.0000
  O   O78       1.0  0.50579  0.73533  0.10616  1.0000
  O   O79       1.0  0.49421  0.73533  0.89384  1.0000
  O   O80       1.0  0.49421  0.26467  0.10616  1.0000
  O   O81       1.0  0.89384  0.50579  0.26467  1.0000
  O   O82       1.0  0.10616  0.50579  0.73533  1.0000
  O   O83       1.0  0.89384  0.49421  0.73533  1.0000
  O   O84       1.0  0.10616  0.49421  0.26467  1.0000
  O   O85       1.0  0.76467  0.39384  0.00579  1.0000
  O   O86       1.0  0.23533  0.60616  0.00579  1.0000
  O   O87       1.0  0.23533  0.39384  0.99421  1.0000
  O   O88       1.0  0.76467  0.60616  0.99421  1.0000
  O   O89       1.0  0.00579  0.76467  0.39384  1.0000
  O   O90       1.0  0.00579  0.23533  0.60616  1.0000
  O   O91       1.0  0.99421  0.23533  0.39384  1.0000
  O   O92       1.0  0.99421  0.76467  0.60616  1.0000
  O   O93       1.0  0.39384  0.00579  0.76467  1.0000
  O   O94       1.0  0.60616  0.00579  0.23533  1.0000
  O   O95       1.0  0.39384  0.99421  0.23533  1.0000
  O   O96       1.0  0.60616  0.99421  0.76467  1.0000
  O   O97       1.0  0.49486  0.88590  0.27598  1.0000
  O   O98       1.0  0.50514  0.11410  0.27598  1.0000
  O   O99       1.0  0.50514  0.88590  0.72402  1.0000
  O   O100      1.0  0.49486  0.11410  0.72402  1.0000
  O   O101      1.0  0.27598  0.49486  0.88590  1.0000
  O   O102      1.0  0.27598  0.50514  0.11410  1.0000
  O   O103      1.0  0.72402  0.50514  0.88590  1.0000
  O   O104      1.0  0.72402  0.49486  0.11410  1.0000
  O   O105      1.0  0.88590  0.27598  0.49486  1.0000
  O   O106      1.0  0.11410  0.27598  0.50514  1.0000
  O   O107      1.0  0.88590  0.72402  0.50514  1.0000
  O   O108      1.0  0.11410  0.72402  0.49486  1.0000
  O   O109      1.0  0.99486  0.38590  0.77598  1.0000
  O   O110      1.0  0.00514  0.61410  0.77598  1.0000
  O   O111      1.0  0.00514  0.38590  0.22402  1.0000
  O   O112      1.0  0.99486  0.61410  0.22402  1.0000
  O   O113      1.0  0.77598  0.99486  0.38590  1.0000
  O   O114      1.0  0.77598  0.00514  0.61410  1.0000
  O   O115      1.0  0.22402  0.00514  0.38590  1.0000
  O   O116      1.0  0.22402  0.99486  0.61410  1.0000
  O   O117      1.0  0.38590  0.77598  0.99486  1.0000
  O   O118      1.0  0.61410  0.77598  0.00514  1.0000
  O   O119      1.0  0.38590  0.22402  0.00514  1.0000
  O   O120      1.0  0.61410  0.22402  0.99486  1.0000
  O   O121      1.0  0.32698  0.94331  0.42197  1.0000
  O   O122      1.0  0.67302  0.05669  0.42197  1.0000
  O   O123      1.0  0.67302  0.94331  0.57803  1.0000
  O   O124      1.0  0.32698  0.05669  0.57803  1.0000
  O   O125      1.0  0.42197  0.32698  0.94331  1.0000
  O   O126      1.0  0.42197  0.67302  0.05669  1.0000
  O   O127      1.0  0.57803  0.67302  0.94331  1.0000
  O   O128      1.0  0.57803  0.32698  0.05669  1.0000
  O   O129      1.0  0.94331  0.42197  0.32698  1.0000
  O   O130      1.0  0.05669  0.42197  0.67302  1.0000
  O   O131      1.0  0.94331  0.57803  0.67302  1.0000
  O   O132      1.0  0.05669  0.57803  0.32698  1.0000
  O   O133      1.0  0.82698  0.44331  0.92197  1.0000
  O   O134      1.0  0.17302  0.55669  0.92197  1.0000
  O   O135      1.0  0.17302  0.44331  0.07803  1.0000
  O   O136      1.0  0.82698  0.55669  0.07803  1.0000
  O   O137      1.0  0.92197  0.82698  0.44331  1.0000
  O   O138      1.0  0.92197  0.17302  0.55669  1.0000
  O   O139      1.0  0.07803  0.17302  0.44331  1.0000
  O   O140      1.0  0.07803  0.82698  0.55669  1.0000
  O   O141      1.0  0.44331  0.92197  0.82698  1.0000
  O   O142      1.0  0.55669  0.92197  0.17302  1.0000
  O   O143      1.0  0.44331  0.07803  0.17302  1.0000
  O   O144      1.0  0.55669  0.07803  0.82698  1.0000
  O   O145      1.0  0.47790  0.81023  0.26083  1.0000
  O   O146      1.0  0.52210  0.18977  0.26083  1.0000
  O   O147      1.0  0.52210  0.81023  0.73917  1.0000
  O   O148      1.0  0.47790  0.18977  0.73917  1.0000
  O   O149      1.0  0.26083  0.47790  0.81023  1.0000
  O   O150      1.0  0.26083  0.52210  0.18977  1.0000
  O   O151      1.0  0.73917  0.52210  0.81023  1.0000
  O   O152      1.0  0.73917  0.47790  0.18977  1.0000
  O   O153      1.0  0.81023  0.26083  0.47790  1.0000
  O   O154      1.0  0.18977  0.26083  0.52210  1.0000
  O   O155      1.0  0.81023  0.73917  0.52210  1.0000
  O   O156      1.0  0.18977  0.73917  0.47790  1.0000
  O   O157      1.0  0.97790  0.31023  0.76083  1.0000
  O   O158      1.0  0.02210  0.68977  0.76083  1.0000
  O   O159      1.0  0.02210  0.31023  0.23917  1.0000
  O   O160      1.0  0.97790  0.68977  0.23917  1.0000
  O   O161      1.0  0.76083  0.97790  0.31023  1.0000
  O   O162      1.0  0.76083  0.02210  0.68977  1.0000
  O   O163      1.0  0.23917  0.02210  0.31023  1.0000
  O   O164      1.0  0.23917  0.97790  0.68977  1.0000
  O   O165      1.0  0.31023  0.76083  0.97790  1.0000
  O   O166      1.0  0.68977  0.76083  0.02210  1.0000
  O   O167      1.0  0.31023  0.23917  0.02210  1.0000
  O   O168      1.0  0.68977  0.23917  0.97790  1.0000
  C   C1        1.0  0.28405  0.91778  0.53796  1.0000
  C   C2        1.0  0.71595  0.08222  0.53796  1.0000
  C   C3        1.0  0.71595  0.91778  0.46204  1.0000
  C   C4        1.0  0.28405  0.08222  0.46204  1.0000
  C   C5        1.0  0.53796  0.28405  0.91778  1.0000
  C   C6        1.0  0.53796  0.71595  0.08222  1.0000
  C   C7        1.0  0.46204  0.71595  0.91778  1.0000
  C   C8        1.0  0.46204  0.28405  0.08222  1.0000
  C   C9        1.0  0.91778  0.53796  0.28405  1.0000
  C   C10       1.0  0.08222  0.53796  0.71595  1.0000
  C   C11       1.0  0.91778  0.46204  0.71595  1.0000
  C   C12       1.0  0.08222  0.46204  0.28405  1.0000
  C   C13       1.0  0.78405  0.41778  0.03796  1.0000
  C   C14       1.0  0.21595  0.58222  0.03796  1.0000
  C   C15       1.0  0.21595  0.41778  0.96204  1.0000
  C   C16       1.0  0.78405  0.58222  0.96204  1.0000
  C   C17       1.0  0.03796  0.78405  0.41778  1.0000
  C   C18       1.0  0.03796  0.21595  0.58222  1.0000
  C   C19       1.0  0.96204  0.21595  0.41778  1.0000
  C   C20       1.0  0.96204  0.78405  0.58222  1.0000
  C   C21       1.0  0.41778  0.03796  0.78405  1.0000
  C   C22       1.0  0.58222  0.03796  0.21595  1.0000
  C   C23       1.0  0.41778  0.96204  0.21595  1.0000
  C   C24       1.0  0.58222  0.96204  0.78405  1.0000
  C   C25       1.0  0.42449  0.85304  0.31150  1.0000
  C   C26       1.0  0.57551  0.14696  0.31150  1.0000
  C   C27       1.0  0.57551  0.85304  0.68850  1.0000
  C   C28       1.0  0.42449  0.14696  0.68850  1.0000
  C   C29       1.0  0.31150  0.42449  0.85304  1.0000
  C   C30       1.0  0.31150  0.57551  0.14696  1.0000
  C   C31       1.0  0.68850  0.57551  0.85304  1.0000
  C   C32       1.0  0.68850  0.42449  0.14696  1.0000
  C   C33       1.0  0.85304  0.31150  0.42449  1.0000
  C   C34       1.0  0.14696  0.31150  0.57551  1.0000
  C   C35       1.0  0.85304  0.68850  0.57551  1.0000
  C   C36       1.0  0.14696  0.68850  0.42449  1.0000
  C   C37       1.0  0.92449  0.35304  0.81150  1.0000
  C   C38       1.0  0.07551  0.64696  0.81150  1.0000
  C   C39       1.0  0.07551  0.35304  0.18850  1.0000
  C   C40       1.0  0.92449  0.64696  0.18850  1.0000
  C   C41       1.0  0.81150  0.92449  0.35304  1.0000
  C   C42       1.0  0.81150  0.07551  0.64696  1.0000
  C   C43       1.0  0.18850  0.07551  0.35304  1.0000
  C   C44       1.0  0.18850  0.92449  0.64696  1.0000
  C   C45       1.0  0.35304  0.81150  0.92449  1.0000
  C   C46       1.0  0.64696  0.81150  0.07551  1.0000
  C   C47       1.0  0.35304  0.18850  0.07551  1.0000
  C   C48       1.0  0.64696  0.18850  0.92449  1.0000
  C   C49       1.0  0.38633  0.91297  0.68895  1.0000
  C   C50       1.0  0.61367  0.08703  0.68895  1.0000
  C   C51       1.0  0.61367  0.91297  0.31105  1.0000
  C   C52       1.0  0.38633  0.08703  0.31105  1.0000
  C   C53       1.0  0.68895  0.38633  0.91297  1.0000
  C   C54       1.0  0.68895  0.61367  0.08703  1.0000
  C   C55       1.0  0.31105  0.61367  0.91297  1.0000
  C   C56       1.0  0.31105  0.38633  0.08703  1.0000
  C   C57       1.0  0.91297  0.68895  0.38633  1.0000
  C   C58       1.0  0.08703  0.68895  0.61367  1.0000
  C   C59       1.0  0.91297  0.31105  0.61367  1.0000
  C   C60       1.0  0.08703  0.31105  0.38633  1.0000
  C   C61       1.0  0.88633  0.41297  0.18895  1.0000
  C   C62       1.0  0.11367  0.58703  0.18895  1.0000
  C   C63       1.0  0.11367  0.41297  0.81105  1.0000
  C   C64       1.0  0.88633  0.58703  0.81105  1.0000
  C   C65       1.0  0.18895  0.88633  0.41297  1.0000
  C   C66       1.0  0.18895  0.11367  0.58703  1.0000
  C   C67       1.0  0.81105  0.11367  0.41297  1.0000
  C   C68       1.0  0.81105  0.88633  0.58703  1.0000
  C   C69       1.0  0.41297  0.18895  0.88633  1.0000
  C   C70       1.0  0.58703  0.18895  0.11367  1.0000
  C   C71       1.0  0.41297  0.81105  0.11367  1.0000
  C   C72       1.0  0.58703  0.81105  0.88633  1.0000
  N   N1        1.0  0.33303  0.73370  0.28216  1.0000
  N   N2        1.0  0.66697  0.26630  0.28216  1.0000
  N   N3        1.0  0.66697  0.73370  0.71784  1.0000
  N   N4        1.0  0.33303  0.26630  0.71784  1.0000
  N   N5        1.0  0.28216  0.33303  0.73370  1.0000
  N   N6        1.0  0.28216  0.66697  0.26630  1.0000
  N   N7        1.0  0.71784  0.66697  0.73370  1.0000
  N   N8        1.0  0.71784  0.33303  0.26630  1.0000
  N   N9        1.0  0.73370  0.28216  0.33303  1.0000
  N   N10       1.0  0.26630  0.28216  0.66697  1.0000
  N   N11       1.0  0.73370  0.71784  0.66697  1.0000
  N   N12       1.0  0.26630  0.71784  0.33303  1.0000
  N   N13       1.0  0.83303  0.23370  0.78216  1.0000
  N   N14       1.0  0.16697  0.76630  0.78216  1.0000
  N   N15       1.0  0.16697  0.23370  0.21784  1.0000
  N   N16       1.0  0.83303  0.76630  0.21784  1.0000
  N   N17       1.0  0.78216  0.83303  0.23370  1.0000
  N   N18       1.0  0.78216  0.16697  0.76630  1.0000
  N   N19       1.0  0.21784  0.16697  0.23370  1.0000
  N   N20       1.0  0.21784  0.83303  0.76630  1.0000
  N   N21       1.0  0.23370  0.78216  0.83303  1.0000
  N   N22       1.0  0.76630  0.78216  0.16697  1.0000
  N   N23       1.0  0.23370  0.21784  0.16697  1.0000
  N   N24       1.0  0.76630  0.21784  0.83303  1.0000
  O   O169      1.0  0.20275  0.00000  0.50000  1.0000
  O   O170      1.0  0.79725  0.00000  0.50000  1.0000
  O   O171      1.0  0.50000  0.20275  0.00000  1.0000
  O   O172      1.0  0.50000  0.79725  0.00000  1.0000
  O   O173      1.0  0.00000  0.50000  0.20275  1.0000
  O   O174      1.0  0.00000  0.50000  0.79725  1.0000
  O   O175      1.0  0.70275  0.50000  0.00000  1.0000
  O   O176      1.0  0.29725  0.50000  0.00000  1.0000
  O   O177      1.0  0.00000  0.70275  0.50000  1.0000
  O   O178      1.0  0.00000  0.29725  0.50000  1.0000
  O   O179      1.0  0.50000  0.00000  0.70275  1.0000
  O   O180      1.0  0.50000  0.00000  0.29725  1.0000
  O   O181      1.0  0.39972  0.97010  0.40680  1.0000
  O   O182      1.0  0.60028  0.02990  0.40680  1.0000
  O   O183      1.0  0.60028  0.97010  0.59320  1.0000
  O   O184      1.0  0.39972  0.02990  0.59320  1.0000
  O   O185      1.0  0.40680  0.39972  0.97010  1.0000
  O   O186      1.0  0.40680  0.60028  0.02990  1.0000
  O   O187      1.0  0.59320  0.60028  0.97010  1.0000
  O   O188      1.0  0.59320  0.39972  0.02990  1.0000
  O   O189      1.0  0.97010  0.40680  0.39972  1.0000
  O   O190      1.0  0.02990  0.40680  0.60028  1.0000
  O   O191      1.0  0.97010  0.59320  0.60028  1.0000
  O   O192      1.0  0.02990  0.59320  0.39972  1.0000
  O   O193      1.0  0.89972  0.47010  0.90680  1.0000
  O   O194      1.0  0.10028  0.52990  0.90680  1.0000
  O   O195      1.0  0.10028  0.47010  0.09320  1.0000
  O   O196      1.0  0.89972  0.52990  0.09320  1.0000
  O   O197      1.0  0.90680  0.89972  0.47010  1.0000
  O   O198      1.0  0.90680  0.10028  0.52990  1.0000
  O   O199      1.0  0.09320  0.10028  0.47010  1.0000
  O   O200      1.0  0.09320  0.89972  0.52990  1.0000
  O   O201      1.0  0.47010  0.90680  0.89972  1.0000
  O   O202      1.0  0.52990  0.90680  0.10028  1.0000
  O   O203      1.0  0.47010  0.09320  0.10028  1.0000
  O   O204      1.0  0.52990  0.09320  0.89972  1.0000
  C   C73       1.0  0.39155  0.81606  0.31330  1.0000
  C   C74       1.0  0.60845  0.18394  0.31330  1.0000
  C   C75       1.0  0.60845  0.81606  0.68670  1.0000
  C   C76       1.0  0.39155  0.18394  0.68670  1.0000
  C   C77       1.0  0.31330  0.39155  0.81606  1.0000
  C   C78       1.0  0.31330  0.60845  0.18394  1.0000
  C   C79       1.0  0.68670  0.60845  0.81606  1.0000
  C   C80       1.0  0.68670  0.39155  0.18394  1.0000
  C   C81       1.0  0.81606  0.31330  0.39155  1.0000
  C   C82       1.0  0.18394  0.31330  0.60845  1.0000
  C   C83       1.0  0.81606  0.68670  0.60845  1.0000
  C   C84       1.0  0.18394  0.68670  0.39155  1.0000
  C   C85       1.0  0.89155  0.31606  0.81330  1.0000
  C   C86       1.0  0.10845  0.68394  0.81330  1.0000
  C   C87       1.0  0.10845  0.31606  0.18670  1.0000
  C   C88       1.0  0.89155  0.68394  0.18670  1.0000
  C   C89       1.0  0.81330  0.89155  0.31606  1.0000
  C   C90       1.0  0.81330  0.10845  0.68394  1.0000
  C   C91       1.0  0.18670  0.10845  0.31606  1.0000
  C   C92       1.0  0.18670  0.89155  0.68394  1.0000
  C   C93       1.0  0.31606  0.81330  0.89155  1.0000
  C   C94       1.0  0.68394  0.81330  0.10845  1.0000
  C   C95       1.0  0.31606  0.18670  0.10845  1.0000
  C   C96       1.0  0.68394  0.18670  0.89155  1.0000
  H   H1        1.0  0.39623  0.78886  0.29414  1.0000
  H   H2        1.0  0.60377  0.21114  0.29414  1.0000
  H   H3        1.0  0.60377  0.78886  0.70586  1.0000
  H   H4        1.0  0.39623  0.21114  0.70586  1.0000
  H   H5        1.0  0.29414  0.39623  0.78886  1.0000
  H   H6        1.0  0.29414  0.60377  0.21114  1.0000
  H   H7        1.0  0.70586  0.60377  0.78886  1.0000
  H   H8        1.0  0.70586  0.39623  0.21114  1.0000
  H   H9        1.0  0.78886  0.29414  0.39623  1.0000
  H   H10       1.0  0.21114  0.29414  0.60377  1.0000
  H   H11       1.0  0.78886  0.70586  0.60377  1.0000
  H   H12       1.0  0.21114  0.70586  0.39623  1.0000
  H   H13       1.0  0.89623  0.28886  0.79414  1.0000
  H   H14       1.0  0.10377  0.71114  0.79414  1.0000
  H   H15       1.0  0.10377  0.28886  0.20586  1.0000
  H   H16       1.0  0.89623  0.71114  0.20586  1.0000
  H   H17       1.0  0.79414  0.89623  0.28886  1.0000
  H   H18       1.0  0.79414  0.10377  0.71114  1.0000
  H   H19       1.0  0.20586  0.10377  0.28886  1.0000
  H   H20       1.0  0.20586  0.89623  0.71114  1.0000
  H   H21       1.0  0.28886  0.79414  0.89623  1.0000
  H   H22       1.0  0.71114  0.79414  0.10377  1.0000
  H   H23       1.0  0.28886  0.20586  0.10377  1.0000
  H   H24       1.0  0.71114  0.20586  0.89623  1.0000
  C   C97       1.0  0.30610  0.74230  0.31900  1.0000
  C   C98       1.0  0.69390  0.25770  0.31900  1.0000
  C   C99       1.0  0.69390  0.74230  0.68100  1.0000
  C   C100      1.0  0.30610  0.25770  0.68100  1.0000
  C   C101      1.0  0.31900  0.30610  0.74230  1.0000
  C   C102      1.0  0.31900  0.69390  0.25770  1.0000
  C   C103      1.0  0.68100  0.69390  0.74230  1.0000
  C   C104      1.0  0.68100  0.30610  0.25770  1.0000
  C   C105      1.0  0.74230  0.31900  0.30610  1.0000
  C   C106      1.0  0.25770  0.31900  0.69390  1.0000
  C   C107      1.0  0.74230  0.68100  0.69390  1.0000
  C   C108      1.0  0.25770  0.68100  0.30610  1.0000
  C   C109      1.0  0.80610  0.24230  0.81900  1.0000
  C   C110      1.0  0.19390  0.75770  0.81900  1.0000
  C   C111      1.0  0.19390  0.24230  0.18100  1.0000
  C   C112      1.0  0.80610  0.75770  0.18100  1.0000
  C   C113      1.0  0.81900  0.80610  0.24230  1.0000
  C   C114      1.0  0.81900  0.19390  0.75770  1.0000
  C   C115      1.0  0.18100  0.19390  0.24230  1.0000
  C   C116      1.0  0.18100  0.80610  0.75770  1.0000
  C   C117      1.0  0.24230  0.81900  0.80610  1.0000
  C   C118      1.0  0.75770  0.81900  0.19390  1.0000
  C   C119      1.0  0.24230  0.18100  0.19390  1.0000
  C   C120      1.0  0.75770  0.18100  0.80610  1.0000
  N   N25       1.0  0.31511  0.78211  0.34791  1.0000
  N   N26       1.0  0.68489  0.21789  0.34791  1.0000
  N   N27       1.0  0.68489  0.78211  0.65209  1.0000
  N   N28       1.0  0.31511  0.21789  0.65209  1.0000
  N   N29       1.0  0.34791  0.31511  0.78211  1.0000
  N   N30       1.0  0.34791  0.68489  0.21789  1.0000
  N   N31       1.0  0.65209  0.68489  0.78211  1.0000
  N   N32       1.0  0.65209  0.31511  0.21789  1.0000
  N   N33       1.0  0.78211  0.34791  0.31511  1.0000
  N   N34       1.0  0.21789  0.34791  0.68489  1.0000
  N   N35       1.0  0.78211  0.65209  0.68489  1.0000
  N   N36       1.0  0.21789  0.65209  0.31511  1.0000
  N   N37       1.0  0.81511  0.28211  0.84791  1.0000
  N   N38       1.0  0.18489  0.71789  0.84791  1.0000
  N   N39       1.0  0.18489  0.28211  0.15209  1.0000
  N   N40       1.0  0.81511  0.71789  0.15209  1.0000
  N   N41       1.0  0.84791  0.81511  0.28211  1.0000
  N   N42       1.0  0.84791  0.18489  0.71789  1.0000
  N   N43       1.0  0.15209  0.18489  0.28211  1.0000
  N   N44       1.0  0.15209  0.81511  0.71789  1.0000
  N   N45       1.0  0.28211  0.84791  0.81511  1.0000
  N   N46       1.0  0.71789  0.84791  0.18489  1.0000
  N   N47       1.0  0.28211  0.15209  0.18489  1.0000
  N   N48       1.0  0.71789  0.15209  0.81511  1.0000
  H   H25       1.0  0.29616  0.78516  0.37231  1.0000
  H   H26       1.0  0.70384  0.21484  0.37231  1.0000
  H   H27       1.0  0.70384  0.78516  0.62769  1.0000
  H   H28       1.0  0.29616  0.21484  0.62769  1.0000
  H   H29       1.0  0.37231  0.29616  0.78516  1.0000
  H   H30       1.0  0.37231  0.70384  0.21484  1.0000
  H   H31       1.0  0.62769  0.70384  0.78516  1.0000
  H   H32       1.0  0.62769  0.29616  0.21484  1.0000
  H   H33       1.0  0.78516  0.37231  0.29616  1.0000
  H   H34       1.0  0.21484  0.37231  0.70384  1.0000
  H   H35       1.0  0.78516  0.62769  0.70384  1.0000
  H   H36       1.0  0.21484  0.62769  0.29616  1.0000
  H   H37       1.0  0.79616  0.28516  0.87231  1.0000
  H   H38       1.0  0.20384  0.71484  0.87231  1.0000
  H   H39       1.0  0.20384  0.28516  0.12769  1.0000
  H   H40       1.0  0.79616  0.71484  0.12769  1.0000
  H   H41       1.0  0.87231  0.79616  0.28516  1.0000
  H   H42       1.0  0.87231  0.20384  0.71484  1.0000
  H   H43       1.0  0.12769  0.20384  0.28516  1.0000
  H   H44       1.0  0.12769  0.79616  0.71484  1.0000
  H   H45       1.0  0.28516  0.87231  0.79616  1.0000
  H   H46       1.0  0.71484  0.87231  0.20384  1.0000
  H   H47       1.0  0.28516  0.12769  0.20384  1.0000
  H   H48       1.0  0.71484  0.12769  0.79616  1.0000
  C   C121      1.0  0.41610  0.89454  0.33890  1.0000
  C   C122      1.0  0.58390  0.10546  0.33890  1.0000
  C   C123      1.0  0.58390  0.89454  0.66110  1.0000
  C   C124      1.0  0.41610  0.10546  0.66110  1.0000
  C   C125      1.0  0.33890  0.41610  0.89454  1.0000
  C   C126      1.0  0.33890  0.58390  0.10546  1.0000
  C   C127      1.0  0.66110  0.58390  0.89454  1.0000
  C   C128      1.0  0.66110  0.41610  0.10546  1.0000
  C   C129      1.0  0.89454  0.33890  0.41610  1.0000
  C   C130      1.0  0.10546  0.33890  0.58390  1.0000
  C   C131      1.0  0.89454  0.66110  0.58390  1.0000
  C   C132      1.0  0.10546  0.66110  0.41610  1.0000
  C   C133      1.0  0.91610  0.39454  0.83890  1.0000
  C   C134      1.0  0.08390  0.60546  0.83890  1.0000
  C   C135      1.0  0.08390  0.39454  0.16110  1.0000
  C   C136      1.0  0.91610  0.60546  0.16110  1.0000
  C   C137      1.0  0.83890  0.91610  0.39454  1.0000
  C   C138      1.0  0.83890  0.08390  0.60546  1.0000
  C   C139      1.0  0.16110  0.08390  0.39454  1.0000
  C   C140      1.0  0.16110  0.91610  0.60546  1.0000
  C   C141      1.0  0.39454  0.83890  0.91610  1.0000
  C   C142      1.0  0.60546  0.83890  0.08390  1.0000
  C   C143      1.0  0.39454  0.16110  0.08390  1.0000
  C   C144      1.0  0.60546  0.16110  0.91610  1.0000
  H   H49       1.0  0.43754  0.92028  0.33718  1.0000
  H   H50       1.0  0.56246  0.07972  0.33718  1.0000
  H   H51       1.0  0.56246  0.92028  0.66282  1.0000
  H   H52       1.0  0.43754  0.07972  0.66282  1.0000
  H   H53       1.0  0.33718  0.43754  0.92028  1.0000
  H   H54       1.0  0.33718  0.56246  0.07972  1.0000
  H   H55       1.0  0.66282  0.56246  0.92028  1.0000
  H   H56       1.0  0.66282  0.43754  0.07972  1.0000
  H   H57       1.0  0.92028  0.33718  0.43754  1.0000
  H   H58       1.0  0.07972  0.33718  0.56246  1.0000
  H   H59       1.0  0.92028  0.66282  0.56246  1.0000
  H   H60       1.0  0.07972  0.66282  0.43754  1.0000
  H   H61       1.0  0.93754  0.42028  0.83718  1.0000
  H   H62       1.0  0.06246  0.57972  0.83718  1.0000
  H   H63       1.0  0.06246  0.42028  0.16282  1.0000
  H   H64       1.0  0.93754  0.57972  0.16282  1.0000
  H   H65       1.0  0.83718  0.93754  0.42028  1.0000
  H   H66       1.0  0.83718  0.06246  0.57972  1.0000
  H   H67       1.0  0.16282  0.06246  0.42028  1.0000
  H   H68       1.0  0.16282  0.93754  0.57972  1.0000
  H   H69       1.0  0.42028  0.83718  0.93754  1.0000
  H   H70       1.0  0.57972  0.83718  0.06246  1.0000
  H   H71       1.0  0.42028  0.16282  0.06246  1.0000
  H   H72       1.0  0.57972  0.16282  0.93754  1.0000
  C   C145      1.0  0.37559  0.89774  0.36900  1.0000
  C   C146      1.0  0.62441  0.10226  0.36900  1.0000
  C   C147      1.0  0.62441  0.89774  0.63100  1.0000
  C   C148      1.0  0.37559  0.10226  0.63100  1.0000
  C   C149      1.0  0.36900  0.37559  0.89774  1.0000
  C   C150      1.0  0.36900  0.62441  0.10226  1.0000
  C   C151      1.0  0.63100  0.62441  0.89774  1.0000
  C   C152      1.0  0.63100  0.37559  0.10226  1.0000
  C   C153      1.0  0.89774  0.36900  0.37559  1.0000
  C   C154      1.0  0.10226  0.36900  0.62441  1.0000
  C   C155      1.0  0.89774  0.63100  0.62441  1.0000
  C   C156      1.0  0.10226  0.63100  0.37559  1.0000
  C   C157      1.0  0.87559  0.39774  0.86900  1.0000
  C   C158      1.0  0.12441  0.60226  0.86900  1.0000
  C   C159      1.0  0.12441  0.39774  0.13100  1.0000
  C   C160      1.0  0.87559  0.60226  0.13100  1.0000
  C   C161      1.0  0.86900  0.87559  0.39774  1.0000
  C   C162      1.0  0.86900  0.12441  0.60226  1.0000
  C   C163      1.0  0.13100  0.12441  0.39774  1.0000
  C   C164      1.0  0.13100  0.87559  0.60226  1.0000
  C   C165      1.0  0.39774  0.86900  0.87559  1.0000
  C   C166      1.0  0.60226  0.86900  0.12441  1.0000
  C   C167      1.0  0.39774  0.13100  0.12441  1.0000
  C   C168      1.0  0.60226  0.13100  0.87559  1.0000
  C   C169      1.0  0.35081  0.81860  0.34352  1.0000
  C   C170      1.0  0.64919  0.18140  0.34352  1.0000
  C   C171      1.0  0.64919  0.81860  0.65648  1.0000
  C   C172      1.0  0.35081  0.18140  0.65648  1.0000
  C   C173      1.0  0.34352  0.35081  0.81860  1.0000
  C   C174      1.0  0.34352  0.64919  0.18140  1.0000
  C   C175      1.0  0.65648  0.64919  0.81860  1.0000
  C   C176      1.0  0.65648  0.35081  0.18140  1.0000
  C   C177      1.0  0.81860  0.34352  0.35081  1.0000
  C   C178      1.0  0.18140  0.34352  0.64919  1.0000
  C   C179      1.0  0.81860  0.65648  0.64919  1.0000
  C   C180      1.0  0.18140  0.65648  0.35081  1.0000
  C   C181      1.0  0.85081  0.31860  0.84352  1.0000
  C   C182      1.0  0.14919  0.68140  0.84352  1.0000
  C   C183      1.0  0.14919  0.31860  0.15648  1.0000
  C   C184      1.0  0.85081  0.68140  0.15648  1.0000
  C   C185      1.0  0.84352  0.85081  0.31860  1.0000
  C   C186      1.0  0.84352  0.14919  0.68140  1.0000
  C   C187      1.0  0.15648  0.14919  0.31860  1.0000
  C   C188      1.0  0.15648  0.85081  0.68140  1.0000
  C   C189      1.0  0.31860  0.84352  0.85081  1.0000
  C   C190      1.0  0.68140  0.84352  0.14919  1.0000
  C   C191      1.0  0.31860  0.15648  0.14919  1.0000
  C   C192      1.0  0.68140  0.15648  0.85081  1.0000
  C   C193      1.0  0.34320  0.85870  0.37130  1.0000
  C   C194      1.0  0.65680  0.14130  0.37130  1.0000
  C   C195      1.0  0.65680  0.85870  0.62870  1.0000
  C   C196      1.0  0.34320  0.14130  0.62870  1.0000
  C   C197      1.0  0.37130  0.34320  0.85870  1.0000
  C   C198      1.0  0.37130  0.65680  0.14130  1.0000
  C   C199      1.0  0.62870  0.65680  0.85870  1.0000
  C   C200      1.0  0.62870  0.34320  0.14130  1.0000
  C   C201      1.0  0.85870  0.37130  0.34320  1.0000
  C   C202      1.0  0.14130  0.37130  0.65680  1.0000
  C   C203      1.0  0.85870  0.62870  0.65680  1.0000
  C   C204      1.0  0.14130  0.62870  0.34320  1.0000
  C   C205      1.0  0.84320  0.35870  0.87130  1.0000
  C   C206      1.0  0.15680  0.64130  0.87130  1.0000
  C   C207      1.0  0.15680  0.35870  0.12870  1.0000
  C   C208      1.0  0.84320  0.64130  0.12870  1.0000
  C   C209      1.0  0.87130  0.84320  0.35870  1.0000
  C   C210      1.0  0.87130  0.15680  0.64130  1.0000
  C   C211      1.0  0.12870  0.15680  0.35870  1.0000
  C   C212      1.0  0.12870  0.84320  0.64130  1.0000
  C   C213      1.0  0.35870  0.87130  0.84320  1.0000
  C   C214      1.0  0.64130  0.87130  0.15680  1.0000
  C   C215      1.0  0.35870  0.12870  0.15680  1.0000
  C   C216      1.0  0.64130  0.12870  0.84320  1.0000
  H   H73       1.0  0.31664  0.86008  0.39180  1.0000
  H   H74       1.0  0.68336  0.13992  0.39180  1.0000
  H   H75       1.0  0.68336  0.86008  0.60820  1.0000
  H   H76       1.0  0.31664  0.13992  0.60820  1.0000
  H   H77       1.0  0.39180  0.31664  0.86008  1.0000
  H   H78       1.0  0.39180  0.68336  0.13992  1.0000
  H   H79       1.0  0.60820  0.68336  0.86008  1.0000
  H   H80       1.0  0.60820  0.31664  0.13992  1.0000
  H   H81       1.0  0.86008  0.39180  0.31664  1.0000
  H   H82       1.0  0.13992  0.39180  0.68336  1.0000
  H   H83       1.0  0.86008  0.60820  0.68336  1.0000
  H   H84       1.0  0.13992  0.60820  0.31664  1.0000
  H   H85       1.0  0.81664  0.36008  0.89180  1.0000
  H   H86       1.0  0.18336  0.63992  0.89180  1.0000
  H   H87       1.0  0.18336  0.36008  0.10820  1.0000
  H   H88       1.0  0.81664  0.63992  0.10820  1.0000
  H   H89       1.0  0.89180  0.81664  0.36008  1.0000
  H   H90       1.0  0.89180  0.18336  0.63992  1.0000
  H   H91       1.0  0.10820  0.18336  0.36008  1.0000
  H   H92       1.0  0.10820  0.81664  0.63992  1.0000
  H   H93       1.0  0.36008  0.89180  0.81664  1.0000
  H   H94       1.0  0.63992  0.89180  0.18336  1.0000
  H   H95       1.0  0.36008  0.10820  0.18336  1.0000
  H   H96       1.0  0.63992  0.10820  0.81664  1.0000
  C   C217      1.0  0.46840  0.84876  0.27970  1.0000
  C   C218      1.0  0.53160  0.15124  0.27970  1.0000
  C   C219      1.0  0.53160  0.84876  0.72030  1.0000
  C   C220      1.0  0.46840  0.15124  0.72030  1.0000
  C   C221      1.0  0.27970  0.46840  0.84876  1.0000
  C   C222      1.0  0.27970  0.53160  0.15124  1.0000
  C   C223      1.0  0.72030  0.53160  0.84876  1.0000
  C   C224      1.0  0.72030  0.46840  0.15124  1.0000
  C   C225      1.0  0.84876  0.27970  0.46840  1.0000
  C   C226      1.0  0.15124  0.27970  0.53160  1.0000
  C   C227      1.0  0.84876  0.72030  0.53160  1.0000
  C   C228      1.0  0.15124  0.72030  0.46840  1.0000
  C   C229      1.0  0.96840  0.34876  0.77970  1.0000
  C   C230      1.0  0.03160  0.65124  0.77970  1.0000
  C   C231      1.0  0.03160  0.34876  0.22030  1.0000
  C   C232      1.0  0.96840  0.65124  0.22030  1.0000
  C   C233      1.0  0.77970  0.96840  0.34876  1.0000
  C   C234      1.0  0.77970  0.03160  0.65124  1.0000
  C   C235      1.0  0.22030  0.03160  0.34876  1.0000
  C   C236      1.0  0.22030  0.96840  0.65124  1.0000
  C   C237      1.0  0.34876  0.77970  0.96840  1.0000
  C   C238      1.0  0.65124  0.77970  0.03160  1.0000
  C   C239      1.0  0.34876  0.22030  0.03160  1.0000
  C   C240      1.0  0.65124  0.22030  0.96840  1.0000
  C   C241      1.0  0.36690  0.94080  0.40060  1.0000
  C   C242      1.0  0.63310  0.05920  0.40060  1.0000
  C   C243      1.0  0.63310  0.94080  0.59940  1.0000
  C   C244      1.0  0.36690  0.05920  0.59940  1.0000
  C   C245      1.0  0.40060  0.36690  0.94080  1.0000
  C   C246      1.0  0.40060  0.63310  0.05920  1.0000
  C   C247      1.0  0.59940  0.63310  0.94080  1.0000
  C   C248      1.0  0.59940  0.36690  0.05920  1.0000
  C   C249      1.0  0.94080  0.40060  0.36690  1.0000
  C   C250      1.0  0.05920  0.40060  0.63310  1.0000
  C   C251      1.0  0.94080  0.59940  0.63310  1.0000
  C   C252      1.0  0.05920  0.59940  0.36690  1.0000
  C   C253      1.0  0.86690  0.44080  0.90060  1.0000
  C   C254      1.0  0.13310  0.55920  0.90060  1.0000
  C   C255      1.0  0.13310  0.44080  0.09940  1.0000
  C   C256      1.0  0.86690  0.55920  0.09940  1.0000
  C   C257      1.0  0.90060  0.86690  0.44080  1.0000
  C   C258      1.0  0.90060  0.13310  0.55920  1.0000
  C   C259      1.0  0.09940  0.13310  0.44080  1.0000
  C   C260      1.0  0.09940  0.86690  0.55920  1.0000
  C   C261      1.0  0.44080  0.90060  0.86690  1.0000
  C   C262      1.0  0.55920  0.90060  0.13310  1.0000
  C   C263      1.0  0.44080  0.09940  0.13310  1.0000
  C   C264      1.0  0.55920  0.09940  0.86690  1.0000
  N   N49       1.0  0.31009  0.75844  0.71870  1.0000
  N   N50       1.0  0.68991  0.24156  0.71870  1.0000
  N   N51       1.0  0.68991  0.75844  0.28130  1.0000
  N   N52       1.0  0.31009  0.24156  0.28130  1.0000
  N   N53       1.0  0.71870  0.31009  0.75844  1.0000
  N   N54       1.0  0.71870  0.68991  0.24156  1.0000
  N   N55       1.0  0.28130  0.68991  0.75844  1.0000
  N   N56       1.0  0.28130  0.31009  0.24156  1.0000
  N   N57       1.0  0.75844  0.71870  0.31009  1.0000
  N   N58       1.0  0.24156  0.71870  0.68991  1.0000
  N   N59       1.0  0.75844  0.28130  0.68991  1.0000
  N   N60       1.0  0.24156  0.28130  0.31009  1.0000
  N   N61       1.0  0.81009  0.25844  0.21870  1.0000
  N   N62       1.0  0.18991  0.74156  0.21870  1.0000
  N   N63       1.0  0.18991  0.25844  0.78130  1.0000
  N   N64       1.0  0.81009  0.74156  0.78130  1.0000
  N   N65       1.0  0.21870  0.81009  0.25844  1.0000
  N   N66       1.0  0.21870  0.18991  0.74156  1.0000
  N   N67       1.0  0.78130  0.18991  0.25844  1.0000
  N   N68       1.0  0.78130  0.81009  0.74156  1.0000
  N   N69       1.0  0.25844  0.21870  0.81009  1.0000
  N   N70       1.0  0.74156  0.21870  0.18991  1.0000
  N   N71       1.0  0.25844  0.78130  0.18991  1.0000
  N   N72       1.0  0.74156  0.78130  0.81009  1.0000
  C   C265      1.0  0.27338  0.75486  0.68896  1.0000
  C   C266      1.0  0.72662  0.24514  0.68896  1.0000
  C   C267      1.0  0.72662  0.75486  0.31104  1.0000
  C   C268      1.0  0.27338  0.24514  0.31104  1.0000
  C   C269      1.0  0.68896  0.27338  0.75486  1.0000
  C   C270      1.0  0.68896  0.72662  0.24514  1.0000
  C   C271      1.0  0.31104  0.72662  0.75486  1.0000
  C   C272      1.0  0.31104  0.27338  0.24514  1.0000
  C   C273      1.0  0.75486  0.68896  0.27338  1.0000
  C   C274      1.0  0.24514  0.68896  0.72662  1.0000
  C   C275      1.0  0.75486  0.31104  0.72662  1.0000
  C   C276      1.0  0.24514  0.31104  0.27338  1.0000
  C   C277      1.0  0.77338  0.25486  0.18896  1.0000
  C   C278      1.0  0.22662  0.74514  0.18896  1.0000
  C   C279      1.0  0.22662  0.25486  0.81104  1.0000
  C   C280      1.0  0.77338  0.74514  0.81104  1.0000
  C   C281      1.0  0.18896  0.77338  0.25486  1.0000
  C   C282      1.0  0.18896  0.22662  0.74514  1.0000
  C   C283      1.0  0.81104  0.22662  0.25486  1.0000
  C   C284      1.0  0.81104  0.77338  0.74514  1.0000
  C   C285      1.0  0.25486  0.18896  0.77338  1.0000
  C   C286      1.0  0.74514  0.18896  0.22662  1.0000
  C   C287      1.0  0.25486  0.81104  0.22662  1.0000
  C   C288      1.0  0.74514  0.81104  0.77338  1.0000
  N   N73       1.0  0.26680  0.78584  0.65252  1.0000
  N   N74       1.0  0.73320  0.21416  0.65252  1.0000
  N   N75       1.0  0.73320  0.78584  0.34748  1.0000
  N   N76       1.0  0.26680  0.21416  0.34748  1.0000
  N   N77       1.0  0.65252  0.26680  0.78584  1.0000
  N   N78       1.0  0.65252  0.73320  0.21416  1.0000
  N   N79       1.0  0.34748  0.73320  0.78584  1.0000
  N   N80       1.0  0.34748  0.26680  0.21416  1.0000
  N   N81       1.0  0.78584  0.65252  0.26680  1.0000
  N   N82       1.0  0.21416  0.65252  0.73320  1.0000
  N   N83       1.0  0.78584  0.34748  0.73320  1.0000
  N   N84       1.0  0.21416  0.34748  0.26680  1.0000
  N   N85       1.0  0.76680  0.28584  0.15252  1.0000
  N   N86       1.0  0.23320  0.71416  0.15252  1.0000
  N   N87       1.0  0.23320  0.28584  0.84748  1.0000
  N   N88       1.0  0.76680  0.71416  0.84748  1.0000
  N   N89       1.0  0.15252  0.76680  0.28584  1.0000
  N   N90       1.0  0.15252  0.23320  0.71416  1.0000
  N   N91       1.0  0.84748  0.23320  0.28584  1.0000
  N   N92       1.0  0.84748  0.76680  0.71416  1.0000
  N   N93       1.0  0.28584  0.15252  0.76680  1.0000
  N   N94       1.0  0.71416  0.15252  0.23320  1.0000
  N   N95       1.0  0.28584  0.84748  0.23320  1.0000
  N   N96       1.0  0.71416  0.84748  0.76680  1.0000
  H   H97       1.0  0.24449  0.77783  0.63248  1.0000
  H   H98       1.0  0.75551  0.22217  0.63248  1.0000
  H   H99       1.0  0.75551  0.77783  0.36752  1.0000
  H   H100      1.0  0.24449  0.22217  0.36752  1.0000
  H   H101      1.0  0.63248  0.24449  0.77783  1.0000
  H   H102      1.0  0.63248  0.75551  0.22217  1.0000
  H   H103      1.0  0.36752  0.75551  0.77783  1.0000
  H   H104      1.0  0.36752  0.24449  0.22217  1.0000
  H   H105      1.0  0.77783  0.63248  0.24449  1.0000
  H   H106      1.0  0.22217  0.63248  0.75551  1.0000
  H   H107      1.0  0.77783  0.36752  0.75551  1.0000
  H   H108      1.0  0.22217  0.36752  0.24449  1.0000
  H   H109      1.0  0.74449  0.27783  0.13248  1.0000
  H   H110      1.0  0.25551  0.72217  0.13248  1.0000
  H   H111      1.0  0.25551  0.27783  0.86752  1.0000
  H   H112      1.0  0.74449  0.72217  0.86752  1.0000
  H   H113      1.0  0.13248  0.74449  0.27783  1.0000
  H   H114      1.0  0.13248  0.25551  0.72217  1.0000
  H   H115      1.0  0.86752  0.25551  0.27783  1.0000
  H   H116      1.0  0.86752  0.74449  0.72217  1.0000
  H   H117      1.0  0.27783  0.13248  0.74449  1.0000
  H   H118      1.0  0.72217  0.13248  0.25551  1.0000
  H   H119      1.0  0.27783  0.86752  0.25551  1.0000
  H   H120      1.0  0.72217  0.86752  0.74449  1.0000
  C   C289      1.0  0.33470  0.91651  0.61411  1.0000
  C   C290      1.0  0.66530  0.08349  0.61411  1.0000
  C   C291      1.0  0.66530  0.91651  0.38589  1.0000
  C   C292      1.0  0.33470  0.08349  0.38589  1.0000
  C   C293      1.0  0.61411  0.33470  0.91651  1.0000
  C   C294      1.0  0.61411  0.66530  0.08349  1.0000
  C   C295      1.0  0.38589  0.66530  0.91651  1.0000
  C   C296      1.0  0.38589  0.33470  0.08349  1.0000
  C   C297      1.0  0.91651  0.61411  0.33470  1.0000
  C   C298      1.0  0.08349  0.61411  0.66530  1.0000
  C   C299      1.0  0.91651  0.38589  0.66530  1.0000
  C   C300      1.0  0.08349  0.38589  0.33470  1.0000
  C   C301      1.0  0.83470  0.41651  0.11411  1.0000
  C   C302      1.0  0.16530  0.58349  0.11411  1.0000
  C   C303      1.0  0.16530  0.41651  0.88589  1.0000
  C   C304      1.0  0.83470  0.58349  0.88589  1.0000
  C   C305      1.0  0.11411  0.83470  0.41651  1.0000
  C   C306      1.0  0.11411  0.16530  0.58349  1.0000
  C   C307      1.0  0.88589  0.16530  0.41651  1.0000
  C   C308      1.0  0.88589  0.83470  0.58349  1.0000
  C   C309      1.0  0.41651  0.11411  0.83470  1.0000
  C   C310      1.0  0.58349  0.11411  0.16530  1.0000
  C   C311      1.0  0.41651  0.88589  0.16530  1.0000
  C   C312      1.0  0.58349  0.88589  0.83470  1.0000
  H   H121      1.0  0.34930  0.94538  0.60517  1.0000
  H   H122      1.0  0.65070  0.05462  0.60517  1.0000
  H   H123      1.0  0.65070  0.94538  0.39483  1.0000
  H   H124      1.0  0.34930  0.05462  0.39483  1.0000
  H   H125      1.0  0.60517  0.34930  0.94538  1.0000
  H   H126      1.0  0.60517  0.65070  0.05462  1.0000
  H   H127      1.0  0.39483  0.65070  0.94538  1.0000
  H   H128      1.0  0.39483  0.34930  0.05462  1.0000
  H   H129      1.0  0.94538  0.60517  0.34930  1.0000
  H   H130      1.0  0.05462  0.60517  0.65070  1.0000
  H   H131      1.0  0.94538  0.39483  0.65070  1.0000
  H   H132      1.0  0.05462  0.39483  0.34930  1.0000
  H   H133      1.0  0.84930  0.44538  0.10517  1.0000
  H   H134      1.0  0.15070  0.55462  0.10517  1.0000
  H   H135      1.0  0.15070  0.44538  0.89483  1.0000
  H   H136      1.0  0.84930  0.55462  0.89483  1.0000
  H   H137      1.0  0.10517  0.84930  0.44538  1.0000
  H   H138      1.0  0.10517  0.15070  0.55462  1.0000
  H   H139      1.0  0.89483  0.15070  0.44538  1.0000
  H   H140      1.0  0.89483  0.84930  0.55462  1.0000
  H   H141      1.0  0.44538  0.10517  0.84930  1.0000
  H   H142      1.0  0.55462  0.10517  0.15070  1.0000
  H   H143      1.0  0.44538  0.89483  0.15070  1.0000
  H   H144      1.0  0.55462  0.89483  0.84930  1.0000
  C   C313      1.0  0.34768  0.89364  0.65672  1.0000
  C   C314      1.0  0.65232  0.10636  0.65672  1.0000
  C   C315      1.0  0.65232  0.89364  0.34328  1.0000
  C   C316      1.0  0.34768  0.10636  0.34328  1.0000
  C   C317      1.0  0.65672  0.34768  0.89364  1.0000
  C   C318      1.0  0.65672  0.65232  0.10636  1.0000
  C   C319      1.0  0.34328  0.65232  0.89364  1.0000
  C   C320      1.0  0.34328  0.34768  0.10636  1.0000
  C   C321      1.0  0.89364  0.65672  0.34768  1.0000
  C   C322      1.0  0.10636  0.65672  0.65232  1.0000
  C   C323      1.0  0.89364  0.34328  0.65232  1.0000
  C   C324      1.0  0.10636  0.34328  0.34768  1.0000
  C   C325      1.0  0.84768  0.39364  0.15672  1.0000
  C   C326      1.0  0.15232  0.60636  0.15672  1.0000
  C   C327      1.0  0.15232  0.39364  0.84328  1.0000
  C   C328      1.0  0.84768  0.60636  0.84328  1.0000
  C   C329      1.0  0.15672  0.84768  0.39364  1.0000
  C   C330      1.0  0.15672  0.15232  0.60636  1.0000
  C   C331      1.0  0.84328  0.15232  0.39364  1.0000
  C   C332      1.0  0.84328  0.84768  0.60636  1.0000
  C   C333      1.0  0.39364  0.15672  0.84768  1.0000
  C   C334      1.0  0.60636  0.15672  0.15232  1.0000
  C   C335      1.0  0.39364  0.84328  0.15232  1.0000
  C   C336      1.0  0.60636  0.84328  0.84768  1.0000
  C   C337      1.0  0.27800  0.85103  0.59704  1.0000
  C   C338      1.0  0.72200  0.14897  0.59704  1.0000
  C   C339      1.0  0.72200  0.85103  0.40296  1.0000
  C   C340      1.0  0.27800  0.14897  0.40296  1.0000
  C   C341      1.0  0.59704  0.27800  0.85103  1.0000
  C   C342      1.0  0.59704  0.72200  0.14897  1.0000
  C   C343      1.0  0.40296  0.72200  0.85103  1.0000
  C   C344      1.0  0.40296  0.27800  0.14897  1.0000
  C   C345      1.0  0.85103  0.59704  0.27800  1.0000
  C   C346      1.0  0.14897  0.59704  0.72200  1.0000
  C   C347      1.0  0.85103  0.40296  0.72200  1.0000
  C   C348      1.0  0.14897  0.40296  0.27800  1.0000
  C   C349      1.0  0.77800  0.35103  0.09704  1.0000
  C   C350      1.0  0.22200  0.64897  0.09704  1.0000
  C   C351      1.0  0.22200  0.35103  0.90296  1.0000
  C   C352      1.0  0.77800  0.64897  0.90296  1.0000
  C   C353      1.0  0.09704  0.77800  0.35103  1.0000
  C   C354      1.0  0.09704  0.22200  0.64897  1.0000
  C   C355      1.0  0.90296  0.22200  0.35103  1.0000
  C   C356      1.0  0.90296  0.77800  0.64897  1.0000
  C   C357      1.0  0.35103  0.09704  0.77800  1.0000
  C   C358      1.0  0.64897  0.09704  0.22200  1.0000
  C   C359      1.0  0.35103  0.90296  0.22200  1.0000
  C   C360      1.0  0.64897  0.90296  0.77800  1.0000
  H   H145      1.0  0.25626  0.83611  0.57629  1.0000
  H   H146      1.0  0.74374  0.16389  0.57629  1.0000
  H   H147      1.0  0.74374  0.83611  0.42371  1.0000
  H   H148      1.0  0.25626  0.16389  0.42371  1.0000
  H   H149      1.0  0.57629  0.25626  0.83611  1.0000
  H   H150      1.0  0.57629  0.74374  0.16389  1.0000
  H   H151      1.0  0.42371  0.74374  0.83611  1.0000
  H   H152      1.0  0.42371  0.25626  0.16389  1.0000
  H   H153      1.0  0.83611  0.57629  0.25626  1.0000
  H   H154      1.0  0.16389  0.57629  0.74374  1.0000
  H   H155      1.0  0.83611  0.42371  0.74374  1.0000
  H   H156      1.0  0.16389  0.42371  0.25626  1.0000
  H   H157      1.0  0.75626  0.33611  0.07629  1.0000
  H   H158      1.0  0.24374  0.66389  0.07629  1.0000
  H   H159      1.0  0.24374  0.33611  0.92371  1.0000
  H   H160      1.0  0.75626  0.66389  0.92371  1.0000
  H   H161      1.0  0.07629  0.75626  0.33611  1.0000
  H   H162      1.0  0.07629  0.24374  0.66389  1.0000
  H   H163      1.0  0.92371  0.24374  0.33611  1.0000
  H   H164      1.0  0.92371  0.75626  0.66389  1.0000
  H   H165      1.0  0.33611  0.07629  0.75626  1.0000
  H   H166      1.0  0.66389  0.07629  0.24374  1.0000
  H   H167      1.0  0.33611  0.92371  0.24374  1.0000
  H   H168      1.0  0.66389  0.92371  0.75626  1.0000
  C   C361      1.0  0.32480  0.85390  0.67140  1.0000
  C   C362      1.0  0.67520  0.14610  0.67140  1.0000
  C   C363      1.0  0.67520  0.85390  0.32860  1.0000
  C   C364      1.0  0.32480  0.14610  0.32860  1.0000
  C   C365      1.0  0.67140  0.32480  0.85390  1.0000
  C   C366      1.0  0.67140  0.67520  0.14610  1.0000
  C   C367      1.0  0.32860  0.67520  0.85390  1.0000
  C   C368      1.0  0.32860  0.32480  0.14610  1.0000
  C   C369      1.0  0.85390  0.67140  0.32480  1.0000
  C   C370      1.0  0.14610  0.67140  0.67520  1.0000
  C   C371      1.0  0.85390  0.32860  0.67520  1.0000
  C   C372      1.0  0.14610  0.32860  0.32480  1.0000
  C   C373      1.0  0.82480  0.35390  0.17140  1.0000
  C   C374      1.0  0.17520  0.64610  0.17140  1.0000
  C   C375      1.0  0.17520  0.35390  0.82860  1.0000
  C   C376      1.0  0.82480  0.64610  0.82860  1.0000
  C   C377      1.0  0.17140  0.82480  0.35390  1.0000
  C   C378      1.0  0.17140  0.17520  0.64610  1.0000
  C   C379      1.0  0.82860  0.17520  0.35390  1.0000
  C   C380      1.0  0.82860  0.82480  0.64610  1.0000
  C   C381      1.0  0.35390  0.17140  0.82480  1.0000
  C   C382      1.0  0.64610  0.17140  0.17520  1.0000
  C   C383      1.0  0.35390  0.82860  0.17520  1.0000
  C   C384      1.0  0.64610  0.82860  0.82480  1.0000
  H   H169      1.0  0.33146  0.84183  0.70203  1.0000
  H   H170      1.0  0.66854  0.15817  0.70203  1.0000
  H   H171      1.0  0.66854  0.84183  0.29797  1.0000
  H   H172      1.0  0.33146  0.15817  0.29797  1.0000
  H   H173      1.0  0.70203  0.33146  0.84183  1.0000
  H   H174      1.0  0.70203  0.66854  0.15817  1.0000
  H   H175      1.0  0.29797  0.66854  0.84183  1.0000
  H   H176      1.0  0.29797  0.33146  0.15817  1.0000
  H   H177      1.0  0.84183  0.70203  0.33146  1.0000
  H   H178      1.0  0.15817  0.70203  0.66854  1.0000
  H   H179      1.0  0.84183  0.29797  0.66854  1.0000
  H   H180      1.0  0.15817  0.29797  0.33146  1.0000
  H   H181      1.0  0.83146  0.34183  0.20203  1.0000
  H   H182      1.0  0.16854  0.65817  0.20203  1.0000
  H   H183      1.0  0.16854  0.34183  0.79797  1.0000
  H   H184      1.0  0.83146  0.65817  0.79797  1.0000
  H   H185      1.0  0.20203  0.83146  0.34183  1.0000
  H   H186      1.0  0.20203  0.16854  0.65817  1.0000
  H   H187      1.0  0.79797  0.16854  0.34183  1.0000
  H   H188      1.0  0.79797  0.83146  0.65817  1.0000
  H   H189      1.0  0.34183  0.20203  0.83146  1.0000
  H   H190      1.0  0.65817  0.20203  0.16854  1.0000
  H   H191      1.0  0.34183  0.79797  0.16854  1.0000
  H   H192      1.0  0.65817  0.79797  0.83146  1.0000
  C   C385      1.0  0.29030  0.82912  0.64177  1.0000
  C   C386      1.0  0.70970  0.17088  0.64177  1.0000
  C   C387      1.0  0.70970  0.82912  0.35823  1.0000
  C   C388      1.0  0.29030  0.17088  0.35823  1.0000
  C   C389      1.0  0.64177  0.29030  0.82912  1.0000
  C   C390      1.0  0.64177  0.70970  0.17088  1.0000
  C   C391      1.0  0.35823  0.70970  0.82912  1.0000
  C   C392      1.0  0.35823  0.29030  0.17088  1.0000
  C   C393      1.0  0.82912  0.64177  0.29030  1.0000
  C   C394      1.0  0.17088  0.64177  0.70970  1.0000
  C   C395      1.0  0.82912  0.35823  0.70970  1.0000
  C   C396      1.0  0.17088  0.35823  0.29030  1.0000
  C   C397      1.0  0.79030  0.32912  0.14177  1.0000
  C   C398      1.0  0.20970  0.67088  0.14177  1.0000
  C   C399      1.0  0.20970  0.32912  0.85823  1.0000
  C   C400      1.0  0.79030  0.67088  0.85823  1.0000
  C   C401      1.0  0.14177  0.79030  0.32912  1.0000
  C   C402      1.0  0.14177  0.20970  0.67088  1.0000
  C   C403      1.0  0.85823  0.20970  0.32912  1.0000
  C   C404      1.0  0.85823  0.79030  0.67088  1.0000
  C   C405      1.0  0.32912  0.14177  0.79030  1.0000
  C   C406      1.0  0.67088  0.14177  0.20970  1.0000
  C   C407      1.0  0.32912  0.85823  0.20970  1.0000
  C   C408      1.0  0.67088  0.85823  0.79030  1.0000
  C   C409      1.0  0.29900  0.89534  0.58449  1.0000
  C   C410      1.0  0.70100  0.10466  0.58449  1.0000
  C   C411      1.0  0.70100  0.89534  0.41551  1.0000
  C   C412      1.0  0.29900  0.10466  0.41551  1.0000
  C   C413      1.0  0.58449  0.29900  0.89534  1.0000
  C   C414      1.0  0.58449  0.70100  0.10466  1.0000
  C   C415      1.0  0.41551  0.70100  0.89534  1.0000
  C   C416      1.0  0.41551  0.29900  0.10466  1.0000
  C   C417      1.0  0.89534  0.58449  0.29900  1.0000
  C   C418      1.0  0.10466  0.58449  0.70100  1.0000
  C   C419      1.0  0.89534  0.41551  0.70100  1.0000
  C   C420      1.0  0.10466  0.41551  0.29900  1.0000
  C   C421      1.0  0.79900  0.39534  0.08449  1.0000
  C   C422      1.0  0.20100  0.60466  0.08449  1.0000
  C   C423      1.0  0.20100  0.39534  0.91551  1.0000
  C   C424      1.0  0.79900  0.60466  0.91551  1.0000
  C   C425      1.0  0.08449  0.79900  0.39534  1.0000
  C   C426      1.0  0.08449  0.20100  0.60466  1.0000
  C   C427      1.0  0.91551  0.20100  0.39534  1.0000
  C   C428      1.0  0.91551  0.79900  0.60466  1.0000
  C   C429      1.0  0.39534  0.08449  0.79900  1.0000
  C   C430      1.0  0.60466  0.08449  0.20100  1.0000
  C   C431      1.0  0.39534  0.91551  0.20100  1.0000
  C   C432      1.0  0.60466  0.91551  0.79900  1.0000
