data_image0
_chemical_formula_structural       C72H24C72H24C24H24C24H24N72O96S24Zn32
_chemical_formula_sum              "C192 H96 N72 O96 S24 Zn32"
_cell_length_a       24.775
_cell_length_b       24.775
_cell_length_c       31.869
_cell_angle_alpha    90
_cell_angle_beta     90
_cell_angle_gamma    120

_space_group_name_H-M_alt    "P 1"
_space_group_IT_number       1

loop_
  _space_group_symop_operation_xyz
  'x, y, z'

loop_
  _atom_site_type_symbol
  _atom_site_label
  _atom_site_symmetry_multiplicity
  _atom_site_fract_x
  _atom_site_fract_y
  _atom_site_fract_z
  _atom_site_occupancy
  C   C1        1.0  0.44140  0.10760  0.79270  1.0000
  C   C2        1.0  0.33380  0.44140  0.79270  1.0000
  C   C3        1.0  0.89240  0.33380  0.79270  1.0000
  C   C4        1.0  0.55860  0.89240  0.79270  1.0000
  C   C5        1.0  0.66620  0.55860  0.79270  1.0000
  C   C6        1.0  0.10760  0.66620  0.79270  1.0000
  C   C7        1.0  0.89240  0.55860  0.70730  1.0000
  C   C8        1.0  0.33380  0.89240  0.70730  1.0000
  C   C9        1.0  0.44140  0.33380  0.70730  1.0000
  C   C10       1.0  0.10760  0.44140  0.70730  1.0000
  C   C11       1.0  0.66620  0.10760  0.70730  1.0000
  C   C12       1.0  0.55860  0.66620  0.70730  1.0000
  C   C13       1.0  0.55860  0.89240  0.20730  1.0000
  C   C14       1.0  0.66620  0.55860  0.20730  1.0000
  C   C15       1.0  0.10760  0.66620  0.20730  1.0000
  C   C16       1.0  0.44140  0.10760  0.20730  1.0000
  C   C17       1.0  0.33380  0.44140  0.20730  1.0000
  C   C18       1.0  0.89240  0.33380  0.20730  1.0000
  C   C19       1.0  0.10760  0.44140  0.29270  1.0000
  C   C20       1.0  0.66620  0.10760  0.29270  1.0000
  C   C21       1.0  0.55860  0.66620  0.29270  1.0000
  C   C22       1.0  0.89240  0.55860  0.29270  1.0000
  C   C23       1.0  0.33380  0.89240  0.29270  1.0000
  C   C24       1.0  0.44140  0.33380  0.29270  1.0000
  C   C25       1.0  0.39350  0.04965  0.76966  1.0000
  C   C26       1.0  0.34385  0.39350  0.76966  1.0000
  C   C27       1.0  0.95035  0.34385  0.76966  1.0000
  C   C28       1.0  0.60650  0.95035  0.76966  1.0000
  C   C29       1.0  0.65615  0.60650  0.76966  1.0000
  C   C30       1.0  0.04965  0.65615  0.76966  1.0000
  C   C31       1.0  0.95035  0.60650  0.73034  1.0000
  C   C32       1.0  0.34385  0.95035  0.73034  1.0000
  C   C33       1.0  0.39350  0.34385  0.73034  1.0000
  C   C34       1.0  0.04965  0.39350  0.73034  1.0000
  C   C35       1.0  0.65615  0.04965  0.73034  1.0000
  C   C36       1.0  0.60650  0.65615  0.73034  1.0000
  C   C37       1.0  0.60650  0.95035  0.23034  1.0000
  C   C38       1.0  0.65615  0.60650  0.23034  1.0000
  C   C39       1.0  0.04965  0.65615  0.23034  1.0000
  C   C40       1.0  0.39350  0.04965  0.23034  1.0000
  C   C41       1.0  0.34385  0.39350  0.23034  1.0000
  C   C42       1.0  0.95035  0.34385  0.23034  1.0000
  C   C43       1.0  0.04965  0.39350  0.26966  1.0000
  C   C44       1.0  0.65615  0.04965  0.26966  1.0000
  C   C45       1.0  0.60650  0.65615  0.26966  1.0000
  C   C46       1.0  0.95035  0.60650  0.26966  1.0000
  C   C47       1.0  0.34385  0.95035  0.26966  1.0000
  C   C48       1.0  0.39350  0.34385  0.26966  1.0000
  C   C49       1.0  0.33050  0.02770  0.76140  1.0000
  C   C50       1.0  0.30280  0.33050  0.76140  1.0000
  C   C51       1.0  0.97230  0.30280  0.76140  1.0000
  C   C52       1.0  0.66950  0.97230  0.76140  1.0000
  C   C53       1.0  0.69720  0.66950  0.76140  1.0000
  C   C54       1.0  0.02770  0.69720  0.76140  1.0000
  C   C55       1.0  0.97230  0.66950  0.73860  1.0000
  C   C56       1.0  0.30280  0.97230  0.73860  1.0000
  C   C57       1.0  0.33050  0.30280  0.73860  1.0000
  C   C58       1.0  0.02770  0.33050  0.73860  1.0000
  C   C59       1.0  0.69720  0.02770  0.73860  1.0000
  C   C60       1.0  0.66950  0.69720  0.73860  1.0000
  C   C61       1.0  0.66950  0.97230  0.23860  1.0000
  C   C62       1.0  0.69720  0.66950  0.23860  1.0000
  C   C63       1.0  0.02770  0.69720  0.23860  1.0000
  C   C64       1.0  0.33050  0.02770  0.23860  1.0000
  C   C65       1.0  0.30280  0.33050  0.23860  1.0000
  C   C66       1.0  0.97230  0.30280  0.23860  1.0000
  C   C67       1.0  0.02770  0.33050  0.26140  1.0000
  C   C68       1.0  0.69720  0.02770  0.26140  1.0000
  C   C69       1.0  0.66950  0.69720  0.26140  1.0000
  C   C70       1.0  0.97230  0.66950  0.26140  1.0000
  C   C71       1.0  0.30280  0.97230  0.26140  1.0000
  C   C72       1.0  0.33050  0.30280  0.26140  1.0000
  H   H1        1.0  0.30930  0.04800  0.77010  1.0000
  H   H2        1.0  0.26130  0.30930  0.77010  1.0000
  H   H3        1.0  0.95200  0.26130  0.77010  1.0000
  H   H4        1.0  0.69070  0.95200  0.77010  1.0000
  H   H5        1.0  0.73870  0.69070  0.77010  1.0000
  H   H6        1.0  0.04800  0.73870  0.77010  1.0000
  H   H7        1.0  0.95200  0.69070  0.72990  1.0000
  H   H8        1.0  0.26130  0.95200  0.72990  1.0000
  H   H9        1.0  0.30930  0.26130  0.72990  1.0000
  H   H10       1.0  0.04800  0.30930  0.72990  1.0000
  H   H11       1.0  0.73870  0.04800  0.72990  1.0000
  H   H12       1.0  0.69070  0.73870  0.72990  1.0000
  H   H13       1.0  0.69070  0.95200  0.22990  1.0000
  H   H14       1.0  0.73870  0.69070  0.22990  1.0000
  H   H15       1.0  0.04800  0.73870  0.22990  1.0000
  H   H16       1.0  0.30930  0.04800  0.22990  1.0000
  H   H17       1.0  0.26130  0.30930  0.22990  1.0000
  H   H18       1.0  0.95200  0.26130  0.22990  1.0000
  H   H19       1.0  0.04800  0.30930  0.27010  1.0000
  H   H20       1.0  0.73870  0.04800  0.27010  1.0000
  H   H21       1.0  0.69070  0.73870  0.27010  1.0000
  H   H22       1.0  0.95200  0.69070  0.27010  1.0000
  H   H23       1.0  0.26130  0.95200  0.27010  1.0000
  H   H24       1.0  0.30930  0.26130  0.27010  1.0000
  C   C73       1.0  0.55580  0.21490  0.91679  1.0000
  C   C74       1.0  0.34090  0.55580  0.91679  1.0000
  C   C75       1.0  0.78510  0.34090  0.91679  1.0000
  C   C76       1.0  0.44420  0.78510  0.91679  1.0000
  C   C77       1.0  0.65910  0.44420  0.91679  1.0000
  C   C78       1.0  0.21490  0.65910  0.91679  1.0000
  C   C79       1.0  0.78510  0.44420  0.58321  1.0000
  C   C80       1.0  0.34090  0.78510  0.58321  1.0000
  C   C81       1.0  0.55580  0.34090  0.58321  1.0000
  C   C82       1.0  0.21490  0.55580  0.58321  1.0000
  C   C83       1.0  0.65910  0.21490  0.58321  1.0000
  C   C84       1.0  0.44420  0.65910  0.58321  1.0000
  C   C85       1.0  0.44420  0.78510  0.08321  1.0000
  C   C86       1.0  0.65910  0.44420  0.08321  1.0000
  C   C87       1.0  0.21490  0.65910  0.08321  1.0000
  C   C88       1.0  0.55580  0.21490  0.08321  1.0000
  C   C89       1.0  0.34090  0.55580  0.08321  1.0000
  C   C90       1.0  0.78510  0.34090  0.08321  1.0000
  C   C91       1.0  0.21490  0.55580  0.41679  1.0000
  C   C92       1.0  0.65910  0.21490  0.41679  1.0000
  C   C93       1.0  0.44420  0.65910  0.41679  1.0000
  C   C94       1.0  0.78510  0.44420  0.41679  1.0000
  C   C95       1.0  0.34090  0.78510  0.41679  1.0000
  C   C96       1.0  0.55580  0.34090  0.41679  1.0000
  C   C97       1.0  0.53909  0.19644  0.96129  1.0000
  C   C98       1.0  0.34265  0.53909  0.96129  1.0000
  C   C99       1.0  0.80356  0.34265  0.96129  1.0000
  C   C100      1.0  0.46091  0.80356  0.96129  1.0000
  C   C101      1.0  0.65735  0.46091  0.96129  1.0000
  C   C102      1.0  0.19644  0.65735  0.96129  1.0000
  C   C103      1.0  0.80356  0.46091  0.53871  1.0000
  C   C104      1.0  0.34265  0.80356  0.53871  1.0000
  C   C105      1.0  0.53909  0.34265  0.53871  1.0000
  C   C106      1.0  0.19644  0.53909  0.53871  1.0000
  C   C107      1.0  0.65735  0.19644  0.53871  1.0000
  C   C108      1.0  0.46091  0.65735  0.53871  1.0000
  C   C109      1.0  0.46091  0.80356  0.03871  1.0000
  C   C110      1.0  0.65735  0.46091  0.03871  1.0000
  C   C111      1.0  0.19644  0.65735  0.03871  1.0000
  C   C112      1.0  0.53909  0.19644  0.03871  1.0000
  C   C113      1.0  0.34265  0.53909  0.03871  1.0000
  C   C114      1.0  0.80356  0.34265  0.03871  1.0000
  C   C115      1.0  0.19644  0.53909  0.46129  1.0000
  C   C116      1.0  0.65735  0.19644  0.46129  1.0000
  C   C117      1.0  0.46091  0.65735  0.46129  1.0000
  C   C118      1.0  0.80356  0.46091  0.46129  1.0000
  C   C119      1.0  0.34265  0.80356  0.46129  1.0000
  C   C120      1.0  0.53909  0.34265  0.46129  1.0000
  C   C121      1.0  0.48913  0.14280  0.97829  1.0000
  C   C122      1.0  0.34633  0.48913  0.97829  1.0000
  C   C123      1.0  0.85720  0.34633  0.97829  1.0000
  C   C124      1.0  0.51087  0.85720  0.97829  1.0000
  C   C125      1.0  0.65367  0.51087  0.97829  1.0000
  C   C126      1.0  0.14280  0.65367  0.97829  1.0000
  C   C127      1.0  0.85720  0.51087  0.52171  1.0000
  C   C128      1.0  0.34633  0.85720  0.52171  1.0000
  C   C129      1.0  0.48913  0.34633  0.52171  1.0000
  C   C130      1.0  0.14280  0.48913  0.52171  1.0000
  C   C131      1.0  0.65367  0.14280  0.52171  1.0000
  C   C132      1.0  0.51087  0.65367  0.52171  1.0000
  C   C133      1.0  0.51087  0.85720  0.02171  1.0000
  C   C134      1.0  0.65367  0.51087  0.02171  1.0000
  C   C135      1.0  0.14280  0.65367  0.02171  1.0000
  C   C136      1.0  0.48913  0.14280  0.02171  1.0000
  C   C137      1.0  0.34633  0.48913  0.02171  1.0000
  C   C138      1.0  0.85720  0.34633  0.02171  1.0000
  C   C139      1.0  0.14280  0.48913  0.47829  1.0000
  C   C140      1.0  0.65367  0.14280  0.47829  1.0000
  C   C141      1.0  0.51087  0.65367  0.47829  1.0000
  C   C142      1.0  0.85720  0.51087  0.47829  1.0000
  C   C143      1.0  0.34633  0.85720  0.47829  1.0000
  C   C144      1.0  0.48913  0.34633  0.47829  1.0000
  H   H25       1.0  0.45900  0.11050  0.96220  1.0000
  H   H26       1.0  0.34850  0.45900  0.96220  1.0000
  H   H27       1.0  0.88950  0.34850  0.96220  1.0000
  H   H28       1.0  0.54100  0.88950  0.96220  1.0000
  H   H29       1.0  0.65150  0.54100  0.96220  1.0000
  H   H30       1.0  0.11050  0.65150  0.96220  1.0000
  H   H31       1.0  0.88950  0.54100  0.53780  1.0000
  H   H32       1.0  0.34850  0.88950  0.53780  1.0000
  H   H33       1.0  0.45900  0.34850  0.53780  1.0000
  H   H34       1.0  0.11050  0.45900  0.53780  1.0000
  H   H35       1.0  0.65150  0.11050  0.53780  1.0000
  H   H36       1.0  0.54100  0.65150  0.53780  1.0000
  H   H37       1.0  0.54100  0.88950  0.03780  1.0000
  H   H38       1.0  0.65150  0.54100  0.03780  1.0000
  H   H39       1.0  0.11050  0.65150  0.03780  1.0000
  H   H40       1.0  0.45900  0.11050  0.03780  1.0000
  H   H41       1.0  0.34850  0.45900  0.03780  1.0000
  H   H42       1.0  0.88950  0.34850  0.03780  1.0000
  H   H43       1.0  0.11050  0.45900  0.46220  1.0000
  H   H44       1.0  0.65150  0.11050  0.46220  1.0000
  H   H45       1.0  0.54100  0.65150  0.46220  1.0000
  H   H46       1.0  0.88950  0.54100  0.46220  1.0000
  H   H47       1.0  0.34850  0.88950  0.46220  1.0000
  H   H48       1.0  0.45900  0.34850  0.46220  1.0000
  C   C145      1.0  0.70630  0.21250  0.79728  1.0000
  C   C146      1.0  0.49380  0.70630  0.79728  1.0000
  C   C147      1.0  0.78750  0.49380  0.79728  1.0000
  C   C148      1.0  0.29370  0.78750  0.79728  1.0000
  C   C149      1.0  0.50620  0.29370  0.79728  1.0000
  C   C150      1.0  0.21250  0.50620  0.79728  1.0000
  C   C151      1.0  0.78750  0.29370  0.70272  1.0000
  C   C152      1.0  0.49380  0.78750  0.70272  1.0000
  C   C153      1.0  0.70630  0.49380  0.70272  1.0000
  C   C154      1.0  0.21250  0.70630  0.70272  1.0000
  C   C155      1.0  0.50620  0.21250  0.70272  1.0000
  C   C156      1.0  0.29370  0.50620  0.70272  1.0000
  C   C157      1.0  0.29370  0.78750  0.20272  1.0000
  C   C158      1.0  0.50620  0.29370  0.20272  1.0000
  C   C159      1.0  0.21250  0.50620  0.20272  1.0000
  C   C160      1.0  0.70630  0.21250  0.20272  1.0000
  C   C161      1.0  0.49380  0.70630  0.20272  1.0000
  C   C162      1.0  0.78750  0.49380  0.20272  1.0000
  C   C163      1.0  0.21250  0.70630  0.29728  1.0000
  C   C164      1.0  0.50620  0.21250  0.29728  1.0000
  C   C165      1.0  0.29370  0.50620  0.29728  1.0000
  C   C166      1.0  0.78750  0.29370  0.29728  1.0000
  C   C167      1.0  0.49380  0.78750  0.29728  1.0000
  C   C168      1.0  0.70630  0.49380  0.29728  1.0000
  H   H49       1.0  0.73280  0.20050  0.78510  1.0000
  H   H50       1.0  0.53230  0.73280  0.78510  1.0000
  H   H51       1.0  0.79950  0.53230  0.78510  1.0000
  H   H52       1.0  0.26720  0.79950  0.78510  1.0000
  H   H53       1.0  0.46770  0.26720  0.78510  1.0000
  H   H54       1.0  0.20050  0.46770  0.78510  1.0000
  H   H55       1.0  0.79950  0.26720  0.71490  1.0000
  H   H56       1.0  0.53230  0.79950  0.71490  1.0000
  H   H57       1.0  0.73280  0.53230  0.71490  1.0000
  H   H58       1.0  0.20050  0.73280  0.71490  1.0000
  H   H59       1.0  0.46770  0.20050  0.71490  1.0000
  H   H60       1.0  0.26720  0.46770  0.71490  1.0000
  H   H61       1.0  0.26720  0.79950  0.21490  1.0000
  H   H62       1.0  0.46770  0.26720  0.21490  1.0000
  H   H63       1.0  0.20050  0.46770  0.21490  1.0000
  H   H64       1.0  0.73280  0.20050  0.21490  1.0000
  H   H65       1.0  0.53230  0.73280  0.21490  1.0000
  H   H66       1.0  0.79950  0.53230  0.21490  1.0000
  H   H67       1.0  0.20050  0.73280  0.28510  1.0000
  H   H68       1.0  0.46770  0.20050  0.28510  1.0000
  H   H69       1.0  0.26720  0.46770  0.28510  1.0000
  H   H70       1.0  0.79950  0.26720  0.28510  1.0000
  H   H71       1.0  0.53230  0.79950  0.28510  1.0000
  H   H72       1.0  0.73280  0.53230  0.28510  1.0000
  C   C169      1.0  0.64270  0.17956  0.79671  1.0000
  C   C170      1.0  0.46314  0.64270  0.79671  1.0000
  C   C171      1.0  0.82044  0.46314  0.79671  1.0000
  C   C172      1.0  0.35730  0.82044  0.79671  1.0000
  C   C173      1.0  0.53686  0.35730  0.79671  1.0000
  C   C174      1.0  0.17956  0.53686  0.79671  1.0000
  C   C175      1.0  0.82044  0.35730  0.70329  1.0000
  C   C176      1.0  0.46314  0.82044  0.70329  1.0000
  C   C177      1.0  0.64270  0.46314  0.70329  1.0000
  C   C178      1.0  0.17956  0.64270  0.70329  1.0000
  C   C179      1.0  0.53686  0.17956  0.70329  1.0000
  C   C180      1.0  0.35730  0.53686  0.70329  1.0000
  C   C181      1.0  0.35730  0.82044  0.20329  1.0000
  C   C182      1.0  0.53686  0.35730  0.20329  1.0000
  C   C183      1.0  0.17956  0.53686  0.20329  1.0000
  C   C184      1.0  0.64270  0.17956  0.20329  1.0000
  C   C185      1.0  0.46314  0.64270  0.20329  1.0000
  C   C186      1.0  0.82044  0.46314  0.20329  1.0000
  C   C187      1.0  0.17956  0.64270  0.29671  1.0000
  C   C188      1.0  0.53686  0.17956  0.29671  1.0000
  C   C189      1.0  0.35730  0.53686  0.29671  1.0000
  C   C190      1.0  0.82044  0.35730  0.29671  1.0000
  C   C191      1.0  0.46314  0.82044  0.29671  1.0000
  C   C192      1.0  0.64270  0.46314  0.29671  1.0000
  H   H73       1.0  0.61820  0.14130  0.78370  1.0000
  H   H74       1.0  0.47690  0.61820  0.78370  1.0000
  H   H75       1.0  0.85870  0.47690  0.78370  1.0000
  H   H76       1.0  0.38180  0.85870  0.78370  1.0000
  H   H77       1.0  0.52310  0.38180  0.78370  1.0000
  H   H78       1.0  0.14130  0.52310  0.78370  1.0000
  H   H79       1.0  0.85870  0.38180  0.71630  1.0000
  H   H80       1.0  0.47690  0.85870  0.71630  1.0000
  H   H81       1.0  0.61820  0.47690  0.71630  1.0000
  H   H82       1.0  0.14130  0.61820  0.71630  1.0000
  H   H83       1.0  0.52310  0.14130  0.71630  1.0000
  H   H84       1.0  0.38180  0.52310  0.71630  1.0000
  H   H85       1.0  0.38180  0.85870  0.21630  1.0000
  H   H86       1.0  0.52310  0.38180  0.21630  1.0000
  H   H87       1.0  0.14130  0.52310  0.21630  1.0000
  H   H88       1.0  0.61820  0.14130  0.21630  1.0000
  H   H89       1.0  0.47690  0.61820  0.21630  1.0000
  H   H90       1.0  0.85870  0.47690  0.21630  1.0000
  H   H91       1.0  0.14130  0.61820  0.28370  1.0000
  H   H92       1.0  0.52310  0.14130  0.28370  1.0000
  H   H93       1.0  0.38180  0.52310  0.28370  1.0000
  H   H94       1.0  0.85870  0.38180  0.28370  1.0000
  H   H95       1.0  0.47690  0.85870  0.28370  1.0000
  H   H96       1.0  0.61820  0.47690  0.28370  1.0000
  N   N1        1.0  0.62168  0.21158  0.81804  1.0000
  N   N2        1.0  0.41010  0.62168  0.81804  1.0000
  N   N3        1.0  0.78842  0.41010  0.81804  1.0000
  N   N4        1.0  0.37832  0.78842  0.81804  1.0000
  N   N5        1.0  0.58990  0.37832  0.81804  1.0000
  N   N6        1.0  0.21158  0.58990  0.81804  1.0000
  N   N7        1.0  0.78842  0.37832  0.68196  1.0000
  N   N8        1.0  0.41010  0.78842  0.68196  1.0000
  N   N9        1.0  0.62168  0.41010  0.68196  1.0000
  N   N10       1.0  0.21158  0.62168  0.68196  1.0000
  N   N11       1.0  0.58990  0.21158  0.68196  1.0000
  N   N12       1.0  0.37832  0.58990  0.68196  1.0000
  N   N13       1.0  0.37832  0.78842  0.18196  1.0000
  N   N14       1.0  0.58990  0.37832  0.18196  1.0000
  N   N15       1.0  0.21158  0.58990  0.18196  1.0000
  N   N16       1.0  0.62168  0.21158  0.18196  1.0000
  N   N17       1.0  0.41010  0.62168  0.18196  1.0000
  N   N18       1.0  0.78842  0.41010  0.18196  1.0000
  N   N19       1.0  0.21158  0.62168  0.31804  1.0000
  N   N20       1.0  0.58990  0.21158  0.31804  1.0000
  N   N21       1.0  0.37832  0.58990  0.31804  1.0000
  N   N22       1.0  0.78842  0.37832  0.31804  1.0000
  N   N23       1.0  0.41010  0.78842  0.31804  1.0000
  N   N24       1.0  0.62168  0.41010  0.31804  1.0000
  N   N25       1.0  0.67203  0.26383  0.83138  1.0000
  N   N26       1.0  0.40820  0.67203  0.83138  1.0000
  N   N27       1.0  0.73617  0.40820  0.83138  1.0000
  N   N28       1.0  0.32797  0.73617  0.83138  1.0000
  N   N29       1.0  0.59180  0.32797  0.83138  1.0000
  N   N30       1.0  0.26383  0.59180  0.83138  1.0000
  N   N31       1.0  0.73617  0.32797  0.66862  1.0000
  N   N32       1.0  0.40820  0.73617  0.66862  1.0000
  N   N33       1.0  0.67203  0.40820  0.66862  1.0000
  N   N34       1.0  0.26383  0.67203  0.66862  1.0000
  N   N35       1.0  0.59180  0.26383  0.66862  1.0000
  N   N36       1.0  0.32797  0.59180  0.66862  1.0000
  N   N37       1.0  0.32797  0.73617  0.16862  1.0000
  N   N38       1.0  0.59180  0.32797  0.16862  1.0000
  N   N39       1.0  0.26383  0.59180  0.16862  1.0000
  N   N40       1.0  0.67203  0.26383  0.16862  1.0000
  N   N41       1.0  0.40820  0.67203  0.16862  1.0000
  N   N42       1.0  0.73617  0.40820  0.16862  1.0000
  N   N43       1.0  0.26383  0.67203  0.33138  1.0000
  N   N44       1.0  0.59180  0.26383  0.33138  1.0000
  N   N45       1.0  0.32797  0.59180  0.33138  1.0000
  N   N46       1.0  0.73617  0.32797  0.33138  1.0000
  N   N47       1.0  0.40820  0.73617  0.33138  1.0000
  N   N48       1.0  0.67203  0.40820  0.33138  1.0000
  N   N49       1.0  0.72346  0.26490  0.81839  1.0000
  N   N50       1.0  0.45856  0.72346  0.81839  1.0000
  N   N51       1.0  0.73510  0.45856  0.81839  1.0000
  N   N52       1.0  0.27654  0.73510  0.81839  1.0000
  N   N53       1.0  0.54144  0.27654  0.81839  1.0000
  N   N54       1.0  0.26490  0.54144  0.81839  1.0000
  N   N55       1.0  0.73510  0.27654  0.68161  1.0000
  N   N56       1.0  0.45856  0.73510  0.68161  1.0000
  N   N57       1.0  0.72346  0.45856  0.68161  1.0000
  N   N58       1.0  0.26490  0.72346  0.68161  1.0000
  N   N59       1.0  0.54144  0.26490  0.68161  1.0000
  N   N60       1.0  0.27654  0.54144  0.68161  1.0000
  N   N61       1.0  0.27654  0.73510  0.18161  1.0000
  N   N62       1.0  0.54144  0.27654  0.18161  1.0000
  N   N63       1.0  0.26490  0.54144  0.18161  1.0000
  N   N64       1.0  0.72346  0.26490  0.18161  1.0000
  N   N65       1.0  0.45856  0.72346  0.18161  1.0000
  N   N66       1.0  0.73510  0.45856  0.18161  1.0000
  N   N67       1.0  0.26490  0.72346  0.31839  1.0000
  N   N68       1.0  0.54144  0.26490  0.31839  1.0000
  N   N69       1.0  0.27654  0.54144  0.31839  1.0000
  N   N70       1.0  0.73510  0.27654  0.31839  1.0000
  N   N71       1.0  0.45856  0.73510  0.31839  1.0000
  N   N72       1.0  0.72346  0.45856  0.31839  1.0000
  O   O1        1.0  0.42186  0.14449  0.80314  1.0000
  O   O2        1.0  0.27737  0.42186  0.80314  1.0000
  O   O3        1.0  0.85551  0.27737  0.80314  1.0000
  O   O4        1.0  0.57814  0.85551  0.80314  1.0000
  O   O5        1.0  0.72263  0.57814  0.80314  1.0000
  O   O6        1.0  0.14449  0.72263  0.80314  1.0000
  O   O7        1.0  0.85551  0.57814  0.69686  1.0000
  O   O8        1.0  0.27737  0.85551  0.69686  1.0000
  O   O9        1.0  0.42186  0.27737  0.69686  1.0000
  O   O10       1.0  0.14449  0.42186  0.69686  1.0000
  O   O11       1.0  0.72263  0.14449  0.69686  1.0000
  O   O12       1.0  0.57814  0.72263  0.69686  1.0000
  O   O13       1.0  0.57814  0.85551  0.19686  1.0000
  O   O14       1.0  0.72263  0.57814  0.19686  1.0000
  O   O15       1.0  0.14449  0.72263  0.19686  1.0000
  O   O16       1.0  0.42186  0.14449  0.19686  1.0000
  O   O17       1.0  0.27737  0.42186  0.19686  1.0000
  O   O18       1.0  0.85551  0.27737  0.19686  1.0000
  O   O19       1.0  0.14449  0.42186  0.30314  1.0000
  O   O20       1.0  0.72263  0.14449  0.30314  1.0000
  O   O21       1.0  0.57814  0.72263  0.30314  1.0000
  O   O22       1.0  0.85551  0.57814  0.30314  1.0000
  O   O23       1.0  0.27737  0.85551  0.30314  1.0000
  O   O24       1.0  0.42186  0.27737  0.30314  1.0000
  O   O25       1.0  0.49219  0.11613  0.79849  1.0000
  O   O26       1.0  0.37606  0.49219  0.79849  1.0000
  O   O27       1.0  0.88387  0.37606  0.79849  1.0000
  O   O28       1.0  0.50781  0.88387  0.79849  1.0000
  O   O29       1.0  0.62394  0.50781  0.79849  1.0000
  O   O30       1.0  0.11613  0.62394  0.79849  1.0000
  O   O31       1.0  0.88387  0.50781  0.70151  1.0000
  O   O32       1.0  0.37606  0.88387  0.70151  1.0000
  O   O33       1.0  0.49219  0.37606  0.70151  1.0000
  O   O34       1.0  0.11613  0.49219  0.70151  1.0000
  O   O35       1.0  0.62394  0.11613  0.70151  1.0000
  O   O36       1.0  0.50781  0.62394  0.70151  1.0000
  O   O37       1.0  0.50781  0.88387  0.20151  1.0000
  O   O38       1.0  0.62394  0.50781  0.20151  1.0000
  O   O39       1.0  0.11613  0.62394  0.20151  1.0000
  O   O40       1.0  0.49219  0.11613  0.20151  1.0000
  O   O41       1.0  0.37606  0.49219  0.20151  1.0000
  O   O42       1.0  0.88387  0.37606  0.20151  1.0000
  O   O43       1.0  0.11613  0.49219  0.29849  1.0000
  O   O44       1.0  0.62394  0.11613  0.29849  1.0000
  O   O45       1.0  0.50781  0.62394  0.29849  1.0000
  O   O46       1.0  0.88387  0.50781  0.29849  1.0000
  O   O47       1.0  0.37606  0.88387  0.29849  1.0000
  O   O48       1.0  0.49219  0.37606  0.29849  1.0000
  O   O49       1.0  0.51815  0.17481  0.89023  1.0000
  O   O50       1.0  0.34334  0.51815  0.89023  1.0000
  O   O51       1.0  0.82519  0.34334  0.89023  1.0000
  O   O52       1.0  0.48185  0.82519  0.89023  1.0000
  O   O53       1.0  0.65666  0.48185  0.89023  1.0000
  O   O54       1.0  0.17481  0.65666  0.89023  1.0000
  O   O55       1.0  0.82519  0.48185  0.60977  1.0000
  O   O56       1.0  0.34334  0.82519  0.60977  1.0000
  O   O57       1.0  0.51815  0.34334  0.60977  1.0000
  O   O58       1.0  0.17481  0.51815  0.60977  1.0000
  O   O59       1.0  0.65666  0.17481  0.60977  1.0000
  O   O60       1.0  0.48185  0.65666  0.60977  1.0000
  O   O61       1.0  0.48185  0.82519  0.10977  1.0000
  O   O62       1.0  0.65666  0.48185  0.10977  1.0000
  O   O63       1.0  0.17481  0.65666  0.10977  1.0000
  O   O64       1.0  0.51815  0.17481  0.10977  1.0000
  O   O65       1.0  0.34334  0.51815  0.10977  1.0000
  O   O66       1.0  0.82519  0.34334  0.10977  1.0000
  O   O67       1.0  0.17481  0.51815  0.39023  1.0000
  O   O68       1.0  0.65666  0.17481  0.39023  1.0000
  O   O69       1.0  0.48185  0.65666  0.39023  1.0000
  O   O70       1.0  0.82519  0.48185  0.39023  1.0000
  O   O71       1.0  0.34334  0.82519  0.39023  1.0000
  O   O72       1.0  0.51815  0.34334  0.39023  1.0000
  O   O73       1.0  0.60201  0.26435  0.90912  1.0000
  O   O74       1.0  0.33766  0.60201  0.90912  1.0000
  O   O75       1.0  0.73565  0.33766  0.90912  1.0000
  O   O76       1.0  0.39799  0.73565  0.90912  1.0000
  O   O77       1.0  0.66234  0.39799  0.90912  1.0000
  O   O78       1.0  0.26435  0.66234  0.90912  1.0000
  O   O79       1.0  0.73565  0.39799  0.59088  1.0000
  O   O80       1.0  0.33766  0.73565  0.59088  1.0000
  O   O81       1.0  0.60201  0.33766  0.59088  1.0000
  O   O82       1.0  0.26435  0.60201  0.59088  1.0000
  O   O83       1.0  0.66234  0.26435  0.59088  1.0000
  O   O84       1.0  0.39799  0.66234  0.59088  1.0000
  O   O85       1.0  0.39799  0.73565  0.09088  1.0000
  O   O86       1.0  0.66234  0.39799  0.09088  1.0000
  O   O87       1.0  0.26435  0.66234  0.09088  1.0000
  O   O88       1.0  0.60201  0.26435  0.09088  1.0000
  O   O89       1.0  0.33766  0.60201  0.09088  1.0000
  O   O90       1.0  0.73565  0.33766  0.09088  1.0000
  O   O91       1.0  0.26435  0.60201  0.40912  1.0000
  O   O92       1.0  0.66234  0.26435  0.40912  1.0000
  O   O93       1.0  0.39799  0.66234  0.40912  1.0000
  O   O94       1.0  0.73565  0.39799  0.40912  1.0000
  O   O95       1.0  0.33766  0.73565  0.40912  1.0000
  O   O96       1.0  0.60201  0.33766  0.40912  1.0000
  S   S1        1.0  0.41617  0.00000  0.75000  1.0000
  S   S2        1.0  0.41617  0.41617  0.75000  1.0000
  S   S3        1.0  0.00000  0.41617  0.75000  1.0000
  S   S4        1.0  0.58383  0.00000  0.75000  1.0000
  S   S5        1.0  0.58383  0.58383  0.75000  1.0000
  S   S6        1.0  0.00000  0.58383  0.75000  1.0000
  S   S7        1.0  0.58383  0.00000  0.25000  1.0000
  S   S8        1.0  0.58383  0.58383  0.25000  1.0000
  S   S9        1.0  0.00000  0.58383  0.25000  1.0000
  S   S10       1.0  0.41617  0.00000  0.25000  1.0000
  S   S11       1.0  0.41617  0.41617  0.25000  1.0000
  S   S12       1.0  0.00000  0.41617  0.25000  1.0000
  S   S13       1.0  0.58489  0.24585  0.00000  1.0000
  S   S14       1.0  0.33904  0.58489  0.00000  1.0000
  S   S15       1.0  0.75415  0.33904  0.00000  1.0000
  S   S16       1.0  0.41511  0.75415  0.00000  1.0000
  S   S17       1.0  0.66096  0.41511  0.00000  1.0000
  S   S18       1.0  0.24585  0.66096  0.00000  1.0000
  S   S19       1.0  0.75415  0.41511  0.50000  1.0000
  S   S20       1.0  0.33904  0.75415  0.50000  1.0000
  S   S21       1.0  0.58489  0.33904  0.50000  1.0000
  S   S22       1.0  0.24585  0.58489  0.50000  1.0000
  S   S23       1.0  0.66096  0.24585  0.50000  1.0000
  S   S24       1.0  0.41511  0.66096  0.50000  1.0000
  Zn  Zn1       1.0  0.66670  0.33330  0.87044  1.0000
  Zn  Zn2       1.0  0.33340  0.66670  0.87044  1.0000
  Zn  Zn3       1.0  0.66670  0.33330  0.62956  1.0000
  Zn  Zn4       1.0  0.33340  0.66670  0.62956  1.0000
  Zn  Zn5       1.0  0.33330  0.66670  0.12956  1.0000
  Zn  Zn6       1.0  0.66660  0.33330  0.12956  1.0000
  Zn  Zn7       1.0  0.33330  0.66670  0.37044  1.0000
  Zn  Zn8       1.0  0.66660  0.33330  0.37044  1.0000
  Zn  Zn9       1.0  0.53394  0.19352  0.83092  1.0000
  Zn  Zn10      1.0  0.34041  0.53394  0.83092  1.0000
  Zn  Zn11      1.0  0.80648  0.34041  0.83092  1.0000
  Zn  Zn12      1.0  0.46606  0.80648  0.83092  1.0000
  Zn  Zn13      1.0  0.65959  0.46606  0.83092  1.0000
  Zn  Zn14      1.0  0.19352  0.65959  0.83092  1.0000
  Zn  Zn15      1.0  0.80648  0.46606  0.66908  1.0000
  Zn  Zn16      1.0  0.34041  0.80648  0.66908  1.0000
  Zn  Zn17      1.0  0.53394  0.34041  0.66908  1.0000
  Zn  Zn18      1.0  0.19352  0.53394  0.66908  1.0000
  Zn  Zn19      1.0  0.65959  0.19352  0.66908  1.0000
  Zn  Zn20      1.0  0.46606  0.65959  0.66908  1.0000
  Zn  Zn21      1.0  0.46606  0.80648  0.16908  1.0000
  Zn  Zn22      1.0  0.65959  0.46606  0.16908  1.0000
  Zn  Zn23      1.0  0.19352  0.65959  0.16908  1.0000
  Zn  Zn24      1.0  0.53394  0.19352  0.16908  1.0000
  Zn  Zn25      1.0  0.34041  0.53394  0.16908  1.0000
  Zn  Zn26      1.0  0.80648  0.34041  0.16908  1.0000
  Zn  Zn27      1.0  0.19352  0.53394  0.33092  1.0000
  Zn  Zn28      1.0  0.65959  0.19352  0.33092  1.0000
  Zn  Zn29      1.0  0.46606  0.65959  0.33092  1.0000
  Zn  Zn30      1.0  0.80648  0.46606  0.33092  1.0000
  Zn  Zn31      1.0  0.34041  0.80648  0.33092  1.0000
  Zn  Zn32      1.0  0.53394  0.34041  0.33092  1.0000
