data_image0
_chemical_formula_structural       C8H8C8H8C8H8C8H8C8H8C8H8C16H8C8H8C16H8C8H8C24H8C8H8C16H8C8H8C24H8C8H8C16H8C8H8C16H8C24H8C24H8C16N80O96Zn32S12
_chemical_formula_sum              "C288 H168 N80 O96 Zn32 S12"
_cell_length_a       34.858
_cell_length_b       38.935
_cell_length_c       19.106
_cell_angle_alpha    90
_cell_angle_beta     121.613
_cell_angle_gamma    90

_space_group_name_H-M_alt    "P 1"
_space_group_IT_number       1

loop_
  _space_group_symop_operation_xyz
  'x, y, z'

loop_
  _atom_site_type_symbol
  _atom_site_label
  _atom_site_symmetry_multiplicity
  _atom_site_fract_x
  _atom_site_fract_y
  _atom_site_fract_z
  _atom_site_occupancy
  C   C1        1.0  0.37170  0.16725  0.20510  1.0000
  C   C2        1.0  0.62830  0.16725  0.79490  1.0000
  C   C3        1.0  0.87170  0.66725  0.20510  1.0000
  C   C4        1.0  0.12830  0.66725  0.79490  1.0000
  C   C5        1.0  0.62830  0.83275  0.79490  1.0000
  C   C6        1.0  0.37170  0.83275  0.20510  1.0000
  C   C7        1.0  0.12830  0.33275  0.79490  1.0000
  C   C8        1.0  0.87170  0.33275  0.20510  1.0000
  H   H1        1.0  0.36590  0.17810  0.24200  1.0000
  H   H2        1.0  0.63410  0.17810  0.75800  1.0000
  H   H3        1.0  0.86590  0.67810  0.24200  1.0000
  H   H4        1.0  0.13410  0.67810  0.75800  1.0000
  H   H5        1.0  0.63410  0.82190  0.75800  1.0000
  H   H6        1.0  0.36590  0.82190  0.24200  1.0000
  H   H7        1.0  0.13410  0.32190  0.75800  1.0000
  H   H8        1.0  0.86590  0.32190  0.24200  1.0000
  C   C9        1.0  0.41151  0.16749  0.20830  1.0000
  C   C10       1.0  0.58849  0.16749  0.79170  1.0000
  C   C11       1.0  0.91151  0.66749  0.20830  1.0000
  C   C12       1.0  0.08849  0.66749  0.79170  1.0000
  C   C13       1.0  0.58849  0.83251  0.79170  1.0000
  C   C14       1.0  0.41151  0.83251  0.20830  1.0000
  C   C15       1.0  0.08849  0.33251  0.79170  1.0000
  C   C16       1.0  0.91151  0.33251  0.20830  1.0000
  H   H9        1.0  0.43790  0.17840  0.24770  1.0000
  H   H10       1.0  0.56210  0.17840  0.75230  1.0000
  H   H11       1.0  0.93790  0.67840  0.24770  1.0000
  H   H12       1.0  0.06210  0.67840  0.75230  1.0000
  H   H13       1.0  0.56210  0.82160  0.75230  1.0000
  H   H14       1.0  0.43790  0.82160  0.24770  1.0000
  H   H15       1.0  0.06210  0.32160  0.75230  1.0000
  H   H16       1.0  0.93790  0.32160  0.24770  1.0000
  C   C17       1.0  0.41437  0.16248  0.92750  1.0000
  C   C18       1.0  0.58563  0.16248  0.07250  1.0000
  C   C19       1.0  0.91437  0.66248  0.92750  1.0000
  C   C20       1.0  0.08563  0.66248  0.07250  1.0000
  C   C21       1.0  0.58563  0.83752  0.07250  1.0000
  C   C22       1.0  0.41437  0.83752  0.92750  1.0000
  C   C23       1.0  0.08563  0.33752  0.07250  1.0000
  C   C24       1.0  0.91437  0.33752  0.92750  1.0000
  H   H17       1.0  0.44150  0.17170  0.93780  1.0000
  H   H18       1.0  0.55850  0.17170  0.06220  1.0000
  H   H19       1.0  0.94150  0.67170  0.93780  1.0000
  H   H20       1.0  0.05850  0.67170  0.06220  1.0000
  H   H21       1.0  0.55850  0.82830  0.06220  1.0000
  H   H22       1.0  0.44150  0.82830  0.93780  1.0000
  H   H23       1.0  0.05850  0.32830  0.06220  1.0000
  H   H24       1.0  0.94150  0.32830  0.93780  1.0000
  C   C25       1.0  0.37528  0.16338  0.85570  1.0000
  C   C26       1.0  0.62472  0.16338  0.14430  1.0000
  C   C27       1.0  0.87528  0.66338  0.85570  1.0000
  C   C28       1.0  0.12472  0.66338  0.14430  1.0000
  C   C29       1.0  0.62472  0.83662  0.14430  1.0000
  C   C30       1.0  0.37528  0.83662  0.85570  1.0000
  C   C31       1.0  0.12472  0.33662  0.14430  1.0000
  C   C32       1.0  0.87528  0.33662  0.85570  1.0000
  H   H25       1.0  0.37060  0.17360  0.80790  1.0000
  H   H26       1.0  0.62940  0.17360  0.19210  1.0000
  H   H27       1.0  0.87060  0.67360  0.80790  1.0000
  H   H28       1.0  0.12940  0.67360  0.19210  1.0000
  H   H29       1.0  0.62940  0.82640  0.19210  1.0000
  H   H30       1.0  0.37060  0.82640  0.80790  1.0000
  H   H31       1.0  0.12940  0.32640  0.19210  1.0000
  H   H32       1.0  0.87060  0.32640  0.80790  1.0000
  C   C33       1.0  0.21842  0.16900  0.84400  1.0000
  C   C34       1.0  0.78158  0.16900  0.15600  1.0000
  C   C35       1.0  0.71842  0.66900  0.84400  1.0000
  C   C36       1.0  0.28158  0.66900  0.15600  1.0000
  C   C37       1.0  0.78158  0.83100  0.15600  1.0000
  C   C38       1.0  0.21842  0.83100  0.84400  1.0000
  C   C39       1.0  0.28158  0.33100  0.15600  1.0000
  C   C40       1.0  0.71842  0.33100  0.84400  1.0000
  H   H33       1.0  0.19860  0.18050  0.79550  1.0000
  H   H34       1.0  0.80140  0.18050  0.20450  1.0000
  H   H35       1.0  0.69860  0.68050  0.79550  1.0000
  H   H36       1.0  0.30140  0.68050  0.20450  1.0000
  H   H37       1.0  0.80140  0.81950  0.20450  1.0000
  H   H38       1.0  0.19860  0.81950  0.79550  1.0000
  H   H39       1.0  0.30140  0.31950  0.20450  1.0000
  H   H40       1.0  0.69860  0.31950  0.79550  1.0000
  C   C41       1.0  0.21688  0.16842  0.91450  1.0000
  C   C42       1.0  0.78312  0.16842  0.08550  1.0000
  C   C43       1.0  0.71688  0.66842  0.91450  1.0000
  C   C44       1.0  0.28312  0.66842  0.08550  1.0000
  C   C45       1.0  0.78312  0.83158  0.08550  1.0000
  C   C46       1.0  0.21688  0.83158  0.91450  1.0000
  C   C47       1.0  0.28312  0.33158  0.08550  1.0000
  C   C48       1.0  0.71688  0.33158  0.91450  1.0000
  H   H41       1.0  0.19550  0.17890  0.92240  1.0000
  H   H42       1.0  0.80450  0.17890  0.07760  1.0000
  H   H43       1.0  0.69550  0.67890  0.92240  1.0000
  H   H44       1.0  0.30450  0.67890  0.07760  1.0000
  H   H45       1.0  0.80450  0.82110  0.07760  1.0000
  H   H46       1.0  0.19550  0.82110  0.92240  1.0000
  H   H47       1.0  0.30450  0.32110  0.07760  1.0000
  H   H48       1.0  0.69550  0.32110  0.92240  1.0000
  C   C49       1.0  0.18831  0.22177  0.28930  1.0000
  C   C50       1.0  0.81169  0.22177  0.71070  1.0000
  C   C51       1.0  0.68831  0.72177  0.28930  1.0000
  C   C52       1.0  0.31169  0.72177  0.71070  1.0000
  C   C53       1.0  0.81169  0.77823  0.71070  1.0000
  C   C54       1.0  0.18831  0.77823  0.28930  1.0000
  C   C55       1.0  0.31169  0.27823  0.71070  1.0000
  C   C56       1.0  0.68831  0.27823  0.28930  1.0000
  C   C57       1.0  0.19289  0.18753  0.28020  1.0000
  C   C58       1.0  0.80711  0.18753  0.71980  1.0000
  C   C59       1.0  0.69289  0.68753  0.28020  1.0000
  C   C60       1.0  0.30711  0.68753  0.71980  1.0000
  C   C61       1.0  0.80711  0.81247  0.71980  1.0000
  C   C62       1.0  0.19289  0.81247  0.28020  1.0000
  C   C63       1.0  0.30711  0.31247  0.71980  1.0000
  C   C64       1.0  0.69289  0.31247  0.28020  1.0000
  H   H49       1.0  0.18350  0.17150  0.30430  1.0000
  H   H50       1.0  0.81650  0.17150  0.69570  1.0000
  H   H51       1.0  0.68350  0.67150  0.30430  1.0000
  H   H52       1.0  0.31650  0.67150  0.69570  1.0000
  H   H53       1.0  0.81650  0.82850  0.69570  1.0000
  H   H54       1.0  0.18350  0.82850  0.30430  1.0000
  H   H55       1.0  0.31650  0.32850  0.69570  1.0000
  H   H56       1.0  0.68350  0.32850  0.30430  1.0000
  C   C65       1.0  0.21182  0.17624  0.23440  1.0000
  C   C66       1.0  0.78818  0.17624  0.76560  1.0000
  C   C67       1.0  0.71182  0.67624  0.23440  1.0000
  C   C68       1.0  0.28818  0.67624  0.76560  1.0000
  C   C69       1.0  0.78818  0.82376  0.76560  1.0000
  C   C70       1.0  0.21182  0.82376  0.23440  1.0000
  C   C71       1.0  0.28818  0.32376  0.76560  1.0000
  C   C72       1.0  0.71182  0.32376  0.23440  1.0000
  H   H57       1.0  0.21500  0.15290  0.22840  1.0000
  H   H58       1.0  0.78500  0.15290  0.77160  1.0000
  H   H59       1.0  0.71500  0.65290  0.22840  1.0000
  H   H60       1.0  0.28500  0.65290  0.77160  1.0000
  H   H61       1.0  0.78500  0.84710  0.77160  1.0000
  H   H62       1.0  0.21500  0.84710  0.22840  1.0000
  H   H63       1.0  0.28500  0.34710  0.77160  1.0000
  H   H64       1.0  0.71500  0.34710  0.22840  1.0000
  C   C73       1.0  0.22543  0.20020  0.19870  1.0000
  C   C74       1.0  0.77457  0.20020  0.80130  1.0000
  C   C75       1.0  0.72543  0.70020  0.19870  1.0000
  C   C76       1.0  0.27457  0.70020  0.80130  1.0000
  C   C77       1.0  0.77457  0.79980  0.80130  1.0000
  C   C78       1.0  0.22543  0.79980  0.19870  1.0000
  C   C79       1.0  0.27457  0.29980  0.80130  1.0000
  C   C80       1.0  0.72543  0.29980  0.19870  1.0000
  C   C81       1.0  0.22022  0.23435  0.20740  1.0000
  C   C82       1.0  0.77978  0.23435  0.79260  1.0000
  C   C83       1.0  0.72022  0.73435  0.20740  1.0000
  C   C84       1.0  0.27978  0.73435  0.79260  1.0000
  C   C85       1.0  0.77978  0.76565  0.79260  1.0000
  C   C86       1.0  0.22022  0.76565  0.20740  1.0000
  C   C87       1.0  0.27978  0.26565  0.79260  1.0000
  C   C88       1.0  0.72022  0.26565  0.20740  1.0000
  H   H65       1.0  0.22910  0.25050  0.18290  1.0000
  H   H66       1.0  0.77090  0.25050  0.81710  1.0000
  H   H67       1.0  0.72910  0.75050  0.18290  1.0000
  H   H68       1.0  0.27090  0.75050  0.81710  1.0000
  H   H69       1.0  0.77090  0.74950  0.81710  1.0000
  H   H70       1.0  0.22910  0.74950  0.18290  1.0000
  H   H71       1.0  0.27090  0.24950  0.81710  1.0000
  H   H72       1.0  0.72910  0.24950  0.18290  1.0000
  C   C89       1.0  0.20184  0.24496  0.25250  1.0000
  C   C90       1.0  0.79816  0.24496  0.74750  1.0000
  C   C91       1.0  0.70184  0.74496  0.25250  1.0000
  C   C92       1.0  0.29816  0.74496  0.74750  1.0000
  C   C93       1.0  0.79816  0.75504  0.74750  1.0000
  C   C94       1.0  0.20184  0.75504  0.25250  1.0000
  C   C95       1.0  0.29816  0.25504  0.74750  1.0000
  C   C96       1.0  0.70184  0.25504  0.25250  1.0000
  H   H73       1.0  0.19850  0.26830  0.25800  1.0000
  H   H74       1.0  0.80150  0.26830  0.74200  1.0000
  H   H75       1.0  0.69850  0.76830  0.25800  1.0000
  H   H76       1.0  0.30150  0.76830  0.74200  1.0000
  H   H77       1.0  0.80150  0.73170  0.74200  1.0000
  H   H78       1.0  0.19850  0.73170  0.25800  1.0000
  H   H79       1.0  0.30150  0.23170  0.74200  1.0000
  H   H80       1.0  0.69850  0.23170  0.25800  1.0000
  C   C97       1.0  0.24708  0.18707  0.15190  1.0000
  C   C98       1.0  0.75292  0.18707  0.84810  1.0000
  C   C99       1.0  0.74708  0.68707  0.15190  1.0000
  C   C100      1.0  0.25292  0.68707  0.84810  1.0000
  C   C101      1.0  0.75292  0.81293  0.84810  1.0000
  C   C102      1.0  0.24708  0.81293  0.15190  1.0000
  C   C103      1.0  0.25292  0.31293  0.84810  1.0000
  C   C104      1.0  0.74708  0.31293  0.15190  1.0000
  C   C105      1.0  0.13225  0.25566  0.29920  1.0000
  C   C106      1.0  0.86775  0.25566  0.70080  1.0000
  C   C107      1.0  0.63225  0.75566  0.29920  1.0000
  C   C108      1.0  0.36775  0.75566  0.70080  1.0000
  C   C109      1.0  0.86775  0.74434  0.70080  1.0000
  C   C110      1.0  0.13225  0.74434  0.29920  1.0000
  C   C111      1.0  0.36775  0.24434  0.70080  1.0000
  C   C112      1.0  0.63225  0.24434  0.29920  1.0000
  C   C113      1.0  0.09962  0.25327  0.21610  1.0000
  C   C114      1.0  0.90038  0.25327  0.78390  1.0000
  C   C115      1.0  0.59962  0.75327  0.21610  1.0000
  C   C116      1.0  0.40038  0.75327  0.78390  1.0000
  C   C117      1.0  0.90038  0.74673  0.78390  1.0000
  C   C118      1.0  0.09962  0.74673  0.21610  1.0000
  C   C119      1.0  0.40038  0.24673  0.78390  1.0000
  C   C120      1.0  0.59962  0.24673  0.21610  1.0000
  H   H81       1.0  0.10190  0.23670  0.18340  1.0000
  H   H82       1.0  0.89810  0.23670  0.81660  1.0000
  H   H83       1.0  0.60190  0.73670  0.18340  1.0000
  H   H84       1.0  0.39810  0.73670  0.81660  1.0000
  H   H85       1.0  0.89810  0.76330  0.81660  1.0000
  H   H86       1.0  0.10190  0.76330  0.18340  1.0000
  H   H87       1.0  0.39810  0.26330  0.81660  1.0000
  H   H88       1.0  0.60190  0.26330  0.18340  1.0000
  C   C121      1.0  0.06271  0.27649  0.18160  1.0000
  C   C122      1.0  0.93729  0.27649  0.81840  1.0000
  C   C123      1.0  0.56271  0.77649  0.18160  1.0000
  C   C124      1.0  0.43729  0.77649  0.81840  1.0000
  C   C125      1.0  0.93729  0.72351  0.81840  1.0000
  C   C126      1.0  0.06271  0.72351  0.18160  1.0000
  C   C127      1.0  0.43729  0.22351  0.81840  1.0000
  C   C128      1.0  0.56271  0.22351  0.18160  1.0000
  H   H89       1.0  0.04080  0.27500  0.12600  1.0000
  H   H90       1.0  0.95920  0.27500  0.87400  1.0000
  H   H91       1.0  0.54080  0.77500  0.12600  1.0000
  H   H92       1.0  0.45920  0.77500  0.87400  1.0000
  H   H93       1.0  0.95920  0.72500  0.87400  1.0000
  H   H94       1.0  0.04080  0.72500  0.12600  1.0000
  H   H95       1.0  0.45920  0.22500  0.87400  1.0000
  H   H96       1.0  0.54080  0.22500  0.12600  1.0000
  C   C129      1.0  0.05875  0.30155  0.23020  1.0000
  C   C130      1.0  0.94125  0.30155  0.76980  1.0000
  C   C131      1.0  0.55875  0.80155  0.23020  1.0000
  C   C132      1.0  0.44125  0.80155  0.76980  1.0000
  C   C133      1.0  0.94125  0.69845  0.76980  1.0000
  C   C134      1.0  0.05875  0.69845  0.23020  1.0000
  C   C135      1.0  0.44125  0.19845  0.76980  1.0000
  C   C136      1.0  0.55875  0.19845  0.23020  1.0000
  C   C137      1.0  0.08952  0.30223  0.30890  1.0000
  C   C138      1.0  0.91048  0.30223  0.69110  1.0000
  C   C139      1.0  0.58952  0.80223  0.30890  1.0000
  C   C140      1.0  0.41048  0.80223  0.69110  1.0000
  C   C141      1.0  0.91048  0.69777  0.69110  1.0000
  C   C142      1.0  0.08952  0.69777  0.30890  1.0000
  C   C143      1.0  0.41048  0.19777  0.69110  1.0000
  C   C144      1.0  0.58952  0.19777  0.30890  1.0000
  H   H97       1.0  0.08640  0.31790  0.34240  1.0000
  H   H98       1.0  0.91360  0.31790  0.65760  1.0000
  H   H99       1.0  0.58640  0.81790  0.34240  1.0000
  H   H100      1.0  0.41360  0.81790  0.65760  1.0000
  H   H101      1.0  0.91360  0.68210  0.65760  1.0000
  H   H102      1.0  0.08640  0.68210  0.34240  1.0000
  H   H103      1.0  0.41360  0.18210  0.65760  1.0000
  H   H104      1.0  0.58640  0.18210  0.34240  1.0000
  C   C145      1.0  0.12655  0.28032  0.34420  1.0000
  C   C146      1.0  0.87345  0.28032  0.65580  1.0000
  C   C147      1.0  0.62655  0.78032  0.34420  1.0000
  C   C148      1.0  0.37345  0.78032  0.65580  1.0000
  C   C149      1.0  0.87345  0.71968  0.65580  1.0000
  C   C150      1.0  0.12655  0.71968  0.34420  1.0000
  C   C151      1.0  0.37345  0.21968  0.65580  1.0000
  C   C152      1.0  0.62655  0.21968  0.34420  1.0000
  H   H105      1.0  0.14810  0.28250  0.39980  1.0000
  H   H106      1.0  0.85190  0.28250  0.60020  1.0000
  H   H107      1.0  0.64810  0.78250  0.39980  1.0000
  H   H108      1.0  0.35190  0.78250  0.60020  1.0000
  H   H109      1.0  0.85190  0.71750  0.60020  1.0000
  H   H110      1.0  0.14810  0.71750  0.39980  1.0000
  H   H111      1.0  0.35190  0.21750  0.60020  1.0000
  H   H112      1.0  0.64810  0.21750  0.39980  1.0000
  C   C153      1.0  0.01816  0.32503  0.18780  1.0000
  C   C154      1.0  0.98184  0.32503  0.81220  1.0000
  C   C155      1.0  0.51816  0.82503  0.18780  1.0000
  C   C156      1.0  0.48184  0.82503  0.81220  1.0000
  C   C157      1.0  0.98184  0.67497  0.81220  1.0000
  C   C158      1.0  0.01816  0.67497  0.18780  1.0000
  C   C159      1.0  0.48184  0.17497  0.81220  1.0000
  C   C160      1.0  0.51816  0.17497  0.18780  1.0000
  C   C161      1.0  0.18460  0.21830  0.41320  1.0000
  C   C162      1.0  0.81540  0.21830  0.58680  1.0000
  C   C163      1.0  0.68460  0.71830  0.41320  1.0000
  C   C164      1.0  0.31540  0.71830  0.58680  1.0000
  C   C165      1.0  0.81540  0.78170  0.58680  1.0000
  C   C166      1.0  0.18460  0.78170  0.41320  1.0000
  C   C167      1.0  0.31540  0.28170  0.58680  1.0000
  C   C168      1.0  0.68460  0.28170  0.41320  1.0000
  C   C169      1.0  0.22908  0.21078  0.46560  1.0000
  C   C170      1.0  0.77092  0.21078  0.53440  1.0000
  C   C171      1.0  0.72908  0.71078  0.46560  1.0000
  C   C172      1.0  0.27092  0.71078  0.53440  1.0000
  C   C173      1.0  0.77092  0.78922  0.53440  1.0000
  C   C174      1.0  0.22908  0.78922  0.46560  1.0000
  C   C175      1.0  0.27092  0.28922  0.53440  1.0000
  C   C176      1.0  0.72908  0.28922  0.46560  1.0000
  H   H113      1.0  0.24960  0.21600  0.45010  1.0000
  H   H114      1.0  0.75040  0.21600  0.54990  1.0000
  H   H115      1.0  0.74960  0.71600  0.45010  1.0000
  H   H116      1.0  0.25040  0.71600  0.54990  1.0000
  H   H117      1.0  0.75040  0.78400  0.54990  1.0000
  H   H118      1.0  0.24960  0.78400  0.45010  1.0000
  H   H119      1.0  0.25040  0.28400  0.54990  1.0000
  H   H120      1.0  0.74960  0.28400  0.45010  1.0000
  C   C177      1.0  0.24424  0.19561  0.54070  1.0000
  C   C178      1.0  0.75576  0.19561  0.45930  1.0000
  C   C179      1.0  0.74424  0.69561  0.54070  1.0000
  C   C180      1.0  0.25576  0.69561  0.45930  1.0000
  C   C181      1.0  0.75576  0.80439  0.45930  1.0000
  C   C182      1.0  0.24424  0.80439  0.54070  1.0000
  C   C183      1.0  0.25576  0.30439  0.45930  1.0000
  C   C184      1.0  0.74424  0.30439  0.54070  1.0000
  H   H121      1.0  0.27470  0.19060  0.57520  1.0000
  H   H122      1.0  0.72530  0.19060  0.42480  1.0000
  H   H123      1.0  0.77470  0.69060  0.57520  1.0000
  H   H124      1.0  0.22530  0.69060  0.42480  1.0000
  H   H125      1.0  0.72530  0.80940  0.42480  1.0000
  H   H126      1.0  0.27470  0.80940  0.57520  1.0000
  H   H127      1.0  0.22530  0.30940  0.42480  1.0000
  H   H128      1.0  0.77470  0.30940  0.57520  1.0000
  C   C185      1.0  0.21456  0.18785  0.56450  1.0000
  C   C186      1.0  0.78544  0.18785  0.43550  1.0000
  C   C187      1.0  0.71456  0.68785  0.56450  1.0000
  C   C188      1.0  0.28544  0.68785  0.43550  1.0000
  C   C189      1.0  0.78544  0.81215  0.43550  1.0000
  C   C190      1.0  0.21456  0.81215  0.56450  1.0000
  C   C191      1.0  0.28544  0.31215  0.43550  1.0000
  C   C192      1.0  0.71456  0.31215  0.56450  1.0000
  C   C193      1.0  0.17023  0.19504  0.51300  1.0000
  C   C194      1.0  0.82977  0.19504  0.48700  1.0000
  C   C195      1.0  0.67023  0.69504  0.51300  1.0000
  C   C196      1.0  0.32977  0.69504  0.48700  1.0000
  C   C197      1.0  0.82977  0.80496  0.48700  1.0000
  C   C198      1.0  0.17023  0.80496  0.51300  1.0000
  C   C199      1.0  0.32977  0.30496  0.48700  1.0000
  C   C200      1.0  0.67023  0.30496  0.51300  1.0000
  H   H129      1.0  0.14980  0.18970  0.52870  1.0000
  H   H130      1.0  0.85020  0.18970  0.47130  1.0000
  H   H131      1.0  0.64980  0.68970  0.52870  1.0000
  H   H132      1.0  0.35020  0.68970  0.47130  1.0000
  H   H133      1.0  0.85020  0.81030  0.47130  1.0000
  H   H134      1.0  0.14980  0.81030  0.52870  1.0000
  H   H135      1.0  0.35020  0.31030  0.47130  1.0000
  H   H136      1.0  0.64980  0.31030  0.52870  1.0000
  C   C201      1.0  0.15507  0.21022  0.43770  1.0000
  C   C202      1.0  0.84493  0.21022  0.56230  1.0000
  C   C203      1.0  0.65507  0.71022  0.43770  1.0000
  C   C204      1.0  0.34493  0.71022  0.56230  1.0000
  C   C205      1.0  0.84493  0.78978  0.56230  1.0000
  C   C206      1.0  0.15507  0.78978  0.43770  1.0000
  C   C207      1.0  0.34493  0.28978  0.56230  1.0000
  C   C208      1.0  0.65507  0.28978  0.43770  1.0000
  H   H137      1.0  0.12460  0.21500  0.40320  1.0000
  H   H138      1.0  0.87540  0.21500  0.59680  1.0000
  H   H139      1.0  0.62460  0.71500  0.40320  1.0000
  H   H140      1.0  0.37540  0.71500  0.59680  1.0000
  H   H141      1.0  0.87540  0.78500  0.59680  1.0000
  H   H142      1.0  0.12460  0.78500  0.40320  1.0000
  H   H143      1.0  0.37540  0.28500  0.59680  1.0000
  H   H144      1.0  0.62460  0.28500  0.40320  1.0000
  C   C209      1.0  0.23280  0.17042  0.64840  1.0000
  C   C210      1.0  0.76720  0.17042  0.35160  1.0000
  C   C211      1.0  0.73280  0.67042  0.64840  1.0000
  C   C212      1.0  0.26720  0.67042  0.35160  1.0000
  C   C213      1.0  0.76720  0.82958  0.35160  1.0000
  C   C214      1.0  0.23280  0.82958  0.64840  1.0000
  C   C215      1.0  0.26720  0.32958  0.35160  1.0000
  C   C216      1.0  0.73280  0.32958  0.64840  1.0000
  C   C217      1.0  0.25253  0.01814  0.11270  1.0000
  C   C218      1.0  0.74747  0.01814  0.88730  1.0000
  C   C219      1.0  0.75253  0.51814  0.11270  1.0000
  C   C220      1.0  0.24747  0.51814  0.88730  1.0000
  C   C221      1.0  0.74747  0.98186  0.88730  1.0000
  C   C222      1.0  0.25253  0.98186  0.11270  1.0000
  C   C223      1.0  0.24747  0.48186  0.88730  1.0000
  C   C224      1.0  0.75253  0.48186  0.11270  1.0000
  H   H145      1.0  0.23750  0.03150  0.13120  1.0000
  H   H146      1.0  0.76250  0.03150  0.86880  1.0000
  H   H147      1.0  0.73750  0.53150  0.13120  1.0000
  H   H148      1.0  0.26250  0.53150  0.86880  1.0000
  H   H149      1.0  0.76250  0.96850  0.86880  1.0000
  H   H150      1.0  0.23750  0.96850  0.13120  1.0000
  H   H151      1.0  0.26250  0.46850  0.86880  1.0000
  H   H152      1.0  0.73750  0.46850  0.13120  1.0000
  C   C225      1.0  0.27729  0.03132  0.08210  1.0000
  C   C226      1.0  0.72271  0.03132  0.91790  1.0000
  C   C227      1.0  0.77729  0.53132  0.08210  1.0000
  C   C228      1.0  0.22271  0.53132  0.91790  1.0000
  C   C229      1.0  0.72271  0.96868  0.91790  1.0000
  C   C230      1.0  0.27729  0.96868  0.08210  1.0000
  C   C231      1.0  0.22271  0.46868  0.91790  1.0000
  C   C232      1.0  0.77729  0.46868  0.08210  1.0000
  C   C233      1.0  0.28459  0.06778  0.07200  1.0000
  C   C234      1.0  0.71541  0.06778  0.92800  1.0000
  C   C235      1.0  0.78459  0.56778  0.07200  1.0000
  C   C236      1.0  0.21541  0.56778  0.92800  1.0000
  C   C237      1.0  0.71541  0.93222  0.92800  1.0000
  C   C238      1.0  0.28459  0.93222  0.07200  1.0000
  C   C239      1.0  0.21541  0.43222  0.92800  1.0000
  C   C240      1.0  0.78459  0.43222  0.07200  1.0000
  C   C241      1.0  0.48780  0.01792  0.15860  1.0000
  C   C242      1.0  0.51220  0.01792  0.84140  1.0000
  C   C243      1.0  0.98780  0.51792  0.15860  1.0000
  C   C244      1.0  0.01220  0.51792  0.84140  1.0000
  C   C245      1.0  0.51220  0.98208  0.84140  1.0000
  C   C246      1.0  0.48780  0.98208  0.15860  1.0000
  C   C247      1.0  0.01220  0.48208  0.84140  1.0000
  C   C248      1.0  0.98780  0.48208  0.15860  1.0000
  H   H153      1.0  0.51360  0.03120  0.18880  1.0000
  H   H154      1.0  0.48640  0.03120  0.81120  1.0000
  H   H155      1.0  0.01360  0.53120  0.18880  1.0000
  H   H156      1.0  0.98640  0.53120  0.81120  1.0000
  H   H157      1.0  0.48640  0.96880  0.81120  1.0000
  H   H158      1.0  0.51360  0.96880  0.18880  1.0000
  H   H159      1.0  0.98640  0.46880  0.81120  1.0000
  H   H160      1.0  0.01360  0.46880  0.18880  1.0000
  C   C249      1.0  0.44560  0.03139  0.10910  1.0000
  C   C250      1.0  0.55440  0.03139  0.89090  1.0000
  C   C251      1.0  0.94560  0.53139  0.10910  1.0000
  C   C252      1.0  0.05440  0.53139  0.89090  1.0000
  C   C253      1.0  0.55440  0.96861  0.89090  1.0000
  C   C254      1.0  0.44560  0.96861  0.10910  1.0000
  C   C255      1.0  0.05440  0.46861  0.89090  1.0000
  C   C256      1.0  0.94560  0.46861  0.10910  1.0000
  C   C257      1.0  0.43135  0.06766  0.09240  1.0000
  C   C258      1.0  0.56865  0.06766  0.90760  1.0000
  C   C259      1.0  0.93135  0.56766  0.09240  1.0000
  C   C260      1.0  0.06865  0.56766  0.90760  1.0000
  C   C261      1.0  0.56865  0.93234  0.90760  1.0000
  C   C262      1.0  0.43135  0.93234  0.09240  1.0000
  C   C263      1.0  0.06865  0.43234  0.90760  1.0000
  C   C264      1.0  0.93135  0.43234  0.09240  1.0000
  C   C265      1.0  0.25751  0.01794  0.71260  1.0000
  C   C266      1.0  0.74249  0.01794  0.28740  1.0000
  C   C267      1.0  0.75751  0.51794  0.71260  1.0000
  C   C268      1.0  0.24249  0.51794  0.28740  1.0000
  C   C269      1.0  0.74249  0.98206  0.28740  1.0000
  C   C270      1.0  0.25751  0.98206  0.71260  1.0000
  C   C271      1.0  0.24249  0.48206  0.28740  1.0000
  C   C272      1.0  0.75751  0.48206  0.71260  1.0000
  H   H161      1.0  0.24440  0.03110  0.66490  1.0000
  H   H162      1.0  0.75560  0.03110  0.33510  1.0000
  H   H163      1.0  0.74440  0.53110  0.66490  1.0000
  H   H164      1.0  0.25560  0.53110  0.33510  1.0000
  H   H165      1.0  0.75560  0.96890  0.33510  1.0000
  H   H166      1.0  0.24440  0.96890  0.66490  1.0000
  H   H167      1.0  0.25560  0.46890  0.33510  1.0000
  H   H168      1.0  0.74440  0.46890  0.66490  1.0000
  C   C273      1.0  0.27858  0.03162  0.78936  1.0000
  C   C274      1.0  0.72142  0.03162  0.21064  1.0000
  C   C275      1.0  0.77858  0.53162  0.78936  1.0000
  C   C276      1.0  0.22142  0.53162  0.21064  1.0000
  C   C277      1.0  0.72142  0.96838  0.21064  1.0000
  C   C278      1.0  0.27858  0.96838  0.78936  1.0000
  C   C279      1.0  0.22142  0.46838  0.21064  1.0000
  C   C280      1.0  0.77858  0.46838  0.78936  1.0000
  C   C281      1.0  0.28455  0.06798  0.81360  1.0000
  C   C282      1.0  0.71545  0.06798  0.18640  1.0000
  C   C283      1.0  0.78455  0.56798  0.81360  1.0000
  C   C284      1.0  0.21545  0.56798  0.18640  1.0000
  C   C285      1.0  0.71545  0.93202  0.18640  1.0000
  C   C286      1.0  0.28455  0.93202  0.81360  1.0000
  C   C287      1.0  0.21545  0.43202  0.18640  1.0000
  C   C288      1.0  0.78455  0.43202  0.81360  1.0000
  N   N1        1.0  0.34210  0.14865  0.13940  1.0000
  N   N2        1.0  0.65790  0.14865  0.86060  1.0000
  N   N3        1.0  0.84210  0.64865  0.13940  1.0000
  N   N4        1.0  0.15790  0.64865  0.86060  1.0000
  N   N5        1.0  0.65790  0.85135  0.86060  1.0000
  N   N6        1.0  0.34210  0.85135  0.13940  1.0000
  N   N7        1.0  0.15790  0.35135  0.86060  1.0000
  N   N8        1.0  0.84210  0.35135  0.13940  1.0000
  N   N9        1.0  0.36426  0.13820  0.10303  1.0000
  N   N10       1.0  0.63574  0.13820  0.89697  1.0000
  N   N11       1.0  0.86426  0.63820  0.10303  1.0000
  N   N12       1.0  0.13574  0.63820  0.89697  1.0000
  N   N13       1.0  0.63574  0.86180  0.89697  1.0000
  N   N14       1.0  0.36426  0.86180  0.10303  1.0000
  N   N15       1.0  0.13574  0.36180  0.89697  1.0000
  N   N16       1.0  0.86426  0.36180  0.10303  1.0000
  N   N17       1.0  0.40591  0.14911  0.14380  1.0000
  N   N18       1.0  0.59409  0.14911  0.85620  1.0000
  N   N19       1.0  0.90591  0.64911  0.14380  1.0000
  N   N20       1.0  0.09409  0.64911  0.85620  1.0000
  N   N21       1.0  0.59409  0.85089  0.85620  1.0000
  N   N22       1.0  0.40591  0.85089  0.14380  1.0000
  N   N23       1.0  0.09409  0.35089  0.85620  1.0000
  N   N24       1.0  0.90591  0.35089  0.14380  1.0000
  N   N25       1.0  0.40801  0.14597  0.98244  1.0000
  N   N26       1.0  0.59199  0.14597  0.01756  1.0000
  N   N27       1.0  0.90801  0.64597  0.98244  1.0000
  N   N28       1.0  0.09199  0.64597  0.01756  1.0000
  N   N29       1.0  0.59199  0.85403  0.01756  1.0000
  N   N30       1.0  0.40801  0.85403  0.98244  1.0000
  N   N31       1.0  0.09199  0.35403  0.01756  1.0000
  N   N32       1.0  0.90801  0.35403  0.98244  1.0000
  N   N33       1.0  0.36487  0.13693  0.94230  1.0000
  N   N34       1.0  0.63513  0.13693  0.05770  1.0000
  N   N35       1.0  0.86487  0.63693  0.94230  1.0000
  N   N36       1.0  0.13513  0.63693  0.05770  1.0000
  N   N37       1.0  0.63513  0.86307  0.05770  1.0000
  N   N38       1.0  0.36487  0.86307  0.94230  1.0000
  N   N39       1.0  0.13513  0.36307  0.05770  1.0000
  N   N40       1.0  0.86487  0.36307  0.94230  1.0000
  N   N41       1.0  0.34404  0.14719  0.86376  1.0000
  N   N42       1.0  0.65596  0.14719  0.13624  1.0000
  N   N43       1.0  0.84404  0.64719  0.86376  1.0000
  N   N44       1.0  0.15596  0.64719  0.13624  1.0000
  N   N45       1.0  0.65596  0.85281  0.13624  1.0000
  N   N46       1.0  0.34404  0.85281  0.86376  1.0000
  N   N47       1.0  0.15596  0.35281  0.13624  1.0000
  N   N48       1.0  0.84404  0.35281  0.86376  1.0000
  N   N49       1.0  0.25353  0.15009  0.85795  1.0000
  N   N50       1.0  0.74647  0.15009  0.14205  1.0000
  N   N51       1.0  0.75353  0.65009  0.85795  1.0000
  N   N52       1.0  0.24647  0.65009  0.14205  1.0000
  N   N53       1.0  0.74647  0.84991  0.14205  1.0000
  N   N54       1.0  0.25353  0.84991  0.85795  1.0000
  N   N55       1.0  0.24647  0.34991  0.14205  1.0000
  N   N56       1.0  0.75353  0.34991  0.85795  1.0000
  N   N57       1.0  0.27438  0.13853  0.93445  1.0000
  N   N58       1.0  0.72562  0.13853  0.06555  1.0000
  N   N59       1.0  0.77438  0.63853  0.93445  1.0000
  N   N60       1.0  0.22562  0.63853  0.06555  1.0000
  N   N61       1.0  0.72562  0.86147  0.06555  1.0000
  N   N62       1.0  0.27438  0.86147  0.93445  1.0000
  N   N63       1.0  0.22562  0.36147  0.06555  1.0000
  N   N64       1.0  0.77438  0.36147  0.93445  1.0000
  N   N65       1.0  0.25259  0.14965  0.96991  1.0000
  N   N66       1.0  0.74741  0.14965  0.03009  1.0000
  N   N67       1.0  0.75259  0.64965  0.96991  1.0000
  N   N68       1.0  0.24741  0.64965  0.03009  1.0000
  N   N69       1.0  0.74741  0.85035  0.03009  1.0000
  N   N70       1.0  0.25259  0.85035  0.96991  1.0000
  N   N71       1.0  0.24741  0.35035  0.03009  1.0000
  N   N72       1.0  0.75259  0.35035  0.96991  1.0000
  N   N73       1.0  0.16880  0.23270  0.33514  1.0000
  N   N74       1.0  0.83120  0.23270  0.66486  1.0000
  N   N75       1.0  0.66880  0.73270  0.33514  1.0000
  N   N76       1.0  0.33120  0.73270  0.66486  1.0000
  N   N77       1.0  0.83120  0.76730  0.66486  1.0000
  N   N78       1.0  0.16880  0.76730  0.33514  1.0000
  N   N79       1.0  0.33120  0.26730  0.66486  1.0000
  N   N80       1.0  0.66880  0.26730  0.33514  1.0000
  O   O1        1.0  0.24932  0.15561  0.14690  1.0000
  O   O2        1.0  0.75068  0.15561  0.85310  1.0000
  O   O3        1.0  0.74932  0.65561  0.14690  1.0000
  O   O4        1.0  0.25068  0.65561  0.85310  1.0000
  O   O5        1.0  0.75068  0.84439  0.85310  1.0000
  O   O6        1.0  0.24932  0.84439  0.14690  1.0000
  O   O7        1.0  0.25068  0.34439  0.85310  1.0000
  O   O8        1.0  0.74932  0.34439  0.14690  1.0000
  O   O9        1.0  0.26040  0.20774  0.12200  1.0000
  O   O10       1.0  0.73960  0.20774  0.87800  1.0000
  O   O11       1.0  0.76040  0.70774  0.12200  1.0000
  O   O12       1.0  0.23960  0.70774  0.87800  1.0000
  O   O13       1.0  0.73960  0.79226  0.87800  1.0000
  O   O14       1.0  0.26040  0.79226  0.12200  1.0000
  O   O15       1.0  0.23960  0.29226  0.87800  1.0000
  O   O16       1.0  0.76040  0.29226  0.12200  1.0000
  O   O17       1.0  0.01113  0.34245  0.23530  1.0000
  O   O18       1.0  0.98887  0.34245  0.76470  1.0000
  O   O19       1.0  0.51113  0.84245  0.23530  1.0000
  O   O20       1.0  0.48887  0.84245  0.76470  1.0000
  O   O21       1.0  0.98887  0.65755  0.76470  1.0000
  O   O22       1.0  0.01113  0.65755  0.23530  1.0000
  O   O23       1.0  0.48887  0.15755  0.76470  1.0000
  O   O24       1.0  0.51113  0.15755  0.23530  1.0000
  O   O25       1.0  0.99496  0.32641  0.11490  1.0000
  O   O26       1.0  0.00504  0.32641  0.88510  1.0000
  O   O27       1.0  0.49496  0.82641  0.11490  1.0000
  O   O28       1.0  0.50504  0.82641  0.88510  1.0000
  O   O29       1.0  0.00504  0.67359  0.88510  1.0000
  O   O30       1.0  0.99496  0.67359  0.11490  1.0000
  O   O31       1.0  0.50504  0.17359  0.88510  1.0000
  O   O32       1.0  0.49496  0.17359  0.11490  1.0000
  O   O33       1.0  0.27248  0.16454  0.69176  1.0000
  O   O34       1.0  0.72752  0.16454  0.30824  1.0000
  O   O35       1.0  0.77248  0.66454  0.69176  1.0000
  O   O36       1.0  0.22752  0.66454  0.30824  1.0000
  O   O37       1.0  0.72752  0.83546  0.30824  1.0000
  O   O38       1.0  0.27248  0.83546  0.69176  1.0000
  O   O39       1.0  0.22752  0.33546  0.30824  1.0000
  O   O40       1.0  0.77248  0.33546  0.69176  1.0000
  O   O41       1.0  0.20447  0.16196  0.66670  1.0000
  O   O42       1.0  0.79553  0.16196  0.33330  1.0000
  O   O43       1.0  0.70447  0.66196  0.66670  1.0000
  O   O44       1.0  0.29553  0.66196  0.33330  1.0000
  O   O45       1.0  0.79553  0.83804  0.33330  1.0000
  O   O46       1.0  0.20447  0.83804  0.66670  1.0000
  O   O47       1.0  0.29553  0.33804  0.33330  1.0000
  O   O48       1.0  0.70447  0.33804  0.66670  1.0000
  O   O49       1.0  0.26825  0.08995  0.09797  1.0000
  O   O50       1.0  0.73175  0.08995  0.90203  1.0000
  O   O51       1.0  0.76825  0.58995  0.09797  1.0000
  O   O52       1.0  0.23175  0.58995  0.90203  1.0000
  O   O53       1.0  0.73175  0.91005  0.90203  1.0000
  O   O54       1.0  0.26825  0.91005  0.09797  1.0000
  O   O55       1.0  0.23175  0.41005  0.90203  1.0000
  O   O56       1.0  0.76825  0.41005  0.09797  1.0000
  O   O57       1.0  0.30680  0.07365  0.03979  1.0000
  O   O58       1.0  0.69320  0.07365  0.96021  1.0000
  O   O59       1.0  0.80680  0.57365  0.03979  1.0000
  O   O60       1.0  0.19320  0.57365  0.96021  1.0000
  O   O61       1.0  0.69320  0.92635  0.96021  1.0000
  O   O62       1.0  0.30680  0.92635  0.03979  1.0000
  O   O63       1.0  0.19320  0.42635  0.96021  1.0000
  O   O64       1.0  0.80680  0.42635  0.03979  1.0000
  O   O65       1.0  0.39126  0.07435  0.04770  1.0000
  O   O66       1.0  0.60874  0.07435  0.95230  1.0000
  O   O67       1.0  0.89126  0.57435  0.04770  1.0000
  O   O68       1.0  0.10874  0.57435  0.95230  1.0000
  O   O69       1.0  0.60874  0.92565  0.95230  1.0000
  O   O70       1.0  0.39126  0.92565  0.04770  1.0000
  O   O71       1.0  0.10874  0.42565  0.95230  1.0000
  O   O72       1.0  0.89126  0.42565  0.04770  1.0000
  O   O73       1.0  0.46269  0.08949  0.12522  1.0000
  O   O74       1.0  0.53731  0.08949  0.87478  1.0000
  O   O75       1.0  0.96269  0.58949  0.12522  1.0000
  O   O76       1.0  0.03731  0.58949  0.87478  1.0000
  O   O77       1.0  0.53731  0.91051  0.87478  1.0000
  O   O78       1.0  0.46269  0.91051  0.12522  1.0000
  O   O79       1.0  0.03731  0.41051  0.87478  1.0000
  O   O80       1.0  0.96269  0.41051  0.12522  1.0000
  O   O81       1.0  0.30587  0.07436  0.88915  1.0000
  O   O82       1.0  0.69413  0.07436  0.11085  1.0000
  O   O83       1.0  0.80587  0.57436  0.88915  1.0000
  O   O84       1.0  0.19413  0.57436  0.11085  1.0000
  O   O85       1.0  0.69413  0.92564  0.11085  1.0000
  O   O86       1.0  0.30587  0.92564  0.88915  1.0000
  O   O87       1.0  0.19413  0.42564  0.11085  1.0000
  O   O88       1.0  0.80587  0.42564  0.88915  1.0000
  O   O89       1.0  0.26848  0.09015  0.75660  1.0000
  O   O90       1.0  0.73152  0.09015  0.24340  1.0000
  O   O91       1.0  0.76848  0.59015  0.75660  1.0000
  O   O92       1.0  0.23152  0.59015  0.24340  1.0000
  O   O93       1.0  0.73152  0.90985  0.24340  1.0000
  O   O94       1.0  0.26848  0.90985  0.75660  1.0000
  O   O95       1.0  0.23152  0.40985  0.24340  1.0000
  O   O96       1.0  0.76848  0.40985  0.75660  1.0000
  Zn  Zn1       1.0  0.33425  0.10594  0.99281  1.0000
  Zn  Zn2       1.0  0.66575  0.10594  0.00719  1.0000
  Zn  Zn3       1.0  0.83425  0.60594  0.99281  1.0000
  Zn  Zn4       1.0  0.16575  0.60594  0.00719  1.0000
  Zn  Zn5       1.0  0.66575  0.89406  0.00719  1.0000
  Zn  Zn6       1.0  0.33425  0.89406  0.99281  1.0000
  Zn  Zn7       1.0  0.16575  0.39406  0.00719  1.0000
  Zn  Zn8       1.0  0.83425  0.39406  0.99281  1.0000
  Zn  Zn9       1.0  0.27649  0.13908  0.08951  1.0000
  Zn  Zn10      1.0  0.72351  0.13908  0.91049  1.0000
  Zn  Zn11      1.0  0.77649  0.63908  0.08951  1.0000
  Zn  Zn12      1.0  0.22351  0.63908  0.91049  1.0000
  Zn  Zn13      1.0  0.72351  0.86092  0.91049  1.0000
  Zn  Zn14      1.0  0.27649  0.86092  0.08951  1.0000
  Zn  Zn15      1.0  0.22351  0.36092  0.91049  1.0000
  Zn  Zn16      1.0  0.77649  0.36092  0.08951  1.0000
  Zn  Zn17      1.0  0.44932  0.13867  0.10585  1.0000
  Zn  Zn18      1.0  0.55068  0.13867  0.89415  1.0000
  Zn  Zn19      1.0  0.94932  0.63867  0.10585  1.0000
  Zn  Zn20      1.0  0.05068  0.63867  0.89415  1.0000
  Zn  Zn21      1.0  0.55068  0.86133  0.89415  1.0000
  Zn  Zn22      1.0  0.44932  0.86133  0.10585  1.0000
  Zn  Zn23      1.0  0.05068  0.36133  0.89415  1.0000
  Zn  Zn24      1.0  0.94932  0.36133  0.10585  1.0000
  Zn  Zn25      1.0  0.27699  0.13871  0.78423  1.0000
  Zn  Zn26      1.0  0.72301  0.13871  0.21577  1.0000
  Zn  Zn27      1.0  0.77699  0.63871  0.78423  1.0000
  Zn  Zn28      1.0  0.22301  0.63871  0.21577  1.0000
  Zn  Zn29      1.0  0.72301  0.86129  0.21577  1.0000
  Zn  Zn30      1.0  0.27699  0.86129  0.78423  1.0000
  Zn  Zn31      1.0  0.22301  0.36129  0.21577  1.0000
  Zn  Zn32      1.0  0.77699  0.36129  0.78423  1.0000
  S   S1        1.0  0.29875  0.00000  0.05212  1.0000
  S   S2        1.0  0.70125  0.00000  0.94788  1.0000
  S   S3        1.0  0.79875  0.50000  0.05212  1.0000
  S   S4        1.0  0.20125  0.50000  0.94788  1.0000
  S   S5        1.0  0.40567  0.00000  0.06204  1.0000
  S   S6        1.0  0.59433  0.00000  0.93796  1.0000
  S   S7        1.0  0.90567  0.50000  0.06204  1.0000
  S   S8        1.0  0.09433  0.50000  0.93796  1.0000
  S   S9        1.0  0.29884  0.00000  0.86219  1.0000
  S   S10       1.0  0.70116  0.00000  0.13781  1.0000
  S   S11       1.0  0.79884  0.50000  0.86219  1.0000
  S   S12       1.0  0.20116  0.50000  0.13781  1.0000
