data_image0
_chemical_formula_structural       Zn4C4H4C4H4C4H8C4H8C4H8C4H4C4H4C8H4C8H4C8H4C8N24O28S4
_chemical_formula_sum              "Zn4 C60 H52 N24 O28 S4"
_cell_length_a       10.1907
_cell_length_b       12.2584
_cell_length_c       17.4174
_cell_angle_alpha    90
_cell_angle_beta     95.359
_cell_angle_gamma    90

_space_group_name_H-M_alt    "P 1"
_space_group_IT_number       1

loop_
  _space_group_symop_operation_xyz
  'x, y, z'

loop_
  _atom_site_type_symbol
  _atom_site_label
  _atom_site_symmetry_multiplicity
  _atom_site_fract_x
  _atom_site_fract_y
  _atom_site_fract_z
  _atom_site_occupancy
  Zn  Zn1       1.0  0.53480  0.34613  0.03721  1.0000
  Zn  Zn2       1.0  0.46520  0.84613  0.46279  1.0000
  Zn  Zn3       1.0  0.46520  0.65387  0.96279  1.0000
  Zn  Zn4       1.0  0.53480  0.15387  0.53721  1.0000
  C   C1        1.0  0.62460  0.14900  0.13450  1.0000
  C   C2        1.0  0.37540  0.64900  0.36550  1.0000
  C   C3        1.0  0.37540  0.85100  0.86550  1.0000
  C   C4        1.0  0.62460  0.35100  0.63450  1.0000
  H   H1        1.0  0.69760  0.18430  0.15910  1.0000
  H   H2        1.0  0.30240  0.68430  0.34090  1.0000
  H   H3        1.0  0.30240  0.81570  0.84090  1.0000
  H   H4        1.0  0.69760  0.31570  0.65910  1.0000
  C   C5        1.0  0.44840  0.11300  0.06570  1.0000
  C   C6        1.0  0.55160  0.61300  0.43430  1.0000
  C   C7        1.0  0.55160  0.88700  0.93430  1.0000
  C   C8        1.0  0.44840  0.38700  0.56570  1.0000
  H   H5        1.0  0.37290  0.12160  0.03190  1.0000
  H   H6        1.0  0.62710  0.62160  0.46810  1.0000
  H   H7        1.0  0.62710  0.87840  0.96810  1.0000
  H   H8        1.0  0.37290  0.37840  0.53190  1.0000
  C   C9        1.0  0.67280  0.96030  0.18530  1.0000
  C   C10       1.0  0.32720  0.46030  0.31470  1.0000
  C   C11       1.0  0.32720  0.03970  0.81470  1.0000
  C   C12       1.0  0.67280  0.53970  0.68530  1.0000
  H   H9        1.0  0.75900  0.98880  0.20330  1.0000
  H   H10       1.0  0.24100  0.48880  0.29670  1.0000
  H   H11       1.0  0.24100  0.01120  0.79670  1.0000
  H   H12       1.0  0.75900  0.51120  0.70330  1.0000
  H   H13       1.0  0.68550  0.89840  0.15210  1.0000
  H   H14       1.0  0.31450  0.39840  0.34790  1.0000
  H   H15       1.0  0.31450  0.10160  0.84790  1.0000
  H   H16       1.0  0.68550  0.60160  0.65210  1.0000
  C   C13       1.0  0.60380  0.92220  0.25410  1.0000
  C   C14       1.0  0.39620  0.42220  0.24590  1.0000
  C   C15       1.0  0.39620  0.07780  0.74590  1.0000
  C   C16       1.0  0.60380  0.57780  0.75410  1.0000
  H   H17       1.0  0.59290  0.98460  0.28720  1.0000
  H   H18       1.0  0.40710  0.48460  0.21280  1.0000
  H   H19       1.0  0.40710  0.01540  0.71280  1.0000
  H   H20       1.0  0.59290  0.51540  0.78720  1.0000
  H   H21       1.0  0.66090  0.87070  0.28320  1.0000
  H   H22       1.0  0.33910  0.37070  0.21680  1.0000
  H   H23       1.0  0.33910  0.12930  0.71680  1.0000
  H   H24       1.0  0.66090  0.62930  0.78320  1.0000
  C   C17       1.0  0.46940  0.86870  0.23550  1.0000
  C   C18       1.0  0.53060  0.36870  0.26450  1.0000
  C   C19       1.0  0.53060  0.13130  0.76450  1.0000
  C   C20       1.0  0.46940  0.63130  0.73550  1.0000
  H   H25       1.0  0.43790  0.84070  0.28260  1.0000
  H   H26       1.0  0.56210  0.34070  0.21740  1.0000
  H   H27       1.0  0.56210  0.15930  0.71740  1.0000
  H   H28       1.0  0.43790  0.65930  0.78260  1.0000
  H   H29       1.0  0.40670  0.92260  0.21400  1.0000
  H   H30       1.0  0.59330  0.42260  0.28600  1.0000
  H   H31       1.0  0.59330  0.07740  0.78600  1.0000
  H   H32       1.0  0.40670  0.57740  0.71400  1.0000
  C   C21       1.0  0.55850  0.63970  0.13330  1.0000
  C   C22       1.0  0.44150  0.13970  0.36670  1.0000
  C   C23       1.0  0.44150  0.36030  0.86670  1.0000
  C   C24       1.0  0.55850  0.86030  0.63330  1.0000
  H   H33       1.0  0.60600  0.57610  0.12720  1.0000
  H   H34       1.0  0.39400  0.07610  0.37280  1.0000
  H   H35       1.0  0.39400  0.42390  0.87280  1.0000
  H   H36       1.0  0.60600  0.92390  0.62720  1.0000
  C   C25       1.0  0.42920  0.77300  0.10820  1.0000
  C   C26       1.0  0.57080  0.27300  0.39180  1.0000
  C   C27       1.0  0.57080  0.22700  0.89180  1.0000
  C   C28       1.0  0.42920  0.72700  0.60820  1.0000
  H   H37       1.0  0.36990  0.82220  0.08350  1.0000
  H   H38       1.0  0.63010  0.32220  0.41650  1.0000
  H   H39       1.0  0.63010  0.17780  0.91650  1.0000
  H   H40       1.0  0.36990  0.67780  0.58350  1.0000
  C   C29       1.0  0.92450  0.43340  0.08990  1.0000
  C   C30       1.0  0.07550  0.93340  0.41010  1.0000
  C   C31       1.0  0.07550  0.56660  0.91010  1.0000
  C   C32       1.0  0.92450  0.06660  0.58990  1.0000
  C   C33       1.0  0.03780  0.38980  0.06490  1.0000
  C   C34       1.0  0.96220  0.88980  0.43510  1.0000
  C   C35       1.0  0.96220  0.61020  0.93510  1.0000
  C   C36       1.0  0.03780  0.11020  0.56490  1.0000
  H   H41       1.0  0.03310  0.32390  0.03830  1.0000
  H   H42       1.0  0.96690  0.82390  0.46170  1.0000
  H   H43       1.0  0.96690  0.67610  0.96170  1.0000
  H   H44       1.0  0.03310  0.17610  0.53830  1.0000
  C   C37       1.0  0.15810  0.44170  0.07830  1.0000
  C   C38       1.0  0.84190  0.94170  0.42170  1.0000
  C   C39       1.0  0.84190  0.55830  0.92170  1.0000
  C   C40       1.0  0.15810  0.05830  0.57830  1.0000
  C   C41       1.0  0.16370  0.54210  0.11750  1.0000
  C   C42       1.0  0.83630  0.04210  0.38250  1.0000
  C   C43       1.0  0.83630  0.45790  0.88250  1.0000
  C   C44       1.0  0.16370  0.95790  0.61750  1.0000
  H   H45       1.0  0.24300  0.57960  0.12570  1.0000
  H   H46       1.0  0.75700  0.07960  0.37430  1.0000
  H   H47       1.0  0.75700  0.42040  0.87430  1.0000
  H   H48       1.0  0.24300  0.92040  0.62570  1.0000
  C   C45       1.0  0.05070  0.58470  0.14370  1.0000
  C   C46       1.0  0.94930  0.08470  0.35630  1.0000
  C   C47       1.0  0.94930  0.41530  0.85630  1.0000
  C   C48       1.0  0.05070  0.91530  0.64370  1.0000
  C   C49       1.0  0.93060  0.53120  0.13020  1.0000
  C   C50       1.0  0.06940  0.03120  0.36980  1.0000
  C   C51       1.0  0.06940  0.46880  0.86980  1.0000
  C   C52       1.0  0.93060  0.96880  0.63020  1.0000
  H   H49       1.0  0.85500  0.56070  0.14800  1.0000
  H   H50       1.0  0.14500  0.06070  0.35200  1.0000
  H   H51       1.0  0.14500  0.43930  0.85200  1.0000
  H   H52       1.0  0.85500  0.93930  0.64800  1.0000
  C   C53       1.0  0.79390  0.37680  0.06850  1.0000
  C   C54       1.0  0.20610  0.87680  0.43150  1.0000
  C   C55       1.0  0.20610  0.62320  0.93150  1.0000
  C   C56       1.0  0.79390  0.12320  0.56850  1.0000
  C   C57       1.0  0.27820  0.39070  0.04930  1.0000
  C   C58       1.0  0.72180  0.89070  0.45070  1.0000
  C   C59       1.0  0.72180  0.60930  0.95070  1.0000
  C   C60       1.0  0.27820  0.10930  0.54930  1.0000
  N   N1        1.0  0.53140  0.19680  0.08780  1.0000
  N   N2        1.0  0.46860  0.69680  0.41220  1.0000
  N   N3        1.0  0.46860  0.80320  0.91220  1.0000
  N   N4        1.0  0.53140  0.30320  0.58780  1.0000
  N   N5        1.0  0.59880  0.04400  0.14090  1.0000
  N   N6        1.0  0.40120  0.54400  0.35910  1.0000
  N   N7        1.0  0.40120  0.95600  0.85910  1.0000
  N   N8        1.0  0.59880  0.45600  0.64090  1.0000
  N   N9        1.0  0.48570  0.01860  0.09680  1.0000
  N   N10       1.0  0.51430  0.51860  0.40320  1.0000
  N   N11       1.0  0.51430  0.98140  0.90320  1.0000
  N   N12       1.0  0.48570  0.48140  0.59680  1.0000
  N   N13       1.0  0.47810  0.77950  0.18060  1.0000
  N   N14       1.0  0.52190  0.27950  0.31940  1.0000
  N   N15       1.0  0.52190  0.22050  0.81940  1.0000
  N   N16       1.0  0.47810  0.72050  0.68060  1.0000
  N   N17       1.0  0.56320  0.69440  0.19850  1.0000
  N   N18       1.0  0.43680  0.19440  0.30150  1.0000
  N   N19       1.0  0.43680  0.30560  0.80150  1.0000
  N   N20       1.0  0.56320  0.80560  0.69850  1.0000
  N   N21       1.0  0.47710  0.68560  0.07547  1.0000
  N   N22       1.0  0.52290  0.18560  0.42453  1.0000
  N   N23       1.0  0.52290  0.31440  0.92453  1.0000
  N   N24       1.0  0.47710  0.81440  0.57547  1.0000
  O   O1        1.0  0.68980  0.42200  0.08875  1.0000
  O   O2        1.0  0.31020  0.92200  0.41125  1.0000
  O   O3        1.0  0.31020  0.57800  0.91125  1.0000
  O   O4        1.0  0.68980  0.07800  0.58875  1.0000
  O   O5        1.0  0.79110  0.29180  0.02960  1.0000
  O   O6        1.0  0.20890  0.79180  0.47040  1.0000
  O   O7        1.0  0.20890  0.70820  0.97040  1.0000
  O   O8        1.0  0.79110  0.20820  0.52960  1.0000
  O   O9        1.0  0.26750  0.30320  0.01391  1.0000
  O   O10       1.0  0.73250  0.80320  0.48609  1.0000
  O   O11       1.0  0.73250  0.69680  0.98609  1.0000
  O   O12       1.0  0.26750  0.19680  0.51391  1.0000
  O   O13       1.0  0.38880  0.44040  0.06436  1.0000
  O   O14       1.0  0.61120  0.94040  0.43564  1.0000
  O   O15       1.0  0.61120  0.55960  0.93564  1.0000
  O   O16       1.0  0.38880  0.05960  0.56436  1.0000
  O   O17       1.0  0.16650  0.77120  0.17490  1.0000
  O   O18       1.0  0.83350  0.27120  0.32510  1.0000
  O   O19       1.0  0.83350  0.22880  0.82510  1.0000
  O   O20       1.0  0.16650  0.72880  0.67490  1.0000
  O   O21       1.0  0.07850  0.67210  0.27805  1.0000
  O   O22       1.0  0.92150  0.17210  0.22195  1.0000
  O   O23       1.0  0.92150  0.32790  0.72195  1.0000
  O   O24       1.0  0.07850  0.82790  0.77805  1.0000
  O   O25       1.0  0.93080  0.76130  0.18290  1.0000
  O   O26       1.0  0.06920  0.26130  0.31710  1.0000
  O   O27       1.0  0.06920  0.23870  0.81710  1.0000
  O   O28       1.0  0.93080  0.73870  0.68290  1.0000
  S   S1        1.0  0.05823  0.70741  0.19919  1.0000
  S   S2        1.0  0.94177  0.20741  0.30081  1.0000
  S   S3        1.0  0.94177  0.29259  0.80081  1.0000
  S   S4        1.0  0.05823  0.79259  0.69919  1.0000
