data_image0
_chemical_formula_structural       Cu9W108Cu9P12N36O372C18H18C18H18C18H18C18H18
_chemical_formula_sum              "Cu18 W108 P12 N36 O372 C72 H72"
_cell_length_a       21.4551
_cell_length_b       21.4551
_cell_length_c       34.1708
_cell_angle_alpha    90
_cell_angle_beta     90
_cell_angle_gamma    120

_space_group_name_H-M_alt    "P 1"
_space_group_IT_number       1

loop_
  _space_group_symop_operation_xyz
  'x, y, z'

loop_
  _atom_site_type_symbol
  _atom_site_label
  _atom_site_symmetry_multiplicity
  _atom_site_fract_x
  _atom_site_fract_y
  _atom_site_fract_z
  _atom_site_occupancy
  Cu  Cu1       1.0  0.33330  0.94160  0.66670  1.0000
  Cu  Cu2       1.0  0.05840  0.39170  0.66670  1.0000
  Cu  Cu3       1.0  0.60830  0.66670  0.66670  1.0000
  Cu  Cu4       1.0  0.39170  0.05840  0.33330  1.0000
  Cu  Cu5       1.0  0.66670  0.60830  0.33330  1.0000
  Cu  Cu6       1.0  0.94160  0.33330  0.33330  1.0000
  Cu  Cu7       1.0  0.99997  0.27493  0.00003  1.0000
  Cu  Cu8       1.0  0.72507  0.72503  0.00003  1.0000
  Cu  Cu9       1.0  0.27497  0.00003  0.00003  1.0000
  W   W1        1.0  0.29337  0.73113  0.06796  1.0000
  W   W2        1.0  0.26887  0.56224  0.06796  1.0000
  W   W3        1.0  0.43776  0.70663  0.06796  1.0000
  W   W4        1.0  0.56224  0.26887  0.93204  1.0000
  W   W5        1.0  0.70663  0.43776  0.93204  1.0000
  W   W6        1.0  0.73113  0.29337  0.93204  1.0000
  W   W7        1.0  0.96004  0.06446  0.40129  1.0000
  W   W8        1.0  0.93554  0.89557  0.40129  1.0000
  W   W9        1.0  0.10443  0.03996  0.40129  1.0000
  W   W10       1.0  0.22891  0.60220  0.26537  1.0000
  W   W11       1.0  0.37330  0.77109  0.26537  1.0000
  W   W12       1.0  0.39780  0.62670  0.26537  1.0000
  W   W13       1.0  0.62670  0.39780  0.73463  1.0000
  W   W14       1.0  0.60220  0.22891  0.73463  1.0000
  W   W15       1.0  0.77109  0.37330  0.73463  1.0000
  W   W16       1.0  0.89557  0.93554  0.59871  1.0000
  W   W17       1.0  0.03996  0.10443  0.59871  1.0000
  W   W18       1.0  0.06446  0.96004  0.59871  1.0000
  W   W19       1.0  0.15774  0.51820  0.97825  1.0000
  W   W20       1.0  0.48180  0.63954  0.97825  1.0000
  W   W21       1.0  0.36046  0.84226  0.97825  1.0000
  W   W22       1.0  0.63954  0.48180  0.02175  1.0000
  W   W23       1.0  0.84226  0.36046  0.02175  1.0000
  W   W24       1.0  0.51820  0.15774  0.02175  1.0000
  W   W25       1.0  0.82441  0.85153  0.31158  1.0000
  W   W26       1.0  0.14847  0.97287  0.31158  1.0000
  W   W27       1.0  0.02713  0.17559  0.31158  1.0000
  W   W28       1.0  0.30621  0.81513  0.35508  1.0000
  W   W29       1.0  0.50893  0.69379  0.35508  1.0000
  W   W30       1.0  0.18487  0.49107  0.35508  1.0000
  W   W31       1.0  0.49107  0.18487  0.64492  1.0000
  W   W32       1.0  0.81513  0.30621  0.64492  1.0000
  W   W33       1.0  0.69379  0.50893  0.64492  1.0000
  W   W34       1.0  0.97287  0.14847  0.68842  1.0000
  W   W35       1.0  0.17559  0.02713  0.68842  1.0000
  W   W36       1.0  0.85153  0.82441  0.68842  1.0000
  W   W37       1.0  0.29122  0.72878  0.77959  1.0000
  W   W38       1.0  0.27122  0.56244  0.77959  1.0000
  W   W39       1.0  0.43756  0.70878  0.77959  1.0000
  W   W40       1.0  0.56244  0.27122  0.22041  1.0000
  W   W41       1.0  0.70878  0.43756  0.22041  1.0000
  W   W42       1.0  0.72878  0.29122  0.22041  1.0000
  W   W43       1.0  0.95789  0.06211  0.11292  1.0000
  W   W44       1.0  0.93789  0.89577  0.11292  1.0000
  W   W45       1.0  0.10423  0.04211  0.11292  1.0000
  W   W46       1.0  0.22911  0.60455  0.55374  1.0000
  W   W47       1.0  0.37545  0.77089  0.55374  1.0000
  W   W48       1.0  0.39545  0.62455  0.55374  1.0000
  W   W49       1.0  0.62455  0.39545  0.44626  1.0000
  W   W50       1.0  0.60455  0.22911  0.44626  1.0000
  W   W51       1.0  0.77089  0.37545  0.44626  1.0000
  W   W52       1.0  0.89577  0.93789  0.88708  1.0000
  W   W53       1.0  0.04211  0.10423  0.88708  1.0000
  W   W54       1.0  0.06211  0.95789  0.88708  1.0000
  W   W55       1.0  0.15721  0.51871  0.86833  1.0000
  W   W56       1.0  0.48129  0.63850  0.86833  1.0000
  W   W57       1.0  0.36150  0.84279  0.86833  1.0000
  W   W58       1.0  0.63850  0.48129  0.13167  1.0000
  W   W59       1.0  0.84279  0.36150  0.13167  1.0000
  W   W60       1.0  0.51871  0.15721  0.13167  1.0000
  W   W61       1.0  0.82388  0.85204  0.20166  1.0000
  W   W62       1.0  0.14796  0.97183  0.20166  1.0000
  W   W63       1.0  0.02817  0.17612  0.20166  1.0000
  W   W64       1.0  0.30517  0.81462  0.46500  1.0000
  W   W65       1.0  0.50946  0.69483  0.46500  1.0000
  W   W66       1.0  0.18538  0.49054  0.46500  1.0000
  W   W67       1.0  0.49054  0.18538  0.53500  1.0000
  W   W68       1.0  0.81462  0.30517  0.53500  1.0000
  W   W69       1.0  0.69483  0.50946  0.53500  1.0000
  W   W70       1.0  0.97183  0.14796  0.79834  1.0000
  W   W71       1.0  0.17612  0.02817  0.79834  1.0000
  W   W72       1.0  0.85204  0.82388  0.79834  1.0000
  W   W73       1.0  0.17853  0.68362  0.97969  1.0000
  W   W74       1.0  0.31638  0.49491  0.97969  1.0000
  W   W75       1.0  0.50509  0.82147  0.97969  1.0000
  W   W76       1.0  0.49491  0.31638  0.02031  1.0000
  W   W77       1.0  0.82147  0.50509  0.02031  1.0000
  W   W78       1.0  0.68362  0.17853  0.02031  1.0000
  W   W79       1.0  0.84520  0.01695  0.31302  1.0000
  W   W80       1.0  0.98305  0.82824  0.31302  1.0000
  W   W81       1.0  0.17176  0.15480  0.31302  1.0000
  W   W82       1.0  0.16158  0.64971  0.35364  1.0000
  W   W83       1.0  0.48814  0.83842  0.35364  1.0000
  W   W84       1.0  0.35029  0.51186  0.35364  1.0000
  W   W85       1.0  0.51186  0.35029  0.64636  1.0000
  W   W86       1.0  0.64971  0.16158  0.64636  1.0000
  W   W87       1.0  0.83842  0.48814  0.64636  1.0000
  W   W88       1.0  0.82824  0.98305  0.68698  1.0000
  W   W89       1.0  0.15480  0.17176  0.68698  1.0000
  W   W90       1.0  0.01695  0.84520  0.68698  1.0000
  W   W91       1.0  0.17939  0.68447  0.86934  1.0000
  W   W92       1.0  0.31553  0.49492  0.86934  1.0000
  W   W93       1.0  0.50508  0.82061  0.86934  1.0000
  W   W94       1.0  0.49492  0.31553  0.13066  1.0000
  W   W95       1.0  0.82061  0.50508  0.13066  1.0000
  W   W96       1.0  0.68447  0.17939  0.13066  1.0000
  W   W97       1.0  0.84606  0.01780  0.20267  1.0000
  W   W98       1.0  0.98220  0.82825  0.20267  1.0000
  W   W99       1.0  0.17175  0.15394  0.20267  1.0000
  W   W100      1.0  0.16159  0.64886  0.46399  1.0000
  W   W101      1.0  0.48728  0.83841  0.46399  1.0000
  W   W102      1.0  0.35114  0.51272  0.46399  1.0000
  W   W103      1.0  0.51272  0.35114  0.53601  1.0000
  W   W104      1.0  0.64886  0.16159  0.53601  1.0000
  W   W105      1.0  0.83841  0.48728  0.53601  1.0000
  W   W106      1.0  0.82825  0.98220  0.79733  1.0000
  W   W107      1.0  0.15394  0.17175  0.79733  1.0000
  W   W108      1.0  0.01780  0.84606  0.79733  1.0000
  Cu  Cu10      1.0  0.15019  0.81686  0.83330  1.0000
  Cu  Cu11      1.0  0.18314  0.33333  0.83330  1.0000
  Cu  Cu12      1.0  0.66667  0.84981  0.83330  1.0000
  Cu  Cu13      1.0  0.33333  0.18314  0.16670  1.0000
  Cu  Cu14      1.0  0.84981  0.66667  0.16670  1.0000
  Cu  Cu15      1.0  0.81686  0.15019  0.16670  1.0000
  Cu  Cu16      1.0  1.00000  0.51647  0.50003  1.0000
  Cu  Cu17      1.0  0.51648  0.00000  0.50003  1.0000
  Cu  Cu18      1.0  0.48353  0.48352  0.50003  1.0000
  P   P1        1.0  0.33330  0.66670  0.98228  1.0000
  P   P2        1.0  0.66660  0.33330  0.01772  1.0000
  P   P3        1.0  0.99997  0.00003  0.31561  1.0000
  P   P4        1.0  0.33327  0.66663  0.35105  1.0000
  P   P5        1.0  0.66663  0.33337  0.64895  1.0000
  P   P6        1.0  0.99993  0.99997  0.68439  1.0000
  P   P7        1.0  0.33330  0.66670  0.86552  1.0000
  P   P8        1.0  0.66660  0.33330  0.13448  1.0000
  P   P9        1.0  0.99997  0.00003  0.19885  1.0000
  P   P10       1.0  0.33327  0.66663  0.46781  1.0000
  P   P11       1.0  0.66663  0.33337  0.53219  1.0000
  P   P12       1.0  0.99993  0.99997  0.80115  1.0000
  N   N1        1.0  0.27770  0.90780  0.71350  1.0000
  N   N2        1.0  0.09220  0.36990  0.71350  1.0000
  N   N3        1.0  0.63010  0.72230  0.71350  1.0000
  N   N4        1.0  0.36990  0.09220  0.28650  1.0000
  N   N5        1.0  0.72230  0.63010  0.28650  1.0000
  N   N6        1.0  0.90780  0.27770  0.28650  1.0000
  N   N7        1.0  0.94437  0.24113  0.04683  1.0000
  N   N8        1.0  0.75887  0.70323  0.04683  1.0000
  N   N9        1.0  0.29677  0.05563  0.04683  1.0000
  N   N10       1.0  0.03657  0.42553  0.61983  1.0000
  N   N11       1.0  0.38897  0.96343  0.61983  1.0000
  N   N12       1.0  0.57447  0.61103  0.61983  1.0000
  N   N13       1.0  0.61103  0.57447  0.38017  1.0000
  N   N14       1.0  0.42553  0.03657  0.38017  1.0000
  N   N15       1.0  0.96343  0.38897  0.38017  1.0000
  N   N16       1.0  0.70323  0.75887  0.95317  1.0000
  N   N17       1.0  0.05563  0.29677  0.95317  1.0000
  N   N18       1.0  0.24113  0.94437  0.95317  1.0000
  N   N19       1.0  0.20180  0.85120  0.78240  1.0000
  N   N20       1.0  0.14880  0.35060  0.78240  1.0000
  N   N21       1.0  0.64940  0.79820  0.78240  1.0000
  N   N22       1.0  0.35060  0.14880  0.21760  1.0000
  N   N23       1.0  0.79820  0.64940  0.21760  1.0000
  N   N24       1.0  0.85120  0.20180  0.21760  1.0000
  N   N25       1.0  0.86847  0.18453  0.11573  1.0000
  N   N26       1.0  0.81547  0.68393  0.11573  1.0000
  N   N27       1.0  0.31607  0.13153  0.11573  1.0000
  N   N28       1.0  0.01727  0.48213  0.55093  1.0000
  N   N29       1.0  0.46487  0.98273  0.55093  1.0000
  N   N30       1.0  0.51787  0.53513  0.55093  1.0000
  N   N31       1.0  0.53513  0.51787  0.44907  1.0000
  N   N32       1.0  0.48213  0.01727  0.44907  1.0000
  N   N33       1.0  0.98273  0.46487  0.44907  1.0000
  N   N34       1.0  0.68393  0.81547  0.88427  1.0000
  N   N35       1.0  0.13153  0.31607  0.88427  1.0000
  N   N36       1.0  0.18453  0.86847  0.88427  1.0000
  O   O1        1.0  0.14680  0.52270  0.92390  1.0000
  O   O2        1.0  0.47730  0.62410  0.92390  1.0000
  O   O3        1.0  0.37590  0.85320  0.92390  1.0000
  O   O4        1.0  0.62410  0.47730  0.07610  1.0000
  O   O5        1.0  0.85320  0.37590  0.07610  1.0000
  O   O6        1.0  0.52270  0.14680  0.07610  1.0000
  O   O7        1.0  0.81347  0.85603  0.25723  1.0000
  O   O8        1.0  0.14397  0.95743  0.25723  1.0000
  O   O9        1.0  0.04257  0.18653  0.25723  1.0000
  O   O10       1.0  0.29077  0.81063  0.40943  1.0000
  O   O11       1.0  0.51987  0.70923  0.40943  1.0000
  O   O12       1.0  0.18937  0.48013  0.40943  1.0000
  O   O13       1.0  0.48013  0.18937  0.59057  1.0000
  O   O14       1.0  0.81063  0.29077  0.59057  1.0000
  O   O15       1.0  0.70923  0.51987  0.59057  1.0000
  O   O16       1.0  0.95743  0.14397  0.74277  1.0000
  O   O17       1.0  0.18653  0.04257  0.74277  1.0000
  O   O18       1.0  0.85603  0.81347  0.74277  1.0000
  O   O19       1.0  0.12040  0.58130  0.98690  1.0000
  O   O20       1.0  0.41870  0.53910  0.98690  1.0000
  O   O21       1.0  0.46090  0.87960  0.98690  1.0000
  O   O22       1.0  0.53910  0.41870  0.01310  1.0000
  O   O23       1.0  0.87960  0.46090  0.01310  1.0000
  O   O24       1.0  0.58130  0.12040  0.01310  1.0000
  O   O25       1.0  0.78707  0.91463  0.32023  1.0000
  O   O26       1.0  0.08537  0.87243  0.32023  1.0000
  O   O27       1.0  0.12757  0.21293  0.32023  1.0000
  O   O28       1.0  0.20577  0.75203  0.34643  1.0000
  O   O29       1.0  0.54627  0.79423  0.34643  1.0000
  O   O30       1.0  0.24797  0.45373  0.34643  1.0000
  O   O31       1.0  0.45373  0.24797  0.65357  1.0000
  O   O32       1.0  0.75203  0.20577  0.65357  1.0000
  O   O33       1.0  0.79423  0.54627  0.65357  1.0000
  O   O34       1.0  0.87243  0.08537  0.67977  1.0000
  O   O35       1.0  0.21293  0.12757  0.67977  1.0000
  O   O36       1.0  0.91463  0.78707  0.67977  1.0000
  O   O37       1.0  0.12150  0.58340  0.86130  1.0000
  O   O38       1.0  0.41660  0.53810  0.86130  1.0000
  O   O39       1.0  0.46190  0.87850  0.86130  1.0000
  O   O40       1.0  0.53810  0.41660  0.13870  1.0000
  O   O41       1.0  0.87850  0.46190  0.13870  1.0000
  O   O42       1.0  0.58340  0.12150  0.13870  1.0000
  O   O43       1.0  0.78817  0.91673  0.19463  1.0000
  O   O44       1.0  0.08327  0.87143  0.19463  1.0000
  O   O45       1.0  0.12857  0.21183  0.19463  1.0000
  O   O46       1.0  0.20477  0.74993  0.47203  1.0000
  O   O47       1.0  0.54517  0.79523  0.47203  1.0000
  O   O48       1.0  0.25007  0.45483  0.47203  1.0000
  O   O49       1.0  0.45483  0.25007  0.52797  1.0000
  O   O50       1.0  0.74993  0.20477  0.52797  1.0000
  O   O51       1.0  0.79523  0.54517  0.52797  1.0000
  O   O52       1.0  0.87143  0.08327  0.80537  1.0000
  O   O53       1.0  0.21183  0.12857  0.80537  1.0000
  O   O54       1.0  0.91673  0.78817  0.80537  1.0000
  O   O55       1.0  0.22610  0.48950  0.87870  1.0000
  O   O56       1.0  0.51050  0.73660  0.87870  1.0000
  O   O57       1.0  0.26340  0.77390  0.87870  1.0000
  O   O58       1.0  0.73660  0.51050  0.12130  1.0000
  O   O59       1.0  0.77390  0.26340  0.12130  1.0000
  O   O60       1.0  0.48950  0.22610  0.12130  1.0000
  O   O61       1.0  0.89277  0.82283  0.21203  1.0000
  O   O62       1.0  0.17717  0.06993  0.21203  1.0000
  O   O63       1.0  0.93007  0.10723  0.21203  1.0000
  O   O64       1.0  0.40327  0.84383  0.45463  1.0000
  O   O65       1.0  0.44057  0.59673  0.45463  1.0000
  O   O66       1.0  0.15617  0.55943  0.45463  1.0000
  O   O67       1.0  0.55943  0.15617  0.54537  1.0000
  O   O68       1.0  0.84383  0.40327  0.54537  1.0000
  O   O69       1.0  0.59673  0.44057  0.54537  1.0000
  O   O70       1.0  0.06993  0.17717  0.78797  1.0000
  O   O71       1.0  0.10723  0.93007  0.78797  1.0000
  O   O72       1.0  0.82283  0.89277  0.78797  1.0000
  O   O73       1.0  0.25420  0.63570  0.87870  1.0000
  O   O74       1.0  0.36430  0.61850  0.87870  1.0000
  O   O75       1.0  0.38150  0.74580  0.87870  1.0000
  O   O76       1.0  0.61850  0.36430  0.12130  1.0000
  O   O77       1.0  0.74580  0.38150  0.12130  1.0000
  O   O78       1.0  0.63570  0.25420  0.12130  1.0000
  O   O79       1.0  0.92087  0.96903  0.21203  1.0000
  O   O80       1.0  0.03097  0.95183  0.21203  1.0000
  O   O81       1.0  0.04817  0.07913  0.21203  1.0000
  O   O82       1.0  0.28517  0.69763  0.45463  1.0000
  O   O83       1.0  0.41247  0.71483  0.45463  1.0000
  O   O84       1.0  0.30237  0.58753  0.45463  1.0000
  O   O85       1.0  0.58753  0.30237  0.54537  1.0000
  O   O86       1.0  0.69763  0.28517  0.54537  1.0000
  O   O87       1.0  0.71483  0.41247  0.54537  1.0000
  O   O88       1.0  0.95183  0.03097  0.78797  1.0000
  O   O89       1.0  0.07913  0.04817  0.78797  1.0000
  O   O90       1.0  0.96903  0.92087  0.78797  1.0000
  O   O91       1.0  0.16520  0.67190  0.92400  1.0000
  O   O92       1.0  0.32810  0.49330  0.92400  1.0000
  O   O93       1.0  0.50670  0.83480  0.92400  1.0000
  O   O94       1.0  0.49330  0.32810  0.07600  1.0000
  O   O95       1.0  0.83480  0.50670  0.07600  1.0000
  O   O96       1.0  0.67190  0.16520  0.07600  1.0000
  O   O97       1.0  0.83187  0.00523  0.25733  1.0000
  O   O98       1.0  0.99477  0.82663  0.25733  1.0000
  O   O99       1.0  0.17337  0.16813  0.25733  1.0000
  O   O100      1.0  0.15997  0.66143  0.40933  1.0000
  O   O101      1.0  0.50147  0.84003  0.40933  1.0000
  O   O102      1.0  0.33857  0.49853  0.40933  1.0000
  O   O103      1.0  0.49853  0.33857  0.59067  1.0000
  O   O104      1.0  0.66143  0.15997  0.59067  1.0000
  O   O105      1.0  0.84003  0.50147  0.59067  1.0000
  O   O106      1.0  0.82663  0.99477  0.74267  1.0000
  O   O107      1.0  0.16813  0.17337  0.74267  1.0000
  O   O108      1.0  0.00523  0.83187  0.74267  1.0000
  O   O109      1.0  0.25490  0.63530  0.96900  1.0000
  O   O110      1.0  0.36470  0.61960  0.96900  1.0000
  O   O111      1.0  0.38040  0.74510  0.96900  1.0000
  O   O112      1.0  0.61960  0.36470  0.03100  1.0000
  O   O113      1.0  0.74510  0.38040  0.03100  1.0000
  O   O114      1.0  0.63530  0.25490  0.03100  1.0000
  O   O115      1.0  0.92157  0.96863  0.30233  1.0000
  O   O116      1.0  0.03137  0.95293  0.30233  1.0000
  O   O117      1.0  0.04707  0.07843  0.30233  1.0000
  O   O118      1.0  0.28627  0.69803  0.36433  1.0000
  O   O119      1.0  0.41177  0.71373  0.36433  1.0000
  O   O120      1.0  0.30197  0.58823  0.36433  1.0000
  O   O121      1.0  0.58823  0.30197  0.63567  1.0000
  O   O122      1.0  0.69803  0.28627  0.63567  1.0000
  O   O123      1.0  0.71373  0.41177  0.63567  1.0000
  O   O124      1.0  0.95293  0.03137  0.69767  1.0000
  O   O125      1.0  0.07843  0.04707  0.69767  1.0000
  O   O126      1.0  0.96863  0.92157  0.69767  1.0000
  O   O127      1.0  0.33330  0.66670  0.02820  1.0000
  O   O128      1.0  0.66660  0.33330  0.97180  1.0000
  O   O129      1.0  0.99997  0.00003  0.36153  1.0000
  O   O130      1.0  0.33327  0.66663  0.30513  1.0000
  O   O131      1.0  0.66663  0.33337  0.69487  1.0000
  O   O132      1.0  0.99993  0.99997  0.63847  1.0000
  O   O133      1.0  0.21440  0.69320  0.03160  1.0000
  O   O134      1.0  0.30680  0.52120  0.03160  1.0000
  O   O135      1.0  0.47880  0.78560  0.03160  1.0000
  O   O136      1.0  0.52120  0.30680  0.96840  1.0000
  O   O137      1.0  0.78560  0.47880  0.96840  1.0000
  O   O138      1.0  0.69320  0.21440  0.96840  1.0000
  O   O139      1.0  0.88107  0.02653  0.36493  1.0000
  O   O140      1.0  0.97347  0.85453  0.36493  1.0000
  O   O141      1.0  0.14547  0.11893  0.36493  1.0000
  O   O142      1.0  0.18787  0.64013  0.30173  1.0000
  O   O143      1.0  0.45227  0.81213  0.30173  1.0000
  O   O144      1.0  0.35987  0.54773  0.30173  1.0000
  O   O145      1.0  0.54773  0.35987  0.69827  1.0000
  O   O146      1.0  0.64013  0.18787  0.69827  1.0000
  O   O147      1.0  0.81213  0.45227  0.69827  1.0000
  O   O148      1.0  0.85453  0.97347  0.63507  1.0000
  O   O149      1.0  0.11893  0.14547  0.63507  1.0000
  O   O150      1.0  0.02653  0.88107  0.63507  1.0000
  O   O151      1.0  0.25040  0.63260  0.75820  1.0000
  O   O152      1.0  0.36740  0.61780  0.75820  1.0000
  O   O153      1.0  0.38220  0.74960  0.75820  1.0000
  O   O154      1.0  0.61780  0.36740  0.24180  1.0000
  O   O155      1.0  0.74960  0.38220  0.24180  1.0000
  O   O156      1.0  0.63260  0.25040  0.24180  1.0000
  O   O157      1.0  0.91707  0.96593  0.09153  1.0000
  O   O158      1.0  0.03407  0.95113  0.09153  1.0000
  O   O159      1.0  0.04887  0.08293  0.09153  1.0000
  O   O160      1.0  0.28447  0.70073  0.57513  1.0000
  O   O161      1.0  0.41627  0.71553  0.57513  1.0000
  O   O162      1.0  0.29927  0.58373  0.57513  1.0000
  O   O163      1.0  0.58373  0.29927  0.42487  1.0000
  O   O164      1.0  0.70073  0.28447  0.42487  1.0000
  O   O165      1.0  0.71553  0.41627  0.42487  1.0000
  O   O166      1.0  0.95113  0.03407  0.90847  1.0000
  O   O167      1.0  0.08293  0.04887  0.90847  1.0000
  O   O168      1.0  0.96593  0.91707  0.90847  1.0000
  O   O169      1.0  0.22700  0.48880  0.96930  1.0000
  O   O170      1.0  0.51120  0.73820  0.96930  1.0000
  O   O171      1.0  0.26180  0.77300  0.96930  1.0000
  O   O172      1.0  0.73820  0.51120  0.03070  1.0000
  O   O173      1.0  0.77300  0.26180  0.03070  1.0000
  O   O174      1.0  0.48880  0.22700  0.03070  1.0000
  O   O175      1.0  0.89367  0.82213  0.30263  1.0000
  O   O176      1.0  0.17787  0.07153  0.30263  1.0000
  O   O177      1.0  0.92847  0.10633  0.30263  1.0000
  O   O178      1.0  0.40487  0.84453  0.36403  1.0000
  O   O179      1.0  0.43967  0.59513  0.36403  1.0000
  O   O180      1.0  0.15547  0.56033  0.36403  1.0000
  O   O181      1.0  0.56033  0.15547  0.63597  1.0000
  O   O182      1.0  0.84453  0.40487  0.63597  1.0000
  O   O183      1.0  0.59513  0.43967  0.63597  1.0000
  O   O184      1.0  0.07153  0.17787  0.69737  1.0000
  O   O185      1.0  0.10633  0.92847  0.69737  1.0000
  O   O186      1.0  0.82213  0.89367  0.69737  1.0000
  O   O187      1.0  0.21540  0.69380  0.81580  1.0000
  O   O188      1.0  0.30620  0.52160  0.81580  1.0000
  O   O189      1.0  0.47840  0.78460  0.81580  1.0000
  O   O190      1.0  0.52160  0.30620  0.18420  1.0000
  O   O191      1.0  0.78460  0.47840  0.18420  1.0000
  O   O192      1.0  0.69380  0.21540  0.18420  1.0000
  O   O193      1.0  0.88207  0.02713  0.14913  1.0000
  O   O194      1.0  0.97287  0.85493  0.14913  1.0000
  O   O195      1.0  0.14507  0.11793  0.14913  1.0000
  O   O196      1.0  0.18827  0.63953  0.51753  1.0000
  O   O197      1.0  0.45127  0.81173  0.51753  1.0000
  O   O198      1.0  0.36047  0.54873  0.51753  1.0000
  O   O199      1.0  0.54873  0.36047  0.48247  1.0000
  O   O200      1.0  0.63953  0.18827  0.48247  1.0000
  O   O201      1.0  0.81173  0.45127  0.48247  1.0000
  O   O202      1.0  0.85493  0.97287  0.85087  1.0000
  O   O203      1.0  0.11793  0.14507  0.85087  1.0000
  O   O204      1.0  0.02713  0.88207  0.85087  1.0000
  O   O205      1.0  0.34290  0.80540  0.03120  1.0000
  O   O206      1.0  0.19460  0.53750  0.03120  1.0000
  O   O207      1.0  0.46250  0.65710  0.03120  1.0000
  O   O208      1.0  0.53750  0.19460  0.96880  1.0000
  O   O209      1.0  0.65710  0.46250  0.96880  1.0000
  O   O210      1.0  0.80540  0.34290  0.96880  1.0000
  O   O211      1.0  0.00957  0.13873  0.36453  1.0000
  O   O212      1.0  0.86127  0.87083  0.36453  1.0000
  O   O213      1.0  0.12917  0.99043  0.36453  1.0000
  O   O214      1.0  0.20417  0.52793  0.30213  1.0000
  O   O215      1.0  0.32377  0.79583  0.30213  1.0000
  O   O216      1.0  0.47207  0.67623  0.30213  1.0000
  O   O217      1.0  0.67623  0.47207  0.69787  1.0000
  O   O218      1.0  0.52793  0.20417  0.69787  1.0000
  O   O219      1.0  0.79583  0.32377  0.69787  1.0000
  O   O220      1.0  0.87083  0.86127  0.63547  1.0000
  O   O221      1.0  0.99043  0.12917  0.63547  1.0000
  O   O222      1.0  0.13873  0.00957  0.63547  1.0000
  O   O223      1.0  0.26360  0.76610  0.74440  1.0000
  O   O224      1.0  0.23390  0.49750  0.74440  1.0000
  O   O225      1.0  0.50250  0.73640  0.74440  1.0000
  O   O226      1.0  0.49750  0.23390  0.25560  1.0000
  O   O227      1.0  0.73640  0.50250  0.25560  1.0000
  O   O228      1.0  0.76610  0.26360  0.25560  1.0000
  O   O229      1.0  0.93027  0.09943  0.07773  1.0000
  O   O230      1.0  0.90057  0.83083  0.07773  1.0000
  O   O231      1.0  0.16917  0.06973  0.07773  1.0000
  O   O232      1.0  0.16417  0.56723  0.58893  1.0000
  O   O233      1.0  0.40307  0.83583  0.58893  1.0000
  O   O234      1.0  0.43277  0.59693  0.58893  1.0000
  O   O235      1.0  0.59693  0.43277  0.41107  1.0000
  O   O236      1.0  0.56723  0.16417  0.41107  1.0000
  O   O237      1.0  0.83583  0.40307  0.41107  1.0000
  O   O238      1.0  0.83083  0.90057  0.92227  1.0000
  O   O239      1.0  0.06973  0.16917  0.92227  1.0000
  O   O240      1.0  0.09943  0.93027  0.92227  1.0000
  O   O241      1.0  0.26760  0.77030  0.10240  1.0000
  O   O242      1.0  0.22970  0.49730  0.10240  1.0000
  O   O243      1.0  0.50270  0.73240  0.10240  1.0000
  O   O244      1.0  0.49730  0.22970  0.89760  1.0000
  O   O245      1.0  0.73240  0.50270  0.89760  1.0000
  O   O246      1.0  0.77030  0.26760  0.89760  1.0000
  O   O247      1.0  0.93427  0.10363  0.43573  1.0000
  O   O248      1.0  0.89637  0.83063  0.43573  1.0000
  O   O249      1.0  0.16937  0.06573  0.43573  1.0000
  O   O250      1.0  0.16397  0.56303  0.23093  1.0000
  O   O251      1.0  0.39907  0.83603  0.23093  1.0000
  O   O252      1.0  0.43697  0.60093  0.23093  1.0000
  O   O253      1.0  0.60093  0.43697  0.76907  1.0000
  O   O254      1.0  0.56303  0.16397  0.76907  1.0000
  O   O255      1.0  0.83603  0.39907  0.76907  1.0000
  O   O256      1.0  0.83063  0.89637  0.56427  1.0000
  O   O257      1.0  0.06573  0.16937  0.56427  1.0000
  O   O258      1.0  0.10363  0.93427  0.56427  1.0000
  O   O259      1.0  0.25170  0.63490  0.09050  1.0000
  O   O260      1.0  0.36510  0.61680  0.09050  1.0000
  O   O261      1.0  0.38320  0.74830  0.09050  1.0000
  O   O262      1.0  0.61680  0.36510  0.90950  1.0000
  O   O263      1.0  0.74830  0.38320  0.90950  1.0000
  O   O264      1.0  0.63490  0.25170  0.90950  1.0000
  O   O265      1.0  0.91837  0.96823  0.42383  1.0000
  O   O266      1.0  0.03177  0.95013  0.42383  1.0000
  O   O267      1.0  0.04987  0.08163  0.42383  1.0000
  O   O268      1.0  0.28347  0.69843  0.24283  1.0000
  O   O269      1.0  0.41497  0.71653  0.24283  1.0000
  O   O270      1.0  0.30157  0.58503  0.24283  1.0000
  O   O271      1.0  0.58503  0.30157  0.75717  1.0000
  O   O272      1.0  0.69843  0.28347  0.75717  1.0000
  O   O273      1.0  0.71653  0.41497  0.75717  1.0000
  O   O274      1.0  0.95013  0.03177  0.57617  1.0000
  O   O275      1.0  0.08163  0.04987  0.57617  1.0000
  O   O276      1.0  0.96823  0.91837  0.57617  1.0000
  O   O277      1.0  0.11710  0.71150  0.85850  1.0000
  O   O278      1.0  0.28850  0.40560  0.85850  1.0000
  O   O279      1.0  0.59440  0.88290  0.85850  1.0000
  O   O280      1.0  0.40560  0.28850  0.14150  1.0000
  O   O281      1.0  0.88290  0.59440  0.14150  1.0000
  O   O282      1.0  0.71150  0.11710  0.14150  1.0000
  O   O283      1.0  0.78377  0.04483  0.19183  1.0000
  O   O284      1.0  0.95517  0.73893  0.19183  1.0000
  O   O285      1.0  0.26107  0.21623  0.19183  1.0000
  O   O286      1.0  0.07227  0.62183  0.47483  1.0000
  O   O287      1.0  0.54957  0.92773  0.47483  1.0000
  O   O288      1.0  0.37817  0.45043  0.47483  1.0000
  O   O289      1.0  0.45043  0.37817  0.52517  1.0000
  O   O290      1.0  0.62183  0.07227  0.52517  1.0000
  O   O291      1.0  0.92773  0.54957  0.52517  1.0000
  O   O292      1.0  0.73893  0.95517  0.80817  1.0000
  O   O293      1.0  0.21623  0.26107  0.80817  1.0000
  O   O294      1.0  0.04483  0.78377  0.80817  1.0000
  O   O295      1.0  0.19370  0.53730  0.81550  1.0000
  O   O296      1.0  0.46270  0.65640  0.81550  1.0000
  O   O297      1.0  0.34360  0.80630  0.81550  1.0000
  O   O298      1.0  0.65640  0.46270  0.18450  1.0000
  O   O299      1.0  0.80630  0.34360  0.18450  1.0000
  O   O300      1.0  0.53730  0.19370  0.18450  1.0000
  O   O301      1.0  0.86037  0.87063  0.14883  1.0000
  O   O302      1.0  0.12937  0.98973  0.14883  1.0000
  O   O303      1.0  0.01027  0.13963  0.14883  1.0000
  O   O304      1.0  0.32307  0.79603  0.51783  1.0000
  O   O305      1.0  0.47297  0.67693  0.51783  1.0000
  O   O306      1.0  0.20397  0.52703  0.51783  1.0000
  O   O307      1.0  0.52703  0.20397  0.48217  1.0000
  O   O308      1.0  0.79603  0.32307  0.48217  1.0000
  O   O309      1.0  0.67693  0.47297  0.48217  1.0000
  O   O310      1.0  0.98973  0.12937  0.85117  1.0000
  O   O311      1.0  0.13963  0.01027  0.85117  1.0000
  O   O312      1.0  0.87063  0.86037  0.85117  1.0000
  O   O313      1.0  0.33330  0.66670  0.81970  1.0000
  O   O314      1.0  0.66660  0.33330  0.18030  1.0000
  O   O315      1.0  0.99997  0.00003  0.15303  1.0000
  O   O316      1.0  0.33327  0.66663  0.51363  1.0000
  O   O317      1.0  0.66663  0.33337  0.48637  1.0000
  O   O318      1.0  0.99993  0.99997  0.84697  1.0000
  O   O319      1.0  0.07980  0.43910  0.85970  1.0000
  O   O320      1.0  0.56090  0.64070  0.85970  1.0000
  O   O321      1.0  0.35930  0.92020  0.85970  1.0000
  O   O322      1.0  0.64070  0.56090  0.14030  1.0000
  O   O323      1.0  0.92020  0.35930  0.14030  1.0000
  O   O324      1.0  0.43910  0.07980  0.14030  1.0000
  O   O325      1.0  0.74647  0.77243  0.19303  1.0000
  O   O326      1.0  0.22757  0.97403  0.19303  1.0000
  O   O327      1.0  0.02597  0.25353  0.19303  1.0000
  O   O328      1.0  0.30737  0.89423  0.47363  1.0000
  O   O329      1.0  0.58687  0.69263  0.47363  1.0000
  O   O330      1.0  0.10577  0.41313  0.47363  1.0000
  O   O331      1.0  0.41313  0.10577  0.52637  1.0000
  O   O332      1.0  0.89423  0.30737  0.52637  1.0000
  O   O333      1.0  0.69263  0.58687  0.52637  1.0000
  O   O334      1.0  0.97403  0.22757  0.80697  1.0000
  O   O335      1.0  0.25353  0.02597  0.80697  1.0000
  O   O336      1.0  0.77243  0.74647  0.80697  1.0000
  O   O337      1.0  0.11630  0.70880  0.98830  1.0000
  O   O338      1.0  0.29120  0.40750  0.98830  1.0000
  O   O339      1.0  0.59250  0.88370  0.98830  1.0000
  O   O340      1.0  0.40750  0.29120  0.01170  1.0000
  O   O341      1.0  0.88370  0.59250  0.01170  1.0000
  O   O342      1.0  0.70880  0.11630  0.01170  1.0000
  O   O343      1.0  0.78297  0.04213  0.32163  1.0000
  O   O344      1.0  0.95787  0.74083  0.32163  1.0000
  O   O345      1.0  0.25917  0.21703  0.32163  1.0000
  O   O346      1.0  0.07417  0.62453  0.34503  1.0000
  O   O347      1.0  0.55037  0.92583  0.34503  1.0000
  O   O348      1.0  0.37547  0.44963  0.34503  1.0000
  O   O349      1.0  0.44963  0.37547  0.65497  1.0000
  O   O350      1.0  0.62453  0.07417  0.65497  1.0000
  O   O351      1.0  0.92583  0.55037  0.65497  1.0000
  O   O352      1.0  0.74083  0.95787  0.67837  1.0000
  O   O353      1.0  0.21703  0.25917  0.67837  1.0000
  O   O354      1.0  0.04213  0.78297  0.67837  1.0000
  O   O355      1.0  0.08340  0.43870  0.98740  1.0000
  O   O356      1.0  0.56130  0.64470  0.98740  1.0000
  O   O357      1.0  0.35530  0.91660  0.98740  1.0000
  O   O358      1.0  0.64470  0.56130  0.01260  1.0000
  O   O359      1.0  0.91660  0.35530  0.01260  1.0000
  O   O360      1.0  0.43870  0.08340  0.01260  1.0000
  O   O361      1.0  0.75007  0.77203  0.32073  1.0000
  O   O362      1.0  0.22797  0.97803  0.32073  1.0000
  O   O363      1.0  0.02197  0.24993  0.32073  1.0000
  O   O364      1.0  0.31137  0.89463  0.34593  1.0000
  O   O365      1.0  0.58327  0.68863  0.34593  1.0000
  O   O366      1.0  0.10537  0.41673  0.34593  1.0000
  O   O367      1.0  0.41673  0.10537  0.65407  1.0000
  O   O368      1.0  0.89463  0.31137  0.65407  1.0000
  O   O369      1.0  0.68863  0.58327  0.65407  1.0000
  O   O370      1.0  0.97803  0.22797  0.67927  1.0000
  O   O371      1.0  0.24993  0.02197  0.67927  1.0000
  O   O372      1.0  0.77203  0.75007  0.67927  1.0000
  C   C1        1.0  0.30820  0.92560  0.74860  1.0000
  C   C2        1.0  0.07440  0.38260  0.74860  1.0000
  C   C3        1.0  0.61740  0.69180  0.74860  1.0000
  C   C4        1.0  0.38260  0.07440  0.25140  1.0000
  C   C5        1.0  0.69180  0.61740  0.25140  1.0000
  C   C6        1.0  0.92560  0.30820  0.25140  1.0000
  C   C7        1.0  0.97487  0.25893  0.08193  1.0000
  C   C8        1.0  0.74107  0.71593  0.08193  1.0000
  C   C9        1.0  0.28407  0.02513  0.08193  1.0000
  C   C10       1.0  0.04927  0.40773  0.58473  1.0000
  C   C11       1.0  0.35847  0.95073  0.58473  1.0000
  C   C12       1.0  0.59227  0.64153  0.58473  1.0000
  C   C13       1.0  0.64153  0.59227  0.41527  1.0000
  C   C14       1.0  0.40773  0.04927  0.41527  1.0000
  C   C15       1.0  0.95073  0.35847  0.41527  1.0000
  C   C16       1.0  0.71593  0.74107  0.91807  1.0000
  C   C17       1.0  0.02513  0.28407  0.91807  1.0000
  C   C18       1.0  0.25893  0.97487  0.91807  1.0000
  H   H1        1.0  0.35750  0.95740  0.75000  1.0000
  H   H2        1.0  0.04260  0.40010  0.75000  1.0000
  H   H3        1.0  0.59990  0.64250  0.75000  1.0000
  H   H4        1.0  0.40010  0.04260  0.25000  1.0000
  H   H5        1.0  0.64250  0.59990  0.25000  1.0000
  H   H6        1.0  0.95740  0.35750  0.25000  1.0000
  H   H7        1.0  0.02417  0.29073  0.08333  1.0000
  H   H8        1.0  0.70927  0.73343  0.08333  1.0000
  H   H9        1.0  0.26657  0.97583  0.08333  1.0000
  H   H10       1.0  0.06677  0.37593  0.58333  1.0000
  H   H11       1.0  0.30917  0.93323  0.58333  1.0000
  H   H12       1.0  0.62407  0.69083  0.58333  1.0000
  H   H13       1.0  0.69083  0.62407  0.41667  1.0000
  H   H14       1.0  0.37593  0.06677  0.41667  1.0000
  H   H15       1.0  0.93323  0.30917  0.41667  1.0000
  H   H16       1.0  0.73343  0.70927  0.91667  1.0000
  H   H17       1.0  0.97583  0.26657  0.91667  1.0000
  H   H18       1.0  0.29073  0.02417  0.91667  1.0000
  C   C19       1.0  0.20890  0.86290  0.71290  1.0000
  C   C20       1.0  0.13710  0.34600  0.71290  1.0000
  C   C21       1.0  0.65400  0.79110  0.71290  1.0000
  C   C22       1.0  0.34600  0.13710  0.28710  1.0000
  C   C23       1.0  0.79110  0.65400  0.28710  1.0000
  C   C24       1.0  0.86290  0.20890  0.28710  1.0000
  C   C25       1.0  0.87557  0.19623  0.04623  1.0000
  C   C26       1.0  0.80377  0.67933  0.04623  1.0000
  C   C27       1.0  0.32067  0.12443  0.04623  1.0000
  C   C28       1.0  0.01267  0.47043  0.62043  1.0000
  C   C29       1.0  0.45777  0.98733  0.62043  1.0000
  C   C30       1.0  0.52957  0.54223  0.62043  1.0000
  C   C31       1.0  0.54223  0.52957  0.37957  1.0000
  C   C32       1.0  0.47043  0.01267  0.37957  1.0000
  C   C33       1.0  0.98733  0.45777  0.37957  1.0000
  C   C34       1.0  0.67933  0.80377  0.95377  1.0000
  C   C35       1.0  0.12443  0.32067  0.95377  1.0000
  C   C36       1.0  0.19623  0.87557  0.95377  1.0000
  H   H19       1.0  0.18470  0.85000  0.68910  1.0000
  H   H20       1.0  0.15000  0.33470  0.68910  1.0000
  H   H21       1.0  0.66530  0.81530  0.68910  1.0000
  H   H22       1.0  0.33470  0.15000  0.31090  1.0000
  H   H23       1.0  0.81530  0.66530  0.31090  1.0000
  H   H24       1.0  0.85000  0.18470  0.31090  1.0000
  H   H25       1.0  0.85137  0.18333  0.02243  1.0000
  H   H26       1.0  0.81667  0.66803  0.02243  1.0000
  H   H27       1.0  0.33197  0.14863  0.02243  1.0000
  H   H28       1.0  0.00137  0.48333  0.64423  1.0000
  H   H29       1.0  0.48197  0.99863  0.64423  1.0000
  H   H30       1.0  0.51667  0.51803  0.64423  1.0000
  H   H31       1.0  0.51803  0.51667  0.35577  1.0000
  H   H32       1.0  0.48333  0.00137  0.35577  1.0000
  H   H33       1.0  0.99863  0.48197  0.35577  1.0000
  H   H34       1.0  0.66803  0.81667  0.97757  1.0000
  H   H35       1.0  0.14863  0.33197  0.97757  1.0000
  H   H36       1.0  0.18333  0.85137  0.97757  1.0000
  C   C37       1.0  0.27150  0.89980  0.78220  1.0000
  C   C38       1.0  0.10020  0.37170  0.78220  1.0000
  C   C39       1.0  0.62830  0.72850  0.78220  1.0000
  C   C40       1.0  0.37170  0.10020  0.21780  1.0000
  C   C41       1.0  0.72850  0.62830  0.21780  1.0000
  C   C42       1.0  0.89980  0.27150  0.21780  1.0000
  C   C43       1.0  0.93817  0.23313  0.11553  1.0000
  C   C44       1.0  0.76687  0.70503  0.11553  1.0000
  C   C45       1.0  0.29497  0.06183  0.11553  1.0000
  C   C46       1.0  0.03837  0.43353  0.55113  1.0000
  C   C47       1.0  0.39517  0.96163  0.55113  1.0000
  C   C48       1.0  0.56647  0.60483  0.55113  1.0000
  C   C49       1.0  0.60483  0.56647  0.44887  1.0000
  C   C50       1.0  0.43353  0.03837  0.44887  1.0000
  C   C51       1.0  0.96163  0.39517  0.44887  1.0000
  C   C52       1.0  0.70503  0.76687  0.88447  1.0000
  C   C53       1.0  0.06183  0.29497  0.88447  1.0000
  C   C54       1.0  0.23313  0.93817  0.88447  1.0000
  H   H37       1.0  0.29550  0.91650  0.80590  1.0000
  H   H38       1.0  0.08350  0.37900  0.80590  1.0000
  H   H39       1.0  0.62100  0.70450  0.80590  1.0000
  H   H40       1.0  0.37900  0.08350  0.19410  1.0000
  H   H41       1.0  0.70450  0.62100  0.19410  1.0000
  H   H42       1.0  0.91650  0.29550  0.19410  1.0000
  H   H43       1.0  0.96217  0.24983  0.13923  1.0000
  H   H44       1.0  0.75017  0.71233  0.13923  1.0000
  H   H45       1.0  0.28767  0.03783  0.13923  1.0000
  H   H46       1.0  0.04567  0.41683  0.52743  1.0000
  H   H47       1.0  0.37117  0.95433  0.52743  1.0000
  H   H48       1.0  0.58317  0.62883  0.52743  1.0000
  H   H49       1.0  0.62883  0.58317  0.47257  1.0000
  H   H50       1.0  0.41683  0.04567  0.47257  1.0000
  H   H51       1.0  0.95433  0.37117  0.47257  1.0000
  H   H52       1.0  0.71233  0.75017  0.86077  1.0000
  H   H53       1.0  0.03783  0.28767  0.86077  1.0000
  H   H54       1.0  0.24983  0.96217  0.86077  1.0000
  C   C55       1.0  0.17160  0.83430  0.74700  1.0000
  C   C56       1.0  0.16570  0.33730  0.74700  1.0000
  C   C57       1.0  0.66270  0.82840  0.74700  1.0000
  C   C58       1.0  0.33730  0.16570  0.25300  1.0000
  C   C59       1.0  0.82840  0.66270  0.25300  1.0000
  C   C60       1.0  0.83430  0.17160  0.25300  1.0000
  C   C61       1.0  0.83827  0.16763  0.08033  1.0000
  C   C62       1.0  0.83237  0.67063  0.08033  1.0000
  C   C63       1.0  0.32937  0.16173  0.08033  1.0000
  C   C64       1.0  0.00397  0.49903  0.58633  1.0000
  C   C65       1.0  0.49507  0.99603  0.58633  1.0000
  C   C66       1.0  0.50097  0.50493  0.58633  1.0000
  C   C67       1.0  0.50493  0.50097  0.41367  1.0000
  C   C68       1.0  0.49903  0.00397  0.41367  1.0000
  C   C69       1.0  0.99603  0.49507  0.41367  1.0000
  C   C70       1.0  0.67063  0.83237  0.91967  1.0000
  C   C71       1.0  0.16173  0.32937  0.91967  1.0000
  C   C72       1.0  0.16763  0.83827  0.91967  1.0000
  H   H55       1.0  0.12260  0.80120  0.74530  1.0000
  H   H56       1.0  0.19880  0.32140  0.74530  1.0000
  H   H57       1.0  0.67860  0.87740  0.74530  1.0000
  H   H58       1.0  0.32140  0.19880  0.25470  1.0000
  H   H59       1.0  0.87740  0.67860  0.25470  1.0000
  H   H60       1.0  0.80120  0.12260  0.25470  1.0000
  H   H61       1.0  0.78927  0.13453  0.07863  1.0000
  H   H62       1.0  0.86547  0.65473  0.07863  1.0000
  H   H63       1.0  0.34527  0.21073  0.07863  1.0000
  H   H64       1.0  0.98807  0.53213  0.58803  1.0000
  H   H65       1.0  0.54407  0.01193  0.58803  1.0000
  H   H66       1.0  0.46787  0.45593  0.58803  1.0000
  H   H67       1.0  0.45593  0.46787  0.41197  1.0000
  H   H68       1.0  0.53213  0.98807  0.41197  1.0000
  H   H69       1.0  0.01193  0.54407  0.41197  1.0000
  H   H70       1.0  0.65473  0.86547  0.92137  1.0000
  H   H71       1.0  0.21073  0.34527  0.92137  1.0000
  H   H72       1.0  0.13453  0.78927  0.92137  1.0000
