data_image0
_chemical_formula_structural       U8O44C20O8H8C4O16
_chemical_formula_sum              "U8 O68 C24 H8"
_cell_length_a       8.964
_cell_length_b       24.623
_cell_length_c       11.535
_cell_angle_alpha    90
_cell_angle_beta     111.39
_cell_angle_gamma    90

_space_group_name_H-M_alt    "P 1"
_space_group_IT_number       1

loop_
  _space_group_symop_operation_xyz
  'x, y, z'

loop_
  _atom_site_type_symbol
  _atom_site_label
  _atom_site_symmetry_multiplicity
  _atom_site_fract_x
  _atom_site_fract_y
  _atom_site_fract_z
  _atom_site_occupancy
  U   U1        1.0  0.76283  0.29619  0.02990  1.0000
  U   U2        1.0  0.73717  0.79619  0.47010  1.0000
  U   U3        1.0  0.23717  0.70381  0.97010  1.0000
  U   U4        1.0  0.26283  0.20381  0.52990  1.0000
  U   U5        1.0  0.72471  0.56256  0.92055  1.0000
  U   U6        1.0  0.77529  0.06256  0.57945  1.0000
  U   U7        1.0  0.27529  0.43744  0.07945  1.0000
  U   U8        1.0  0.22471  0.93744  0.42055  1.0000
  O   O1        1.0  0.39010  0.28491  0.64570  1.0000
  O   O2        1.0  0.10990  0.78491  0.85430  1.0000
  O   O3        1.0  0.60990  0.71509  0.35430  1.0000
  O   O4        1.0  0.89010  0.21509  0.14570  1.0000
  O   O5        1.0  0.46110  0.18475  0.73190  1.0000
  O   O6        1.0  0.03890  0.68475  0.76810  1.0000
  O   O7        1.0  0.53890  0.81525  0.26810  1.0000
  O   O8        1.0  0.96110  0.31525  0.23190  1.0000
  O   O9        1.0  0.77240  0.63445  0.06600  1.0000
  O   O10       1.0  0.72760  0.13445  0.43400  1.0000
  O   O11       1.0  0.22760  0.36555  0.93400  1.0000
  O   O12       1.0  0.27240  0.86555  0.56600  1.0000
  O   O13       1.0  0.64540  0.21726  0.90490  1.0000
  O   O14       1.0  0.85460  0.71726  0.59510  1.0000
  O   O15       1.0  0.35460  0.78274  0.09510  1.0000
  O   O16       1.0  0.14540  0.28274  0.40490  1.0000
  O   O17       1.0  0.75120  0.38739  0.02570  1.0000
  O   O18       1.0  0.74880  0.88739  0.47430  1.0000
  O   O19       1.0  0.24880  0.61261  0.97430  1.0000
  O   O20       1.0  0.25120  0.11261  0.52570  1.0000
  O   O21       1.0  0.56730  0.31775  0.82300  1.0000
  O   O22       1.0  0.93270  0.81775  0.67700  1.0000
  O   O23       1.0  0.43270  0.68225  0.17700  1.0000
  O   O24       1.0  0.06730  0.18225  0.32300  1.0000
  O   O25       1.0  0.73820  0.73939  0.85260  1.0000
  O   O26       1.0  0.76180  0.23939  0.64740  1.0000
  O   O27       1.0  0.26180  0.26061  0.14740  1.0000
  O   O28       1.0  0.23820  0.76061  0.35260  1.0000
  O   O29       1.0  0.71190  0.64950  0.83130  1.0000
  O   O30       1.0  0.78810  0.14950  0.66870  1.0000
  O   O31       1.0  0.28810  0.35050  0.16870  1.0000
  O   O32       1.0  0.21190  0.85050  0.33130  1.0000
  O   O33       1.0  0.79340  0.52233  0.12180  1.0000
  O   O34       1.0  0.70660  0.02233  0.37820  1.0000
  O   O35       1.0  0.20660  0.47767  0.87820  1.0000
  O   O36       1.0  0.29340  0.97767  0.62180  1.0000
  O   O37       1.0  0.70860  0.46466  0.91830  1.0000
  O   O38       1.0  0.79140  0.96466  0.58170  1.0000
  O   O39       1.0  0.29140  0.53534  0.08170  1.0000
  O   O40       1.0  0.20860  0.03534  0.41830  1.0000
  O   O41       1.0  0.85350  0.44874  0.24120  1.0000
  O   O42       1.0  0.64650  0.94874  0.25880  1.0000
  O   O43       1.0  0.14650  0.55126  0.75880  1.0000
  O   O44       1.0  0.35350  0.05126  0.74120  1.0000
  C   C1        1.0  0.49450  0.27970  0.75110  1.0000
  C   C2        1.0  0.00550  0.77970  0.74890  1.0000
  C   C3        1.0  0.50550  0.72030  0.24890  1.0000
  C   C4        1.0  0.99450  0.22030  0.25110  1.0000
  C   C5        1.0  0.53820  0.22230  0.80000  1.0000
  C   C6        1.0  0.96180  0.72230  0.70000  1.0000
  C   C7        1.0  0.46180  0.77770  0.20000  1.0000
  C   C8        1.0  0.03820  0.27770  0.30000  1.0000
  C   C9        1.0  0.75050  0.43840  0.01790  1.0000
  C   C10       1.0  0.74950  0.93840  0.48210  1.0000
  C   C11       1.0  0.24950  0.56160  0.98210  1.0000
  C   C12       1.0  0.25050  0.06160  0.51790  1.0000
  C   C13       1.0  0.73240  0.69330  0.89400  1.0000
  C   C14       1.0  0.76760  0.19330  0.60600  1.0000
  C   C15       1.0  0.26760  0.30670  0.10600  1.0000
  C   C16       1.0  0.23240  0.80670  0.39400  1.0000
  C   C17       1.0  0.75540  0.68500  0.03260  1.0000
  C   C18       1.0  0.74460  0.18500  0.46740  1.0000
  C   C19       1.0  0.24460  0.31500  0.96740  1.0000
  C   C20       1.0  0.25540  0.81500  0.53260  1.0000
  O   O45       1.0  0.75830  0.72296  0.09990  1.0000
  O   O46       1.0  0.74170  0.22296  0.40010  1.0000
  O   O47       1.0  0.24170  0.27704  0.90010  1.0000
  O   O48       1.0  0.25830  0.77704  0.59990  1.0000
  O   O49       1.0  0.65150  0.54160  0.70310  1.0000
  O   O50       1.0  0.84850  0.04160  0.79690  1.0000
  O   O51       1.0  0.34850  0.45840  0.29690  1.0000
  O   O52       1.0  0.15150  0.95840  0.20310  1.0000
  H   H1        1.0  0.69390  0.50970  0.69090  1.0000
  H   H2        1.0  0.80610  0.00970  0.80910  1.0000
  H   H3        1.0  0.30610  0.49030  0.30910  1.0000
  H   H4        1.0  0.19390  0.99030  0.19090  1.0000
  H   H5        1.0  0.68590  0.56730  0.66280  1.0000
  H   H6        1.0  0.81410  0.06730  0.83720  1.0000
  H   H7        1.0  0.31410  0.43270  0.33720  1.0000
  H   H8        1.0  0.18590  0.93270  0.16280  1.0000
  C   C21       1.0  0.80380  0.47100  0.13810  1.0000
  C   C22       1.0  0.69620  0.97100  0.36190  1.0000
  C   C23       1.0  0.19620  0.52900  0.86190  1.0000
  C   C24       1.0  0.30380  0.02900  0.63810  1.0000
  O   O53       1.0  0.91450  0.29708  0.96650  1.0000
  O   O54       1.0  0.58550  0.79708  0.53350  1.0000
  O   O55       1.0  0.08550  0.70292  0.03350  1.0000
  O   O56       1.0  0.41450  0.20292  0.46650  1.0000
  O   O57       1.0  0.61230  0.29284  0.09370  1.0000
  O   O58       1.0  0.88770  0.79284  0.40630  1.0000
  O   O59       1.0  0.38770  0.70716  0.90630  1.0000
  O   O60       1.0  0.11230  0.20716  0.59370  1.0000
  O   O61       1.0  0.52120  0.56417  0.89950  1.0000
  O   O62       1.0  0.97880  0.06417  0.60050  1.0000
  O   O63       1.0  0.47880  0.43583  0.10050  1.0000
  O   O64       1.0  0.02120  0.93583  0.39950  1.0000
  O   O65       1.0  0.92570  0.55906  0.93700  1.0000
  O   O66       1.0  0.57430  0.05906  0.56300  1.0000
  O   O67       1.0  0.07430  0.44094  0.06300  1.0000
  O   O68       1.0  0.42570  0.94094  0.43700  1.0000
