data_image0
_chemical_formula_structural       Eu4O36C12H12C16H12C4H12C4H12C4H12O4
_chemical_formula_sum              "Eu4 O40 C40 H60"
_cell_length_a       6.7137
_cell_length_b       14.8928
_cell_length_c       20.2772
_cell_angle_alpha    90
_cell_angle_beta     97.157
_cell_angle_gamma    90

_space_group_name_H-M_alt    "P 1"
_space_group_IT_number       1

loop_
  _space_group_symop_operation_xyz
  'x, y, z'

loop_
  _atom_site_type_symbol
  _atom_site_label
  _atom_site_symmetry_multiplicity
  _atom_site_fract_x
  _atom_site_fract_y
  _atom_site_fract_z
  _atom_site_occupancy
  Eu  Eu1       1.0  0.52948  0.59395  0.78336  1.0000
  Eu  Eu2       1.0  0.97052  0.09395  0.71664  1.0000
  Eu  Eu3       1.0  0.47052  0.40605  0.21664  1.0000
  Eu  Eu4       1.0  0.02948  0.90605  0.28336  1.0000
  O   O1        1.0  0.86480  0.64450  0.79930  1.0000
  O   O2        1.0  0.63520  0.14450  0.70070  1.0000
  O   O3        1.0  0.13520  0.35550  0.20070  1.0000
  O   O4        1.0  0.36480  0.85550  0.29930  1.0000
  O   O5        1.0  0.73010  0.47570  0.85030  1.0000
  O   O6        1.0  0.76990  0.97570  0.64970  1.0000
  O   O7        1.0  0.26990  0.52430  0.14970  1.0000
  O   O8        1.0  0.23010  0.02430  0.35030  1.0000
  O   O9        1.0  0.40350  0.46470  0.84800  1.0000
  O   O10       1.0  0.09650  0.96470  0.65200  1.0000
  O   O11       1.0  0.59650  0.53530  0.15200  1.0000
  O   O12       1.0  0.90350  0.03530  0.34800  1.0000
  O   O13       1.0  0.49470  0.68060  0.68740  1.0000
  O   O14       1.0  0.00530  0.18060  0.81260  1.0000
  O   O15       1.0  0.50530  0.31940  0.31260  1.0000
  O   O16       1.0  0.99470  0.81940  0.18740  1.0000
  O   O17       1.0  0.18030  0.61470  0.78700  1.0000
  O   O18       1.0  0.31970  0.11470  0.71300  1.0000
  O   O19       1.0  0.81970  0.38530  0.21300  1.0000
  O   O20       1.0  0.68030  0.88530  0.28700  1.0000
  O   O21       1.0  0.49350  0.75170  0.82680  1.0000
  O   O22       1.0  0.00650  0.25170  0.67320  1.0000
  O   O23       1.0  0.50650  0.24830  0.17320  1.0000
  O   O24       1.0  0.99350  0.74830  0.32680  1.0000
  O   O25       1.0  0.37040  0.48260  0.70100  1.0000
  O   O26       1.0  0.12960  0.98260  0.79900  1.0000
  O   O27       1.0  0.62960  0.51740  0.29900  1.0000
  O   O28       1.0  0.87040  0.01740  0.20100  1.0000
  O   O29       1.0  0.52800  0.64500  0.90250  1.0000
  O   O30       1.0  0.97200  0.14500  0.59750  1.0000
  O   O31       1.0  0.47200  0.35500  0.09750  1.0000
  O   O32       1.0  0.02800  0.85500  0.40250  1.0000
  O   O33       1.0  0.69730  0.49450  0.70680  1.0000
  O   O34       1.0  0.80270  0.99450  0.79320  1.0000
  O   O35       1.0  0.30270  0.50550  0.29320  1.0000
  O   O36       1.0  0.19730  0.00550  0.20680  1.0000
  C   C1        1.0  0.57700  0.44010  0.87150  1.0000
  C   C2        1.0  0.92300  0.94010  0.62850  1.0000
  C   C3        1.0  0.42300  0.55990  0.12850  1.0000
  C   C4        1.0  0.07700  0.05990  0.37150  1.0000
  C   C5        1.0  0.53510  0.45870  0.68140  1.0000
  C   C6        1.0  0.96490  0.95870  0.81860  1.0000
  C   C7        1.0  0.46490  0.54130  0.31860  1.0000
  C   C8        1.0  0.03510  0.04130  0.18140  1.0000
  C   C9        1.0  0.53500  0.39050  0.62650  1.0000
  C   C10       1.0  0.96500  0.89050  0.87350  1.0000
  C   C11       1.0  0.46500  0.60950  0.37350  1.0000
  C   C12       1.0  0.03500  0.10950  0.12650  1.0000
  H   H1        1.0  0.47247  0.33621  0.63898  1.0000
  H   H2        1.0  0.02753  0.83621  0.86102  1.0000
  H   H3        1.0  0.52753  0.66379  0.36102  1.0000
  H   H4        1.0  0.97247  0.16379  0.13898  1.0000
  H   H5        1.0  0.67074  0.37809  0.61908  1.0000
  H   H6        1.0  0.82926  0.87809  0.88092  1.0000
  H   H7        1.0  0.32926  0.62191  0.38092  1.0000
  H   H8        1.0  0.17074  0.12191  0.11908  1.0000
  H   H9        1.0  0.46180  0.41389  0.58648  1.0000
  H   H10       1.0  0.03820  0.91389  0.91352  1.0000
  H   H11       1.0  0.53820  0.58611  0.41352  1.0000
  H   H12       1.0  0.96180  0.08611  0.08648  1.0000
  C   C13       1.0  0.50370  0.72770  0.88700  1.0000
  C   C14       1.0  0.99630  0.22770  0.61300  1.0000
  C   C15       1.0  0.49630  0.27230  0.11300  1.0000
  C   C16       1.0  0.00370  0.77230  0.38700  1.0000
  C   C17       1.0  0.46530  0.70910  0.62880  1.0000
  C   C18       1.0  0.03470  0.20910  0.87120  1.0000
  C   C19       1.0  0.53470  0.29090  0.37120  1.0000
  C   C20       1.0  0.96530  0.79090  0.12880  1.0000
  C   C21       1.0  0.01990  0.65860  0.77170  1.0000
  C   C22       1.0  0.48010  0.15860  0.72830  1.0000
  C   C23       1.0  0.98010  0.34140  0.22830  1.0000
  C   C24       1.0  0.51990  0.84140  0.27170  1.0000
  C   C25       1.0  0.60450  0.36930  0.92450  1.0000
  C   C26       1.0  0.89550  0.86930  0.57550  1.0000
  C   C27       1.0  0.39550  0.63070  0.07550  1.0000
  C   C28       1.0  0.10450  0.13070  0.42450  1.0000
  H   H13       1.0  0.73220  0.34050  0.92383  1.0000
  H   H14       1.0  0.76780  0.84050  0.57617  1.0000
  H   H15       1.0  0.26780  0.65950  0.07617  1.0000
  H   H16       1.0  0.23220  0.15950  0.42383  1.0000
  H   H17       1.0  0.49938  0.32549  0.91651  1.0000
  H   H18       1.0  0.00062  0.82549  0.58349  1.0000
  H   H19       1.0  0.50062  0.67451  0.08349  1.0000
  H   H20       1.0  0.99938  0.17451  0.41651  1.0000
  H   H21       1.0  0.59965  0.39654  0.96721  1.0000
  H   H22       1.0  0.90035  0.89654  0.53279  1.0000
  H   H23       1.0  0.40035  0.60346  0.03279  1.0000
  H   H24       1.0  0.09965  0.10346  0.46721  1.0000
  C   C29       1.0  0.48820  0.79600  0.94030  1.0000
  C   C30       1.0  0.01180  0.29600  0.55970  1.0000
  C   C31       1.0  0.51180  0.20400  0.05970  1.0000
  C   C32       1.0  0.98820  0.70400  0.44030  1.0000
  H   H25       1.0  0.48296  0.85505  0.92111  1.0000
  H   H26       1.0  0.01704  0.35505  0.57889  1.0000
  H   H27       1.0  0.51704  0.14495  0.07889  1.0000
  H   H28       1.0  0.98296  0.64495  0.42111  1.0000
  H   H29       1.0  0.60320  0.79142  0.97333  1.0000
  H   H30       1.0  0.89680  0.29142  0.52667  1.0000
  H   H31       1.0  0.39680  0.20858  0.02667  1.0000
  H   H32       1.0  0.10320  0.70858  0.47333  1.0000
  H   H33       1.0  0.36844  0.78540  0.96049  1.0000
  H   H34       1.0  0.13156  0.28540  0.53951  1.0000
  H   H35       1.0  0.63156  0.21460  0.03951  1.0000
  H   H36       1.0  0.86844  0.71460  0.46049  1.0000
  C   C33       1.0  0.02650  0.73910  0.72270  1.0000
  C   C34       1.0  0.47350  0.23910  0.77730  1.0000
  C   C35       1.0  0.97350  0.26090  0.27730  1.0000
  C   C36       1.0  0.52650  0.76090  0.22270  1.0000
  H   H37       1.0  0.89213  0.75832  0.70749  1.0000
  H   H38       1.0  0.60787  0.25832  0.79251  1.0000
  H   H39       1.0  0.10787  0.24168  0.29251  1.0000
  H   H40       1.0  0.39213  0.74168  0.20749  1.0000
  H   H41       1.0  0.09147  0.72058  0.68538  1.0000
  H   H42       1.0  0.40853  0.22058  0.81462  1.0000
  H   H43       1.0  0.90853  0.27942  0.31462  1.0000
  H   H44       1.0  0.59147  0.77942  0.18538  1.0000
  H   H45       1.0  0.09997  0.78789  0.74511  1.0000
  H   H46       1.0  0.40003  0.28789  0.75489  1.0000
  H   H47       1.0  0.90003  0.21211  0.25489  1.0000
  H   H48       1.0  0.59997  0.71211  0.24511  1.0000
  C   C37       1.0  0.50300  0.64880  0.57360  1.0000
  C   C38       1.0  0.99700  0.14880  0.92640  1.0000
  C   C39       1.0  0.49700  0.35120  0.42640  1.0000
  C   C40       1.0  0.00300  0.85120  0.07360  1.0000
  H   H49       1.0  0.62336  0.61524  0.58606  1.0000
  H   H50       1.0  0.87664  0.11524  0.91394  1.0000
  H   H51       1.0  0.37664  0.38476  0.41394  1.0000
  H   H52       1.0  0.12336  0.88476  0.08606  1.0000
  H   H53       1.0  0.51668  0.68396  0.53474  1.0000
  H   H54       1.0  0.98332  0.18396  0.96526  1.0000
  H   H55       1.0  0.48332  0.31604  0.46526  1.0000
  H   H56       1.0  0.01668  0.81604  0.03474  1.0000
  H   H57       1.0  0.39158  0.60823  0.56414  1.0000
  H   H58       1.0  0.10842  0.10823  0.93586  1.0000
  H   H59       1.0  0.60842  0.39177  0.43586  1.0000
  H   H60       1.0  0.89158  0.89177  0.06414  1.0000
  O   O37       1.0  0.40950  0.78890  0.61540  1.0000
  O   O38       1.0  0.09050  0.28890  0.88460  1.0000
  O   O39       1.0  0.59050  0.21110  0.38460  1.0000
  O   O40       1.0  0.90950  0.71110  0.11540  1.0000
