data_image0
_chemical_formula_structural       Am4O40C24H12C4H12C4H12C4H12C4H12
_chemical_formula_sum              "Am4 O40 C40 H60"
_cell_length_a       6.7963
_cell_length_b       15.0543
_cell_length_c       20.4812
_cell_angle_alpha    90
_cell_angle_beta     97.297
_cell_angle_gamma    90

_space_group_name_H-M_alt    "P 1"
_space_group_IT_number       1

loop_
  _space_group_symop_operation_xyz
  'x, y, z'

loop_
  _atom_site_type_symbol
  _atom_site_label
  _atom_site_symmetry_multiplicity
  _atom_site_fract_x
  _atom_site_fract_y
  _atom_site_fract_z
  _atom_site_occupancy
  Am  Am1       1.0  0.53107  0.59582  0.78159  1.0000
  Am  Am2       1.0  0.96893  0.09582  0.71841  1.0000
  Am  Am3       1.0  0.46893  0.40418  0.21841  1.0000
  Am  Am4       1.0  0.03107  0.90418  0.28159  1.0000
  O   O1        1.0  0.40450  0.46776  0.84780  1.0000
  O   O2        1.0  0.09550  0.96776  0.65220  1.0000
  O   O3        1.0  0.59550  0.53224  0.15220  1.0000
  O   O4        1.0  0.90450  0.03224  0.34780  1.0000
  O   O5        1.0  0.87090  0.64330  0.79693  1.0000
  O   O6        1.0  0.62910  0.14330  0.70307  1.0000
  O   O7        1.0  0.12910  0.35670  0.20307  1.0000
  O   O8        1.0  0.37090  0.85670  0.29693  1.0000
  O   O9        1.0  0.49730  0.75235  0.82807  1.0000
  O   O10       1.0  0.00270  0.25235  0.67193  1.0000
  O   O11       1.0  0.50270  0.24765  0.17193  1.0000
  O   O12       1.0  0.99730  0.74765  0.32807  1.0000
  O   O13       1.0  0.72580  0.47534  0.85025  1.0000
  O   O14       1.0  0.77420  0.97534  0.64975  1.0000
  O   O15       1.0  0.27420  0.52466  0.14975  1.0000
  O   O16       1.0  0.22580  0.02466  0.35025  1.0000
  O   O17       1.0  0.17910  0.61800  0.78414  1.0000
  O   O18       1.0  0.32090  0.11800  0.71586  1.0000
  O   O19       1.0  0.82090  0.38200  0.21586  1.0000
  O   O20       1.0  0.67910  0.88200  0.28414  1.0000
  O   O21       1.0  0.42000  0.79360  0.61659  1.0000
  O   O22       1.0  0.08000  0.29360  0.88341  1.0000
  O   O23       1.0  0.58000  0.20640  0.38341  1.0000
  O   O24       1.0  0.92000  0.70640  0.11659  1.0000
  O   O25       1.0  0.49630  0.68560  0.68648  1.0000
  O   O26       1.0  0.00370  0.18560  0.81352  1.0000
  O   O27       1.0  0.50370  0.31440  0.31352  1.0000
  O   O28       1.0  0.99630  0.81440  0.18648  1.0000
  O   O29       1.0  0.53850  0.64705  0.90140  1.0000
  O   O30       1.0  0.96150  0.14705  0.59860  1.0000
  O   O31       1.0  0.46150  0.35295  0.09860  1.0000
  O   O32       1.0  0.03850  0.85295  0.40140  1.0000
  O   O33       1.0  0.69400  0.49390  0.70465  1.0000
  O   O34       1.0  0.80600  0.99390  0.79535  1.0000
  O   O35       1.0  0.30600  0.50610  0.29535  1.0000
  O   O36       1.0  0.19400  0.00610  0.20465  1.0000
  O   O37       1.0  0.37220  0.48150  0.70036  1.0000
  O   O38       1.0  0.12780  0.98150  0.79964  1.0000
  O   O39       1.0  0.62780  0.51850  0.29964  1.0000
  O   O40       1.0  0.87220  0.01850  0.20036  1.0000
  C   C1        1.0  0.57570  0.44270  0.87110  1.0000
  C   C2        1.0  0.92430  0.94270  0.62890  1.0000
  C   C3        1.0  0.42430  0.55730  0.12890  1.0000
  C   C4        1.0  0.07570  0.05730  0.37110  1.0000
  C   C5        1.0  0.02170  0.65940  0.76998  1.0000
  C   C6        1.0  0.47830  0.15940  0.73002  1.0000
  C   C7        1.0  0.97830  0.34060  0.23002  1.0000
  C   C8        1.0  0.52170  0.84060  0.26998  1.0000
  C   C9        1.0  0.50970  0.72810  0.88610  1.0000
  C   C10       1.0  0.99030  0.22810  0.61390  1.0000
  C   C11       1.0  0.49030  0.27190  0.11390  1.0000
  C   C12       1.0  0.00970  0.77190  0.38610  1.0000
  C   C13       1.0  0.46910  0.71550  0.62930  1.0000
  C   C14       1.0  0.03090  0.21550  0.87070  1.0000
  C   C15       1.0  0.53090  0.28450  0.37070  1.0000
  C   C16       1.0  0.96910  0.78450  0.12930  1.0000
  C   C17       1.0  0.53200  0.45910  0.68070  1.0000
  C   C18       1.0  0.96800  0.95910  0.81930  1.0000
  C   C19       1.0  0.46800  0.54090  0.31930  1.0000
  C   C20       1.0  0.03200  0.04090  0.18070  1.0000
  C   C21       1.0  0.59960  0.37400  0.92450  1.0000
  C   C22       1.0  0.90040  0.87400  0.57550  1.0000
  C   C23       1.0  0.40040  0.62600  0.07550  1.0000
  C   C24       1.0  0.09960  0.12600  0.42450  1.0000
  H   H1        1.0  0.72849  0.34728  0.92642  1.0000
  H   H2        1.0  0.77151  0.84728  0.57358  1.0000
  H   H3        1.0  0.27151  0.65272  0.07358  1.0000
  H   H4        1.0  0.22849  0.15272  0.42642  1.0000
  H   H5        1.0  0.49954  0.32914  0.91526  1.0000
  H   H6        1.0  0.00046  0.82914  0.58474  1.0000
  H   H7        1.0  0.50046  0.67086  0.08474  1.0000
  H   H8        1.0  0.99954  0.17086  0.41526  1.0000
  H   H9        1.0  0.58617  0.40156  0.96595  1.0000
  H   H10       1.0  0.91383  0.90156  0.53405  1.0000
  H   H11       1.0  0.41383  0.59844  0.03405  1.0000
  H   H12       1.0  0.08617  0.09844  0.46595  1.0000
  C   C25       1.0  0.01080  0.73270  0.72080  1.0000
  C   C26       1.0  0.48920  0.23270  0.77920  1.0000
  C   C27       1.0  0.98920  0.26730  0.27920  1.0000
  C   C28       1.0  0.51080  0.76730  0.22080  1.0000
  H   H13       1.0  0.88387  0.73143  0.69423  1.0000
  H   H14       1.0  0.61613  0.23143  0.80577  1.0000
  H   H15       1.0  0.11613  0.26857  0.30577  1.0000
  H   H16       1.0  0.38387  0.76857  0.19423  1.0000
  H   H17       1.0  0.11372  0.72514  0.69324  1.0000
  H   H18       1.0  0.38628  0.22514  0.80676  1.0000
  H   H19       1.0  0.88628  0.27486  0.30676  1.0000
  H   H20       1.0  0.61372  0.77486  0.19324  1.0000
  H   H21       1.0  0.02775  0.78862  0.74329  1.0000
  H   H22       1.0  0.47225  0.28862  0.75671  1.0000
  H   H23       1.0  0.97225  0.21138  0.25671  1.0000
  H   H24       1.0  0.52775  0.71138  0.24329  1.0000
  C   C29       1.0  0.48910  0.79320  0.94020  1.0000
  C   C30       1.0  0.01090  0.29320  0.55980  1.0000
  C   C31       1.0  0.51090  0.20680  0.05980  1.0000
  C   C32       1.0  0.98910  0.70680  0.44020  1.0000
  H   H25       1.0  0.46503  0.85137  0.92177  1.0000
  H   H26       1.0  0.03497  0.35137  0.57823  1.0000
  H   H27       1.0  0.53497  0.14863  0.07823  1.0000
  H   H28       1.0  0.96503  0.64863  0.42177  1.0000
  H   H29       1.0  0.60910  0.79382  0.97051  1.0000
  H   H30       1.0  0.89090  0.29382  0.52949  1.0000
  H   H31       1.0  0.39090  0.20618  0.02949  1.0000
  H   H32       1.0  0.10910  0.70618  0.47051  1.0000
  H   H33       1.0  0.38008  0.77598  0.96298  1.0000
  H   H34       1.0  0.11992  0.27598  0.53702  1.0000
  H   H35       1.0  0.61992  0.22402  0.03702  1.0000
  H   H36       1.0  0.88008  0.72402  0.46298  1.0000
  C   C33       1.0  0.53110  0.39140  0.62680  1.0000
  C   C34       1.0  0.96890  0.89140  0.87320  1.0000
  C   C35       1.0  0.46890  0.60860  0.37320  1.0000
  C   C36       1.0  0.03110  0.10860  0.12680  1.0000
  H   H37       1.0  0.43104  0.34756  0.63129  1.0000
  H   H38       1.0  0.06896  0.84756  0.86871  1.0000
  H   H39       1.0  0.56896  0.65244  0.36871  1.0000
  H   H40       1.0  0.93104  0.15244  0.13129  1.0000
  H   H41       1.0  0.65854  0.36311  0.62987  1.0000
  H   H42       1.0  0.84146  0.86311  0.87013  1.0000
  H   H43       1.0  0.34146  0.63689  0.37013  1.0000
  H   H44       1.0  0.15854  0.13689  0.12987  1.0000
  H   H45       1.0  0.50307  0.42014  0.58482  1.0000
  H   H46       1.0  0.99693  0.92014  0.91518  1.0000
  H   H47       1.0  0.49693  0.57986  0.41518  1.0000
  H   H48       1.0  0.00307  0.07986  0.08482  1.0000
  C   C37       1.0  0.50170  0.65510  0.57360  1.0000
  C   C38       1.0  0.99830  0.15510  0.92640  1.0000
  C   C39       1.0  0.49830  0.34490  0.42640  1.0000
  C   C40       1.0  0.00170  0.84490  0.07360  1.0000
  H   H49       1.0  0.41067  0.60619  0.57211  1.0000
  H   H50       1.0  0.08933  0.10619  0.92789  1.0000
  H   H51       1.0  0.58933  0.39381  0.42789  1.0000
  H   H52       1.0  0.91067  0.89381  0.07211  1.0000
  H   H53       1.0  0.63531  0.63305  0.58015  1.0000
  H   H54       1.0  0.86469  0.13305  0.91985  1.0000
  H   H55       1.0  0.36469  0.36695  0.41985  1.0000
  H   H56       1.0  0.13531  0.86695  0.08015  1.0000
  H   H57       1.0  0.48016  0.68740  0.53293  1.0000
  H   H58       1.0  0.01984  0.18740  0.96707  1.0000
  H   H59       1.0  0.51984  0.31260  0.46707  1.0000
  H   H60       1.0  0.98016  0.81260  0.03293  1.0000
