data_image0
_chemical_formula_structural       Eu8O64N32C24H8C16H8C16H8C40H8C16H8C16H8C8H8C8H8C8H8C40H8C8H8C8H8C8H8C8H8
_chemical_formula_sum              "Eu8 O64 N32 C224 H112"
_cell_length_a       16.278
_cell_length_b       14.261
_cell_length_c       27.936
_cell_angle_alpha    90
_cell_angle_beta     103.464
_cell_angle_gamma    90

_space_group_name_H-M_alt    "P 1"
_space_group_IT_number       1

loop_
  _space_group_symop_operation_xyz
  'x, y, z'

loop_
  _atom_site_type_symbol
  _atom_site_label
  _atom_site_symmetry_multiplicity
  _atom_site_fract_x
  _atom_site_fract_y
  _atom_site_fract_z
  _atom_site_occupancy
  Eu  Eu1       1.0  0.47417  0.11507  0.08106  1.0000
  Eu  Eu2       1.0  0.52583  0.11507  0.41894  1.0000
  Eu  Eu3       1.0  0.97417  0.61507  0.08106  1.0000
  Eu  Eu4       1.0  0.02583  0.61507  0.41894  1.0000
  Eu  Eu5       1.0  0.52583  0.88493  0.91894  1.0000
  Eu  Eu6       1.0  0.47417  0.88493  0.58106  1.0000
  Eu  Eu7       1.0  0.02583  0.38493  0.91894  1.0000
  Eu  Eu8       1.0  0.97417  0.38493  0.58106  1.0000
  O   O1        1.0  0.34335  0.02173  0.07018  1.0000
  O   O2        1.0  0.65665  0.02173  0.42982  1.0000
  O   O3        1.0  0.84335  0.52173  0.07018  1.0000
  O   O4        1.0  0.15665  0.52173  0.42982  1.0000
  O   O5        1.0  0.65665  0.97827  0.92982  1.0000
  O   O6        1.0  0.34335  0.97827  0.57018  1.0000
  O   O7        1.0  0.15665  0.47827  0.92982  1.0000
  O   O8        1.0  0.84335  0.47827  0.57018  1.0000
  O   O9        1.0  0.43321  0.99986  0.14173  1.0000
  O   O10       1.0  0.56679  0.99986  0.35827  1.0000
  O   O11       1.0  0.93321  0.49986  0.14173  1.0000
  O   O12       1.0  0.06679  0.49986  0.35827  1.0000
  O   O13       1.0  0.56679  0.00014  0.85827  1.0000
  O   O14       1.0  0.43321  0.00014  0.64173  1.0000
  O   O15       1.0  0.06679  0.50014  0.85827  1.0000
  O   O16       1.0  0.93321  0.50014  0.64173  1.0000
  O   O17       1.0  0.06710  0.86750  0.03272  1.0000
  O   O18       1.0  0.93290  0.86750  0.46728  1.0000
  O   O19       1.0  0.56710  0.36750  0.03272  1.0000
  O   O20       1.0  0.43290  0.36750  0.46728  1.0000
  O   O21       1.0  0.93290  0.13250  0.96728  1.0000
  O   O22       1.0  0.06710  0.13250  0.53272  1.0000
  O   O23       1.0  0.43290  0.63250  0.96728  1.0000
  O   O24       1.0  0.56710  0.63250  0.53272  1.0000
  O   O25       1.0  0.03044  0.77256  0.08736  1.0000
  O   O26       1.0  0.96956  0.77256  0.41264  1.0000
  O   O27       1.0  0.53044  0.27256  0.08736  1.0000
  O   O28       1.0  0.46956  0.27256  0.41264  1.0000
  O   O29       1.0  0.96956  0.22744  0.91264  1.0000
  O   O30       1.0  0.03044  0.22744  0.58736  1.0000
  O   O31       1.0  0.46956  0.72744  0.91264  1.0000
  O   O32       1.0  0.53044  0.72744  0.58736  1.0000
  O   O33       1.0  0.10174  0.70120  0.36506  1.0000
  O   O34       1.0  0.89826  0.70120  0.13494  1.0000
  O   O35       1.0  0.60174  0.20120  0.36506  1.0000
  O   O36       1.0  0.39826  0.20120  0.13494  1.0000
  O   O37       1.0  0.89826  0.29880  0.63494  1.0000
  O   O38       1.0  0.10174  0.29880  0.86506  1.0000
  O   O39       1.0  0.39826  0.79880  0.63494  1.0000
  O   O40       1.0  0.60174  0.79880  0.86506  1.0000
  O   O41       1.0  0.15359  0.72526  0.44460  1.0000
  O   O42       1.0  0.84641  0.72526  0.05540  1.0000
  O   O43       1.0  0.65359  0.22526  0.44460  1.0000
  O   O44       1.0  0.34641  0.22526  0.05540  1.0000
  O   O45       1.0  0.84641  0.27474  0.55540  1.0000
  O   O46       1.0  0.15359  0.27474  0.94460  1.0000
  O   O47       1.0  0.34641  0.77474  0.55540  1.0000
  O   O48       1.0  0.65359  0.77474  0.94460  1.0000
  O   O49       1.0  0.44353  0.86770  0.49492  1.0000
  O   O50       1.0  0.55647  0.86770  0.00508  1.0000
  O   O51       1.0  0.94353  0.36770  0.49492  1.0000
  O   O52       1.0  0.05647  0.36770  0.00508  1.0000
  O   O53       1.0  0.55647  0.13230  0.50508  1.0000
  O   O54       1.0  0.44353  0.13230  0.99492  1.0000
  O   O55       1.0  0.05647  0.63230  0.50508  1.0000
  O   O56       1.0  0.94353  0.63230  0.99492  1.0000
  O   O57       1.0  0.48560  0.96350  0.44243  1.0000
  O   O58       1.0  0.51440  0.96350  0.05757  1.0000
  O   O59       1.0  0.98560  0.46350  0.44243  1.0000
  O   O60       1.0  0.01440  0.46350  0.05757  1.0000
  O   O61       1.0  0.51440  0.03650  0.55757  1.0000
  O   O62       1.0  0.48560  0.03650  0.94243  1.0000
  O   O63       1.0  0.01440  0.53650  0.55757  1.0000
  O   O64       1.0  0.98560  0.53650  0.94243  1.0000
  N   N1        1.0  0.23470  0.85500  0.24640  1.0000
  N   N2        1.0  0.76530  0.85500  0.25360  1.0000
  N   N3        1.0  0.73470  0.35500  0.24640  1.0000
  N   N4        1.0  0.26530  0.35500  0.25360  1.0000
  N   N5        1.0  0.76530  0.14500  0.75360  1.0000
  N   N6        1.0  0.23470  0.14500  0.74640  1.0000
  N   N7        1.0  0.26530  0.64500  0.75360  1.0000
  N   N8        1.0  0.73470  0.64500  0.74640  1.0000
  N   N9        1.0  0.30010  0.87560  0.27739  1.0000
  N   N10       1.0  0.69990  0.87560  0.22261  1.0000
  N   N11       1.0  0.80010  0.37560  0.27739  1.0000
  N   N12       1.0  0.19990  0.37560  0.22261  1.0000
  N   N13       1.0  0.69990  0.12440  0.72261  1.0000
  N   N14       1.0  0.30010  0.12440  0.77739  1.0000
  N   N15       1.0  0.19990  0.62440  0.72261  1.0000
  N   N16       1.0  0.80010  0.62440  0.77739  1.0000
  N   N17       1.0  0.63120  0.11870  0.07226  1.0000
  N   N18       1.0  0.36880  0.11870  0.42774  1.0000
  N   N19       1.0  0.13120  0.61870  0.07226  1.0000
  N   N20       1.0  0.86880  0.61870  0.42774  1.0000
  N   N21       1.0  0.36880  0.88130  0.92774  1.0000
  N   N22       1.0  0.63120  0.88130  0.57226  1.0000
  N   N23       1.0  0.86880  0.38130  0.92774  1.0000
  N   N24       1.0  0.13120  0.38130  0.57226  1.0000
  N   N25       1.0  0.59320  0.11010  0.16095  1.0000
  N   N26       1.0  0.40680  0.11010  0.33905  1.0000
  N   N27       1.0  0.09320  0.61010  0.16095  1.0000
  N   N28       1.0  0.90680  0.61010  0.33905  1.0000
  N   N29       1.0  0.40680  0.88990  0.83905  1.0000
  N   N30       1.0  0.59320  0.88990  0.66095  1.0000
  N   N31       1.0  0.90680  0.38990  0.83905  1.0000
  N   N32       1.0  0.09320  0.38990  0.66095  1.0000
  C   C1        1.0  0.36170  0.98840  0.11315  1.0000
  C   C2        1.0  0.63830  0.98840  0.38685  1.0000
  C   C3        1.0  0.86170  0.48840  0.11315  1.0000
  C   C4        1.0  0.13830  0.48840  0.38685  1.0000
  C   C5        1.0  0.63830  0.01160  0.88685  1.0000
  C   C6        1.0  0.36170  0.01160  0.61315  1.0000
  C   C7        1.0  0.13830  0.51160  0.88685  1.0000
  C   C8        1.0  0.86170  0.51160  0.61315  1.0000
  C   C9        1.0  0.29390  0.93600  0.13113  1.0000
  C   C10       1.0  0.70610  0.93600  0.36887  1.0000
  C   C11       1.0  0.79390  0.43600  0.13113  1.0000
  C   C12       1.0  0.20610  0.43600  0.36887  1.0000
  C   C13       1.0  0.70610  0.06400  0.86887  1.0000
  C   C14       1.0  0.29390  0.06400  0.63113  1.0000
  C   C15       1.0  0.20610  0.56400  0.86887  1.0000
  C   C16       1.0  0.79390  0.56400  0.63113  1.0000
  C   C17       1.0  0.30300  0.91610  0.18076  1.0000
  C   C18       1.0  0.69700  0.91610  0.31924  1.0000
  C   C19       1.0  0.80300  0.41610  0.18076  1.0000
  C   C20       1.0  0.19700  0.41610  0.31924  1.0000
  C   C21       1.0  0.69700  0.08390  0.81924  1.0000
  C   C22       1.0  0.30300  0.08390  0.68076  1.0000
  C   C23       1.0  0.19700  0.58390  0.81924  1.0000
  C   C24       1.0  0.80300  0.58390  0.68076  1.0000
  H   H1        1.0  0.35279  0.93139  0.20340  1.0000
  H   H2        1.0  0.64721  0.93139  0.29660  1.0000
  H   H3        1.0  0.85279  0.43139  0.20340  1.0000
  H   H4        1.0  0.14721  0.43139  0.29660  1.0000
  H   H5        1.0  0.64721  0.06861  0.79660  1.0000
  H   H6        1.0  0.35279  0.06861  0.70340  1.0000
  H   H7        1.0  0.14721  0.56861  0.79660  1.0000
  H   H8        1.0  0.85279  0.56861  0.70340  1.0000
  C   C25       1.0  0.23640  0.87270  0.19638  1.0000
  C   C26       1.0  0.76360  0.87270  0.30362  1.0000
  C   C27       1.0  0.73640  0.37270  0.19638  1.0000
  C   C28       1.0  0.26360  0.37270  0.30362  1.0000
  C   C29       1.0  0.76360  0.12730  0.80362  1.0000
  C   C30       1.0  0.23640  0.12730  0.69638  1.0000
  C   C31       1.0  0.26360  0.62730  0.80362  1.0000
  C   C32       1.0  0.73640  0.62730  0.69638  1.0000
  C   C33       1.0  0.16460  0.84470  0.16223  1.0000
  C   C34       1.0  0.83540  0.84470  0.33777  1.0000
  C   C35       1.0  0.66460  0.34470  0.16223  1.0000
  C   C36       1.0  0.33540  0.34470  0.33777  1.0000
  C   C37       1.0  0.83540  0.15530  0.83777  1.0000
  C   C38       1.0  0.16460  0.15530  0.66223  1.0000
  C   C39       1.0  0.33540  0.65530  0.83777  1.0000
  C   C40       1.0  0.66460  0.65530  0.66223  1.0000
  H   H9        1.0  0.12167  0.81337  0.17262  1.0000
  H   H10       1.0  0.87833  0.81337  0.32738  1.0000
  H   H11       1.0  0.62167  0.31337  0.17262  1.0000
  H   H12       1.0  0.37833  0.31337  0.32738  1.0000
  H   H13       1.0  0.87833  0.18663  0.82738  1.0000
  H   H14       1.0  0.12167  0.18663  0.67262  1.0000
  H   H15       1.0  0.37833  0.68663  0.82738  1.0000
  H   H16       1.0  0.62167  0.68663  0.67262  1.0000
  C   C41       1.0  0.15640  0.86310  0.11248  1.0000
  C   C42       1.0  0.84360  0.86310  0.38752  1.0000
  C   C43       1.0  0.65640  0.36310  0.11248  1.0000
  C   C44       1.0  0.34360  0.36310  0.38752  1.0000
  C   C45       1.0  0.84360  0.13690  0.88752  1.0000
  C   C46       1.0  0.15640  0.13690  0.61248  1.0000
  C   C47       1.0  0.34360  0.63690  0.88752  1.0000
  C   C48       1.0  0.65640  0.63690  0.61248  1.0000
  C   C49       1.0  0.21980  0.91030  0.09780  1.0000
  C   C50       1.0  0.78020  0.91030  0.40220  1.0000
  C   C51       1.0  0.71980  0.41030  0.09780  1.0000
  C   C52       1.0  0.28020  0.41030  0.40220  1.0000
  C   C53       1.0  0.78020  0.08970  0.90220  1.0000
  C   C54       1.0  0.21980  0.08970  0.59780  1.0000
  C   C55       1.0  0.28020  0.58970  0.90220  1.0000
  C   C56       1.0  0.71980  0.58970  0.59780  1.0000
  H   H17       1.0  0.21306  0.92539  0.06473  1.0000
  H   H18       1.0  0.78694  0.92539  0.43527  1.0000
  H   H19       1.0  0.71306  0.42539  0.06473  1.0000
  H   H20       1.0  0.28694  0.42539  0.43527  1.0000
  H   H21       1.0  0.78694  0.07461  0.93527  1.0000
  H   H22       1.0  0.21306  0.07461  0.56473  1.0000
  H   H23       1.0  0.28694  0.57461  0.93527  1.0000
  H   H24       1.0  0.71306  0.57461  0.56473  1.0000
  C   C57       1.0  0.07870  0.83100  0.07454  1.0000
  C   C58       1.0  0.92130  0.83100  0.42546  1.0000
  C   C59       1.0  0.57870  0.33100  0.07454  1.0000
  C   C60       1.0  0.42130  0.33100  0.42546  1.0000
  C   C61       1.0  0.92130  0.16900  0.92546  1.0000
  C   C62       1.0  0.07870  0.16900  0.57454  1.0000
  C   C63       1.0  0.42130  0.66900  0.92546  1.0000
  C   C64       1.0  0.57870  0.66900  0.57454  1.0000
  C   C65       1.0  0.15590  0.73730  0.40023  1.0000
  C   C66       1.0  0.84410  0.73730  0.09977  1.0000
  C   C67       1.0  0.65590  0.23730  0.40023  1.0000
  C   C68       1.0  0.34410  0.23730  0.09977  1.0000
  C   C69       1.0  0.84410  0.26270  0.59977  1.0000
  C   C70       1.0  0.15590  0.26270  0.90023  1.0000
  C   C71       1.0  0.34410  0.76270  0.59977  1.0000
  C   C72       1.0  0.65590  0.76270  0.90023  1.0000
  C   C73       1.0  0.43530  0.90520  0.45326  1.0000
  C   C74       1.0  0.56470  0.90520  0.04674  1.0000
  C   C75       1.0  0.93530  0.40520  0.45326  1.0000
  C   C76       1.0  0.06470  0.40520  0.04674  1.0000
  C   C77       1.0  0.56470  0.09480  0.54674  1.0000
  C   C78       1.0  0.43530  0.09480  0.95326  1.0000
  C   C79       1.0  0.06470  0.59480  0.54674  1.0000
  C   C80       1.0  0.93530  0.59480  0.95326  1.0000
  C   C81       1.0  0.36040  0.87500  0.41348  1.0000
  C   C82       1.0  0.63960  0.87500  0.08652  1.0000
  C   C83       1.0  0.86040  0.37500  0.41348  1.0000
  C   C84       1.0  0.13960  0.37500  0.08652  1.0000
  C   C85       1.0  0.63960  0.12500  0.58652  1.0000
  C   C86       1.0  0.36040  0.12500  0.91348  1.0000
  C   C87       1.0  0.13960  0.62500  0.58652  1.0000
  C   C88       1.0  0.86040  0.62500  0.91348  1.0000
  C   C89       1.0  0.29220  0.82830  0.42510  1.0000
  C   C90       1.0  0.70780  0.82830  0.07490  1.0000
  C   C91       1.0  0.79220  0.32830  0.42510  1.0000
  C   C92       1.0  0.20780  0.32830  0.07490  1.0000
  C   C93       1.0  0.70780  0.17170  0.57490  1.0000
  C   C94       1.0  0.29220  0.17170  0.92510  1.0000
  C   C95       1.0  0.20780  0.67170  0.57490  1.0000
  C   C96       1.0  0.79220  0.67170  0.92510  1.0000
  H   H25       1.0  0.29056  0.81993  0.45788  1.0000
  H   H26       1.0  0.70944  0.81993  0.04212  1.0000
  H   H27       1.0  0.79056  0.31993  0.45788  1.0000
  H   H28       1.0  0.20944  0.31993  0.04212  1.0000
  H   H29       1.0  0.70944  0.18007  0.54212  1.0000
  H   H30       1.0  0.29056  0.18007  0.95788  1.0000
  H   H31       1.0  0.20944  0.68007  0.54212  1.0000
  H   H32       1.0  0.79056  0.68007  0.95788  1.0000
  C   C97       1.0  0.22720  0.79450  0.38826  1.0000
  C   C98       1.0  0.77280  0.79450  0.11174  1.0000
  C   C99       1.0  0.72720  0.29450  0.38826  1.0000
  C   C100      1.0  0.27280  0.29450  0.11174  1.0000
  C   C101      1.0  0.77280  0.20550  0.61174  1.0000
  C   C102      1.0  0.22720  0.20550  0.88826  1.0000
  C   C103      1.0  0.27280  0.70550  0.61174  1.0000
  C   C104      1.0  0.72720  0.70550  0.88826  1.0000
  C   C105      1.0  0.22780  0.80920  0.33907  1.0000
  C   C106      1.0  0.77220  0.80920  0.16093  1.0000
  C   C107      1.0  0.72780  0.30920  0.33907  1.0000
  C   C108      1.0  0.27220  0.30920  0.16093  1.0000
  C   C109      1.0  0.77220  0.19080  0.66093  1.0000
  C   C110      1.0  0.22780  0.19080  0.83907  1.0000
  C   C111      1.0  0.27220  0.69080  0.66093  1.0000
  C   C112      1.0  0.72780  0.69080  0.83907  1.0000
  H   H33       1.0  0.18381  0.78668  0.31423  1.0000
  H   H34       1.0  0.81619  0.78668  0.18577  1.0000
  H   H35       1.0  0.68381  0.28668  0.31423  1.0000
  H   H36       1.0  0.31619  0.28668  0.18577  1.0000
  H   H37       1.0  0.81619  0.21332  0.68577  1.0000
  H   H38       1.0  0.18381  0.21332  0.81423  1.0000
  H   H39       1.0  0.31619  0.71332  0.68577  1.0000
  H   H40       1.0  0.68381  0.71332  0.81423  1.0000
  C   C113      1.0  0.29460  0.85770  0.32735  1.0000
  C   C114      1.0  0.70540  0.85770  0.17265  1.0000
  C   C115      1.0  0.79460  0.35770  0.32735  1.0000
  C   C116      1.0  0.20540  0.35770  0.17265  1.0000
  C   C117      1.0  0.70540  0.14230  0.67265  1.0000
  C   C118      1.0  0.29460  0.14230  0.82735  1.0000
  C   C119      1.0  0.20540  0.64230  0.67265  1.0000
  C   C120      1.0  0.79460  0.64230  0.82735  1.0000
  C   C121      1.0  0.36110  0.88960  0.36409  1.0000
  C   C122      1.0  0.63890  0.88960  0.13591  1.0000
  C   C123      1.0  0.86110  0.38960  0.36409  1.0000
  C   C124      1.0  0.13890  0.38960  0.13591  1.0000
  C   C125      1.0  0.63890  0.11040  0.63591  1.0000
  C   C126      1.0  0.36110  0.11040  0.86409  1.0000
  C   C127      1.0  0.13890  0.61040  0.63591  1.0000
  C   C128      1.0  0.86110  0.61040  0.86409  1.0000
  H   H41       1.0  0.40620  0.92068  0.35594  1.0000
  H   H42       1.0  0.59380  0.92068  0.14406  1.0000
  H   H43       1.0  0.90620  0.42068  0.35594  1.0000
  H   H44       1.0  0.09380  0.42068  0.14406  1.0000
  H   H45       1.0  0.59380  0.07932  0.64406  1.0000
  H   H46       1.0  0.40620  0.07932  0.85594  1.0000
  H   H47       1.0  0.09380  0.57932  0.64406  1.0000
  H   H48       1.0  0.90620  0.57932  0.85594  1.0000
  C   C129      1.0  0.64970  0.12450  0.02823  1.0000
  C   C130      1.0  0.35030  0.12450  0.47177  1.0000
  C   C131      1.0  0.14970  0.62450  0.02823  1.0000
  C   C132      1.0  0.85030  0.62450  0.47177  1.0000
  C   C133      1.0  0.35030  0.87550  0.97177  1.0000
  C   C134      1.0  0.64970  0.87550  0.52823  1.0000
  C   C135      1.0  0.85030  0.37550  0.97177  1.0000
  C   C136      1.0  0.14970  0.37550  0.52823  1.0000
  H   H49       1.0  0.60637  0.11688  0.00020  1.0000
  H   H50       1.0  0.39363  0.11688  0.49980  1.0000
  H   H51       1.0  0.10637  0.61688  0.00020  1.0000
  H   H52       1.0  0.89363  0.61688  0.49980  1.0000
  H   H53       1.0  0.39363  0.88312  0.99980  1.0000
  H   H54       1.0  0.60637  0.88312  0.50020  1.0000
  H   H55       1.0  0.89363  0.38312  0.99980  1.0000
  H   H56       1.0  0.10637  0.38312  0.50020  1.0000
  C   C137      1.0  0.73100  0.14160  0.02250  1.0000
  C   C138      1.0  0.26900  0.14160  0.47750  1.0000
  C   C139      1.0  0.23100  0.64160  0.02250  1.0000
  C   C140      1.0  0.76900  0.64160  0.47750  1.0000
  C   C141      1.0  0.26900  0.85840  0.97750  1.0000
  C   C142      1.0  0.73100  0.85840  0.52250  1.0000
  C   C143      1.0  0.76900  0.35840  0.97750  1.0000
  C   C144      1.0  0.23100  0.35840  0.52250  1.0000
  H   H57       1.0  0.74140  0.14548  0.99123  1.0000
  H   H58       1.0  0.25860  0.14548  0.50877  1.0000
  H   H59       1.0  0.24140  0.64548  0.99123  1.0000
  H   H60       1.0  0.75860  0.64548  0.50877  1.0000
  H   H61       1.0  0.25860  0.85452  0.00877  1.0000
  H   H62       1.0  0.74140  0.85452  0.49123  1.0000
  H   H63       1.0  0.75860  0.35452  0.00877  1.0000
  H   H64       1.0  0.24140  0.35452  0.49123  1.0000
  C   C145      1.0  0.79470  0.15250  0.06270  1.0000
  C   C146      1.0  0.20530  0.15250  0.43730  1.0000
  C   C147      1.0  0.29470  0.65250  0.06270  1.0000
  C   C148      1.0  0.70530  0.65250  0.43730  1.0000
  C   C149      1.0  0.20530  0.84750  0.93730  1.0000
  C   C150      1.0  0.79470  0.84750  0.56270  1.0000
  C   C151      1.0  0.70530  0.34750  0.93730  1.0000
  C   C152      1.0  0.29470  0.34750  0.56270  1.0000
  H   H65       1.0  0.84908  0.16465  0.05909  1.0000
  H   H66       1.0  0.15092  0.16465  0.44091  1.0000
  H   H67       1.0  0.34908  0.66465  0.05909  1.0000
  H   H68       1.0  0.65092  0.66465  0.44091  1.0000
  H   H69       1.0  0.15092  0.83535  0.94091  1.0000
  H   H70       1.0  0.84908  0.83535  0.55909  1.0000
  H   H71       1.0  0.65092  0.33535  0.94091  1.0000
  H   H72       1.0  0.34908  0.33535  0.55909  1.0000
  C   C153      1.0  0.77920  0.14570  0.11040  1.0000
  C   C154      1.0  0.22080  0.14570  0.38960  1.0000
  C   C155      1.0  0.27920  0.64570  0.11040  1.0000
  C   C156      1.0  0.72080  0.64570  0.38960  1.0000
  C   C157      1.0  0.22080  0.85430  0.88960  1.0000
  C   C158      1.0  0.77920  0.85430  0.61040  1.0000
  C   C159      1.0  0.72080  0.35430  0.88960  1.0000
  C   C160      1.0  0.27920  0.35430  0.61040  1.0000
  C   C161      1.0  0.69530  0.12830  0.11315  1.0000
  C   C162      1.0  0.30470  0.12830  0.38685  1.0000
  C   C163      1.0  0.19530  0.62830  0.11315  1.0000
  C   C164      1.0  0.80470  0.62830  0.38685  1.0000
  C   C165      1.0  0.30470  0.87170  0.88685  1.0000
  C   C166      1.0  0.69530  0.87170  0.61315  1.0000
  C   C167      1.0  0.80470  0.37170  0.88685  1.0000
  C   C168      1.0  0.19530  0.37170  0.61315  1.0000
  C   C169      1.0  0.67480  0.12220  0.16043  1.0000
  C   C170      1.0  0.32520  0.12220  0.33957  1.0000
  C   C171      1.0  0.17480  0.62220  0.16043  1.0000
  C   C172      1.0  0.82520  0.62220  0.33957  1.0000
  C   C173      1.0  0.32520  0.87780  0.83957  1.0000
  C   C174      1.0  0.67480  0.87780  0.66043  1.0000
  C   C175      1.0  0.82520  0.37780  0.83957  1.0000
  C   C176      1.0  0.17480  0.37780  0.66043  1.0000
  C   C177      1.0  0.73980  0.13010  0.20292  1.0000
  C   C178      1.0  0.26020  0.13010  0.29708  1.0000
  C   C179      1.0  0.23980  0.63010  0.20292  1.0000
  C   C180      1.0  0.76020  0.63010  0.29708  1.0000
  C   C181      1.0  0.26020  0.86990  0.79708  1.0000
  C   C182      1.0  0.73980  0.86990  0.70292  1.0000
  C   C183      1.0  0.76020  0.36990  0.79708  1.0000
  C   C184      1.0  0.23980  0.36990  0.70292  1.0000
  C   C185      1.0  0.82440  0.14880  0.19870  1.0000
  C   C186      1.0  0.17560  0.14880  0.30130  1.0000
  C   C187      1.0  0.32440  0.64880  0.19870  1.0000
  C   C188      1.0  0.67560  0.64880  0.30130  1.0000
  C   C189      1.0  0.17560  0.85120  0.80130  1.0000
  C   C190      1.0  0.82440  0.85120  0.69870  1.0000
  C   C191      1.0  0.67560  0.35120  0.80130  1.0000
  C   C192      1.0  0.32440  0.35120  0.69870  1.0000
  H   H73       1.0  0.86716  0.15583  0.22700  1.0000
  H   H74       1.0  0.13284  0.15583  0.27300  1.0000
  H   H75       1.0  0.36716  0.65583  0.22700  1.0000
  H   H76       1.0  0.63284  0.65583  0.27300  1.0000
  H   H77       1.0  0.13284  0.84417  0.77300  1.0000
  H   H78       1.0  0.86716  0.84417  0.72700  1.0000
  H   H79       1.0  0.63284  0.34417  0.77300  1.0000
  H   H80       1.0  0.36716  0.34417  0.72700  1.0000
  C   C193      1.0  0.84270  0.15620  0.15460  1.0000
  C   C194      1.0  0.15730  0.15620  0.34540  1.0000
  C   C195      1.0  0.34270  0.65620  0.15460  1.0000
  C   C196      1.0  0.65730  0.65620  0.34540  1.0000
  C   C197      1.0  0.15730  0.84380  0.84540  1.0000
  C   C198      1.0  0.84270  0.84380  0.65460  1.0000
  C   C199      1.0  0.65730  0.34380  0.84540  1.0000
  C   C200      1.0  0.34270  0.34380  0.65460  1.0000
  H   H81       1.0  0.89805  0.16841  0.15280  1.0000
  H   H82       1.0  0.10195  0.16841  0.34720  1.0000
  H   H83       1.0  0.39805  0.66841  0.15280  1.0000
  H   H84       1.0  0.60195  0.66841  0.34720  1.0000
  H   H85       1.0  0.10195  0.83159  0.84720  1.0000
  H   H86       1.0  0.89805  0.83159  0.65280  1.0000
  H   H87       1.0  0.60195  0.33159  0.84720  1.0000
  H   H88       1.0  0.39805  0.33159  0.65280  1.0000
  C   C201      1.0  0.71890  0.12550  0.24880  1.0000
  C   C202      1.0  0.28110  0.12550  0.25120  1.0000
  C   C203      1.0  0.21890  0.62550  0.24880  1.0000
  C   C204      1.0  0.78110  0.62550  0.25120  1.0000
  C   C205      1.0  0.28110  0.87450  0.75120  1.0000
  C   C206      1.0  0.71890  0.87450  0.74880  1.0000
  C   C207      1.0  0.78110  0.37450  0.75120  1.0000
  C   C208      1.0  0.21890  0.37450  0.74880  1.0000
  H   H89       1.0  0.76045  0.13066  0.27781  1.0000
  H   H90       1.0  0.23955  0.13066  0.22219  1.0000
  H   H91       1.0  0.26045  0.63066  0.27781  1.0000
  H   H92       1.0  0.73955  0.63066  0.22219  1.0000
  H   H93       1.0  0.23955  0.86934  0.72219  1.0000
  H   H94       1.0  0.76045  0.86934  0.77781  1.0000
  H   H95       1.0  0.73955  0.36934  0.72219  1.0000
  H   H96       1.0  0.26045  0.36934  0.77781  1.0000
  C   C209      1.0  0.63510  0.11330  0.24984  1.0000
  C   C210      1.0  0.36490  0.11330  0.25016  1.0000
  C   C211      1.0  0.13510  0.61330  0.24984  1.0000
  C   C212      1.0  0.86490  0.61330  0.25016  1.0000
  C   C213      1.0  0.36490  0.88670  0.75016  1.0000
  C   C214      1.0  0.63510  0.88670  0.74984  1.0000
  C   C215      1.0  0.86490  0.38670  0.75016  1.0000
  C   C216      1.0  0.13510  0.38670  0.74984  1.0000
  H   H97       1.0  0.61921  0.10932  0.27967  1.0000
  H   H98       1.0  0.38079  0.10932  0.22033  1.0000
  H   H99       1.0  0.11921  0.60932  0.27967  1.0000
  H   H100      1.0  0.88079  0.60932  0.22033  1.0000
  H   H101      1.0  0.38079  0.89068  0.72033  1.0000
  H   H102      1.0  0.61921  0.89068  0.77967  1.0000
  H   H103      1.0  0.88079  0.39068  0.72033  1.0000
  H   H104      1.0  0.11921  0.39068  0.77967  1.0000
  C   C217      1.0  0.57580  0.10720  0.20621  1.0000
  C   C218      1.0  0.42420  0.10720  0.29379  1.0000
  C   C219      1.0  0.07580  0.60720  0.20621  1.0000
  C   C220      1.0  0.92420  0.60720  0.29379  1.0000
  C   C221      1.0  0.42420  0.89280  0.79379  1.0000
  C   C222      1.0  0.57580  0.89280  0.70621  1.0000
  C   C223      1.0  0.92420  0.39280  0.79379  1.0000
  C   C224      1.0  0.07580  0.39280  0.70621  1.0000
  H   H105      1.0  0.51961  0.10052  0.20766  1.0000
  H   H106      1.0  0.48039  0.10052  0.29234  1.0000
  H   H107      1.0  0.01961  0.60052  0.20766  1.0000
  H   H108      1.0  0.98039  0.60052  0.29234  1.0000
  H   H109      1.0  0.48039  0.89948  0.79234  1.0000
  H   H110      1.0  0.51961  0.89948  0.70766  1.0000
  H   H111      1.0  0.98039  0.39948  0.79234  1.0000
  H   H112      1.0  0.01961  0.39948  0.70766  1.0000
