data_image0
_chemical_formula_structural       In8O80C112H16C16H16C16H16C16H16C16H16C16H16C64H48C32H16C16H16C16H16C16H16
_chemical_formula_sum              "In8 O80 C336 H208"
_cell_length_a       28.7304
_cell_length_b       30.6295
_cell_length_c       13.678
_cell_angle_alpha    90
_cell_angle_beta     90
_cell_angle_gamma    90

_space_group_name_H-M_alt    "P 1"
_space_group_IT_number       1

loop_
  _space_group_symop_operation_xyz
  'x, y, z'

loop_
  _atom_site_type_symbol
  _atom_site_label
  _atom_site_symmetry_multiplicity
  _atom_site_fract_x
  _atom_site_fract_y
  _atom_site_fract_z
  _atom_site_occupancy
  In  In1       1.0  0.25000  0.54939  0.75000  1.0000
  In  In2       1.0  0.75000  0.45061  0.75000  1.0000
  In  In3       1.0  0.75000  0.54939  0.25000  1.0000
  In  In4       1.0  0.25000  0.45061  0.25000  1.0000
  In  In5       1.0  0.25000  0.04939  0.25000  1.0000
  In  In6       1.0  0.75000  0.95061  0.25000  1.0000
  In  In7       1.0  0.75000  0.04939  0.75000  1.0000
  In  In8       1.0  0.25000  0.95061  0.75000  1.0000
  O   O1        1.0  0.30696  0.10202  0.22600  1.0000
  O   O2        1.0  0.69304  0.89798  0.22600  1.0000
  O   O3        1.0  0.69304  0.10202  0.77400  1.0000
  O   O4        1.0  0.30696  0.89798  0.77400  1.0000
  O   O5        1.0  0.30696  0.60202  0.72600  1.0000
  O   O6        1.0  0.69304  0.39798  0.72600  1.0000
  O   O7        1.0  0.69304  0.60202  0.27400  1.0000
  O   O8        1.0  0.30696  0.39798  0.27400  1.0000
  O   O9        1.0  0.80696  0.10202  0.72600  1.0000
  O   O10       1.0  0.19304  0.89798  0.72600  1.0000
  O   O11       1.0  0.19304  0.10202  0.27400  1.0000
  O   O12       1.0  0.80696  0.89798  0.27400  1.0000
  O   O13       1.0  0.80696  0.60202  0.22600  1.0000
  O   O14       1.0  0.19304  0.39798  0.22600  1.0000
  O   O15       1.0  0.19304  0.60202  0.77400  1.0000
  O   O16       1.0  0.80696  0.39798  0.77400  1.0000
  O   O17       1.0  0.32893  0.30171  0.49080  1.0000
  O   O18       1.0  0.67107  0.69829  0.49080  1.0000
  O   O19       1.0  0.67107  0.30171  0.50920  1.0000
  O   O20       1.0  0.32893  0.69829  0.50920  1.0000
  O   O21       1.0  0.32893  0.80171  0.99080  1.0000
  O   O22       1.0  0.67107  0.19829  0.99080  1.0000
  O   O23       1.0  0.67107  0.80171  0.00920  1.0000
  O   O24       1.0  0.32893  0.19829  0.00920  1.0000
  O   O25       1.0  0.82893  0.30171  0.99080  1.0000
  O   O26       1.0  0.17107  0.69829  0.99080  1.0000
  O   O27       1.0  0.17107  0.30171  0.00920  1.0000
  O   O28       1.0  0.82893  0.69829  0.00920  1.0000
  O   O29       1.0  0.82893  0.80171  0.49080  1.0000
  O   O30       1.0  0.17107  0.19829  0.49080  1.0000
  O   O31       1.0  0.17107  0.80171  0.50920  1.0000
  O   O32       1.0  0.82893  0.19829  0.50920  1.0000
  O   O33       1.0  0.31643  0.50297  0.75230  1.0000
  O   O34       1.0  0.68357  0.49703  0.75230  1.0000
  O   O35       1.0  0.68357  0.50297  0.24770  1.0000
  O   O36       1.0  0.31643  0.49703  0.24770  1.0000
  O   O37       1.0  0.31643  0.00297  0.25230  1.0000
  O   O38       1.0  0.68357  0.99703  0.25230  1.0000
  O   O39       1.0  0.68357  0.00297  0.74770  1.0000
  O   O40       1.0  0.31643  0.99703  0.74770  1.0000
  O   O41       1.0  0.81643  0.50297  0.25230  1.0000
  O   O42       1.0  0.18357  0.49703  0.25230  1.0000
  O   O43       1.0  0.18357  0.50297  0.74770  1.0000
  O   O44       1.0  0.81643  0.49703  0.74770  1.0000
  O   O45       1.0  0.81643  0.00297  0.75230  1.0000
  O   O46       1.0  0.18357  0.99703  0.75230  1.0000
  O   O47       1.0  0.18357  0.00297  0.24770  1.0000
  O   O48       1.0  0.81643  0.99703  0.24770  1.0000
  O   O49       1.0  0.27287  0.50470  0.63470  1.0000
  O   O50       1.0  0.72713  0.49530  0.63470  1.0000
  O   O51       1.0  0.72713  0.50470  0.36530  1.0000
  O   O52       1.0  0.27287  0.49530  0.36530  1.0000
  O   O53       1.0  0.27287  0.00470  0.13470  1.0000
  O   O54       1.0  0.72713  0.99530  0.13470  1.0000
  O   O55       1.0  0.72713  0.00470  0.86530  1.0000
  O   O56       1.0  0.27287  0.99530  0.86530  1.0000
  O   O57       1.0  0.77287  0.50470  0.13470  1.0000
  O   O58       1.0  0.22713  0.49530  0.13470  1.0000
  O   O59       1.0  0.22713  0.50470  0.86530  1.0000
  O   O60       1.0  0.77287  0.49530  0.86530  1.0000
  O   O61       1.0  0.77287  0.00470  0.63470  1.0000
  O   O62       1.0  0.22713  0.99530  0.63470  1.0000
  O   O63       1.0  0.22713  0.00470  0.36530  1.0000
  O   O64       1.0  0.77287  0.99530  0.36530  1.0000
  O   O65       1.0  0.28149  0.08744  0.37450  1.0000
  O   O66       1.0  0.71851  0.91256  0.37450  1.0000
  O   O67       1.0  0.71851  0.08744  0.62550  1.0000
  O   O68       1.0  0.28149  0.91256  0.62550  1.0000
  O   O69       1.0  0.28149  0.58744  0.87450  1.0000
  O   O70       1.0  0.71851  0.41256  0.87450  1.0000
  O   O71       1.0  0.71851  0.58744  0.12550  1.0000
  O   O72       1.0  0.28149  0.41256  0.12550  1.0000
  O   O73       1.0  0.78149  0.08744  0.87450  1.0000
  O   O74       1.0  0.21851  0.91256  0.87450  1.0000
  O   O75       1.0  0.21851  0.08744  0.12550  1.0000
  O   O76       1.0  0.78149  0.91256  0.12550  1.0000
  O   O77       1.0  0.78149  0.58744  0.37450  1.0000
  O   O78       1.0  0.21851  0.41256  0.37450  1.0000
  O   O79       1.0  0.21851  0.58744  0.62550  1.0000
  O   O80       1.0  0.78149  0.41256  0.62550  1.0000
  C   C1        1.0  0.37652  0.30058  0.48770  1.0000
  C   C2        1.0  0.62348  0.69942  0.48770  1.0000
  C   C3        1.0  0.62348  0.30058  0.51230  1.0000
  C   C4        1.0  0.37652  0.69942  0.51230  1.0000
  C   C5        1.0  0.37652  0.80058  0.98770  1.0000
  C   C6        1.0  0.62348  0.19942  0.98770  1.0000
  C   C7        1.0  0.62348  0.80058  0.01230  1.0000
  C   C8        1.0  0.37652  0.19942  0.01230  1.0000
  C   C9        1.0  0.87652  0.30058  0.98770  1.0000
  C   C10       1.0  0.12348  0.69942  0.98770  1.0000
  C   C11       1.0  0.12348  0.30058  0.01230  1.0000
  C   C12       1.0  0.87652  0.69942  0.01230  1.0000
  C   C13       1.0  0.87652  0.80058  0.48770  1.0000
  C   C14       1.0  0.12348  0.19942  0.48770  1.0000
  C   C15       1.0  0.12348  0.80058  0.51230  1.0000
  C   C16       1.0  0.87652  0.19942  0.51230  1.0000
  C   C17       1.0  0.30660  0.48874  0.67950  1.0000
  C   C18       1.0  0.69340  0.51126  0.67950  1.0000
  C   C19       1.0  0.69340  0.48874  0.32050  1.0000
  C   C20       1.0  0.30660  0.51126  0.32050  1.0000
  C   C21       1.0  0.30660  0.98874  0.17950  1.0000
  C   C22       1.0  0.69340  0.01126  0.17950  1.0000
  C   C23       1.0  0.69340  0.98874  0.82050  1.0000
  C   C24       1.0  0.30660  0.01126  0.82050  1.0000
  C   C25       1.0  0.80660  0.48874  0.17950  1.0000
  C   C26       1.0  0.19340  0.51126  0.17950  1.0000
  C   C27       1.0  0.19340  0.48874  0.82050  1.0000
  C   C28       1.0  0.80660  0.51126  0.82050  1.0000
  C   C29       1.0  0.80660  0.98874  0.67950  1.0000
  C   C30       1.0  0.19340  0.01126  0.67950  1.0000
  C   C31       1.0  0.19340  0.98874  0.32050  1.0000
  C   C32       1.0  0.80660  0.01126  0.32050  1.0000
  C   C33       1.0  0.37705  0.22191  0.42160  1.0000
  C   C34       1.0  0.62295  0.77809  0.42160  1.0000
  C   C35       1.0  0.62295  0.22191  0.57840  1.0000
  C   C36       1.0  0.37705  0.77809  0.57840  1.0000
  C   C37       1.0  0.37705  0.72191  0.92160  1.0000
  C   C38       1.0  0.62295  0.27809  0.92160  1.0000
  C   C39       1.0  0.62295  0.72191  0.07840  1.0000
  C   C40       1.0  0.37705  0.27809  0.07840  1.0000
  C   C41       1.0  0.87705  0.22191  0.92160  1.0000
  C   C42       1.0  0.12295  0.77809  0.92160  1.0000
  C   C43       1.0  0.12295  0.22191  0.07840  1.0000
  C   C44       1.0  0.87705  0.77809  0.07840  1.0000
  C   C45       1.0  0.87705  0.72191  0.42160  1.0000
  C   C46       1.0  0.12295  0.27809  0.42160  1.0000
  C   C47       1.0  0.12295  0.72191  0.57840  1.0000
  C   C48       1.0  0.87705  0.27809  0.57840  1.0000
  C   C49       1.0  0.33402  0.14854  0.35490  1.0000
  C   C50       1.0  0.66598  0.85146  0.35490  1.0000
  C   C51       1.0  0.66598  0.14854  0.64510  1.0000
  C   C52       1.0  0.33402  0.85146  0.64510  1.0000
  C   C53       1.0  0.33402  0.64854  0.85490  1.0000
  C   C54       1.0  0.66598  0.35146  0.85490  1.0000
  C   C55       1.0  0.66598  0.64854  0.14510  1.0000
  C   C56       1.0  0.33402  0.35146  0.14510  1.0000
  C   C57       1.0  0.83402  0.14854  0.85490  1.0000
  C   C58       1.0  0.16598  0.85146  0.85490  1.0000
  C   C59       1.0  0.16598  0.14854  0.14510  1.0000
  C   C60       1.0  0.83402  0.85146  0.14510  1.0000
  C   C61       1.0  0.83402  0.64854  0.35490  1.0000
  C   C62       1.0  0.16598  0.35146  0.35490  1.0000
  C   C63       1.0  0.16598  0.64854  0.64510  1.0000
  C   C64       1.0  0.83402  0.35146  0.64510  1.0000
  C   C65       1.0  0.40098  0.26267  0.45960  1.0000
  C   C66       1.0  0.59902  0.73733  0.45960  1.0000
  C   C67       1.0  0.59902  0.26267  0.54040  1.0000
  C   C68       1.0  0.40098  0.73733  0.54040  1.0000
  C   C69       1.0  0.40098  0.76267  0.95960  1.0000
  C   C70       1.0  0.59902  0.23733  0.95960  1.0000
  C   C71       1.0  0.59902  0.76267  0.04040  1.0000
  C   C72       1.0  0.40098  0.23733  0.04040  1.0000
  C   C73       1.0  0.90098  0.26267  0.95960  1.0000
  C   C74       1.0  0.09902  0.73733  0.95960  1.0000
  C   C75       1.0  0.09902  0.26267  0.04040  1.0000
  C   C76       1.0  0.90098  0.73733  0.04040  1.0000
  C   C77       1.0  0.90098  0.76267  0.45960  1.0000
  C   C78       1.0  0.09902  0.23733  0.45960  1.0000
  C   C79       1.0  0.09902  0.76267  0.54040  1.0000
  C   C80       1.0  0.90098  0.23733  0.54040  1.0000
  C   C81       1.0  0.30570  0.11050  0.31950  1.0000
  C   C82       1.0  0.69430  0.88950  0.31950  1.0000
  C   C83       1.0  0.69430  0.11050  0.68050  1.0000
  C   C84       1.0  0.30570  0.88950  0.68050  1.0000
  C   C85       1.0  0.30570  0.61050  0.81950  1.0000
  C   C86       1.0  0.69430  0.38950  0.81950  1.0000
  C   C87       1.0  0.69430  0.61050  0.18050  1.0000
  C   C88       1.0  0.30570  0.38950  0.18050  1.0000
  C   C89       1.0  0.80570  0.11050  0.81950  1.0000
  C   C90       1.0  0.19430  0.88950  0.81950  1.0000
  C   C91       1.0  0.19430  0.11050  0.18050  1.0000
  C   C92       1.0  0.80570  0.88950  0.18050  1.0000
  C   C93       1.0  0.80570  0.61050  0.31950  1.0000
  C   C94       1.0  0.19430  0.38950  0.31950  1.0000
  C   C95       1.0  0.19430  0.61050  0.68050  1.0000
  C   C96       1.0  0.80570  0.38950  0.68050  1.0000
  C   C97       1.0  0.36949  0.16614  0.30150  1.0000
  C   C98       1.0  0.63051  0.83386  0.30150  1.0000
  C   C99       1.0  0.63051  0.16614  0.69850  1.0000
  C   C100      1.0  0.36949  0.83386  0.69850  1.0000
  C   C101      1.0  0.36949  0.66614  0.80150  1.0000
  C   C102      1.0  0.63051  0.33386  0.80150  1.0000
  C   C103      1.0  0.63051  0.66614  0.19850  1.0000
  C   C104      1.0  0.36949  0.33386  0.19850  1.0000
  C   C105      1.0  0.86949  0.16614  0.80150  1.0000
  C   C106      1.0  0.13051  0.83386  0.80150  1.0000
  C   C107      1.0  0.13051  0.16614  0.19850  1.0000
  C   C108      1.0  0.86949  0.83386  0.19850  1.0000
  C   C109      1.0  0.86949  0.66614  0.30150  1.0000
  C   C110      1.0  0.13051  0.33386  0.30150  1.0000
  C   C111      1.0  0.13051  0.66614  0.69850  1.0000
  C   C112      1.0  0.86949  0.33386  0.69850  1.0000
  H   H1        1.0  0.37923  0.15320  0.24180  1.0000
  H   H2        1.0  0.62077  0.84680  0.24180  1.0000
  H   H3        1.0  0.62077  0.15320  0.75820  1.0000
  H   H4        1.0  0.37923  0.84680  0.75820  1.0000
  H   H5        1.0  0.37923  0.65320  0.74180  1.0000
  H   H6        1.0  0.62077  0.34680  0.74180  1.0000
  H   H7        1.0  0.62077  0.65320  0.25820  1.0000
  H   H8        1.0  0.37923  0.34680  0.25820  1.0000
  H   H9        1.0  0.87923  0.15320  0.74180  1.0000
  H   H10       1.0  0.12077  0.84680  0.74180  1.0000
  H   H11       1.0  0.12077  0.15320  0.25820  1.0000
  H   H12       1.0  0.87923  0.84680  0.25820  1.0000
  H   H13       1.0  0.87923  0.65320  0.24180  1.0000
  H   H14       1.0  0.12077  0.34680  0.24180  1.0000
  H   H15       1.0  0.12077  0.65320  0.75820  1.0000
  H   H16       1.0  0.87923  0.34680  0.75820  1.0000
  C   C113      1.0  0.45095  0.26277  0.46440  1.0000
  C   C114      1.0  0.54905  0.73723  0.46440  1.0000
  C   C115      1.0  0.54905  0.26277  0.53560  1.0000
  C   C116      1.0  0.45095  0.73723  0.53560  1.0000
  C   C117      1.0  0.45095  0.76277  0.96440  1.0000
  C   C118      1.0  0.54905  0.23723  0.96440  1.0000
  C   C119      1.0  0.54905  0.76277  0.03560  1.0000
  C   C120      1.0  0.45095  0.23723  0.03560  1.0000
  C   C121      1.0  0.95095  0.26277  0.96440  1.0000
  C   C122      1.0  0.04905  0.73723  0.96440  1.0000
  C   C123      1.0  0.04905  0.26277  0.03560  1.0000
  C   C124      1.0  0.95095  0.73723  0.03560  1.0000
  C   C125      1.0  0.95095  0.76277  0.46440  1.0000
  C   C126      1.0  0.04905  0.23723  0.46440  1.0000
  C   C127      1.0  0.04905  0.76277  0.53560  1.0000
  C   C128      1.0  0.95095  0.23723  0.53560  1.0000
  H   H17       1.0  0.46794  0.23740  0.44641  1.0000
  H   H18       1.0  0.53206  0.76260  0.44641  1.0000
  H   H19       1.0  0.53206  0.23740  0.55359  1.0000
  H   H20       1.0  0.46794  0.76260  0.55359  1.0000
  H   H21       1.0  0.46794  0.73740  0.94641  1.0000
  H   H22       1.0  0.53206  0.26260  0.94641  1.0000
  H   H23       1.0  0.53206  0.73740  0.05359  1.0000
  H   H24       1.0  0.46794  0.26260  0.05359  1.0000
  H   H25       1.0  0.96794  0.23740  0.94641  1.0000
  H   H26       1.0  0.03206  0.76260  0.94641  1.0000
  H   H27       1.0  0.03206  0.23740  0.05359  1.0000
  H   H28       1.0  0.96794  0.76260  0.05359  1.0000
  H   H29       1.0  0.96794  0.73740  0.44641  1.0000
  H   H30       1.0  0.03206  0.26260  0.44641  1.0000
  H   H31       1.0  0.03206  0.73740  0.55359  1.0000
  H   H32       1.0  0.96794  0.26260  0.55359  1.0000
  C   C129      1.0  0.38920  0.39333  0.65120  1.0000
  C   C130      1.0  0.61080  0.60667  0.65120  1.0000
  C   C131      1.0  0.61080  0.39333  0.34880  1.0000
  C   C132      1.0  0.38920  0.60667  0.34880  1.0000
  C   C133      1.0  0.38920  0.89333  0.15120  1.0000
  C   C134      1.0  0.61080  0.10667  0.15120  1.0000
  C   C135      1.0  0.61080  0.89333  0.84880  1.0000
  C   C136      1.0  0.38920  0.10667  0.84880  1.0000
  C   C137      1.0  0.88920  0.39333  0.15120  1.0000
  C   C138      1.0  0.11080  0.60667  0.15120  1.0000
  C   C139      1.0  0.11080  0.39333  0.84880  1.0000
  C   C140      1.0  0.88920  0.60667  0.84880  1.0000
  C   C141      1.0  0.88920  0.89333  0.65120  1.0000
  C   C142      1.0  0.11080  0.10667  0.65120  1.0000
  C   C143      1.0  0.11080  0.89333  0.34880  1.0000
  C   C144      1.0  0.88920  0.10667  0.34880  1.0000
  H   H33       1.0  0.41317  0.37999  0.68849  1.0000
  H   H34       1.0  0.58683  0.62001  0.68849  1.0000
  H   H35       1.0  0.58683  0.37999  0.31151  1.0000
  H   H36       1.0  0.41317  0.62001  0.31151  1.0000
  H   H37       1.0  0.41317  0.87999  0.18849  1.0000
  H   H38       1.0  0.58683  0.12001  0.18849  1.0000
  H   H39       1.0  0.58683  0.87999  0.81151  1.0000
  H   H40       1.0  0.41317  0.12001  0.81151  1.0000
  H   H41       1.0  0.91317  0.37999  0.18849  1.0000
  H   H42       1.0  0.08683  0.62001  0.18849  1.0000
  H   H43       1.0  0.08683  0.37999  0.81151  1.0000
  H   H44       1.0  0.91317  0.62001  0.81151  1.0000
  H   H45       1.0  0.91317  0.87999  0.68849  1.0000
  H   H46       1.0  0.08683  0.12001  0.68849  1.0000
  H   H47       1.0  0.08683  0.87999  0.31151  1.0000
  H   H48       1.0  0.91317  0.12001  0.31151  1.0000
  C   C145      1.0  0.36721  0.43012  0.68420  1.0000
  C   C146      1.0  0.63279  0.56988  0.68420  1.0000
  C   C147      1.0  0.63279  0.43012  0.31580  1.0000
  C   C148      1.0  0.36721  0.56988  0.31580  1.0000
  C   C149      1.0  0.36721  0.93012  0.18420  1.0000
  C   C150      1.0  0.63279  0.06988  0.18420  1.0000
  C   C151      1.0  0.63279  0.93012  0.81580  1.0000
  C   C152      1.0  0.36721  0.06988  0.81580  1.0000
  C   C153      1.0  0.86721  0.43012  0.18420  1.0000
  C   C154      1.0  0.13279  0.56988  0.18420  1.0000
  C   C155      1.0  0.13279  0.43012  0.81580  1.0000
  C   C156      1.0  0.86721  0.56988  0.81580  1.0000
  C   C157      1.0  0.86721  0.93012  0.68420  1.0000
  C   C158      1.0  0.13279  0.06988  0.68420  1.0000
  C   C159      1.0  0.13279  0.93012  0.31580  1.0000
  C   C160      1.0  0.86721  0.06988  0.31580  1.0000
  H   H49       1.0  0.37858  0.44334  0.74232  1.0000
  H   H50       1.0  0.62142  0.55666  0.74232  1.0000
  H   H51       1.0  0.62142  0.44334  0.25768  1.0000
  H   H52       1.0  0.37858  0.55666  0.25768  1.0000
  H   H53       1.0  0.37858  0.94334  0.24232  1.0000
  H   H54       1.0  0.62142  0.05666  0.24232  1.0000
  H   H55       1.0  0.62142  0.94334  0.75768  1.0000
  H   H56       1.0  0.37858  0.05666  0.75768  1.0000
  H   H57       1.0  0.87858  0.44334  0.24232  1.0000
  H   H58       1.0  0.12142  0.55666  0.24232  1.0000
  H   H59       1.0  0.12142  0.44334  0.75768  1.0000
  H   H60       1.0  0.87858  0.55666  0.75768  1.0000
  H   H61       1.0  0.87858  0.94334  0.74232  1.0000
  H   H62       1.0  0.12142  0.05666  0.74232  1.0000
  H   H63       1.0  0.12142  0.94334  0.25768  1.0000
  H   H64       1.0  0.87858  0.05666  0.25768  1.0000
  C   C161      1.0  0.44856  0.33419  0.52630  1.0000
  C   C162      1.0  0.55144  0.66581  0.52630  1.0000
  C   C163      1.0  0.55144  0.33419  0.47370  1.0000
  C   C164      1.0  0.44856  0.66581  0.47370  1.0000
  C   C165      1.0  0.44856  0.83419  0.02630  1.0000
  C   C166      1.0  0.55144  0.16581  0.02630  1.0000
  C   C167      1.0  0.55144  0.83419  0.97370  1.0000
  C   C168      1.0  0.44856  0.16581  0.97370  1.0000
  C   C169      1.0  0.94856  0.33419  0.02630  1.0000
  C   C170      1.0  0.05144  0.66581  0.02630  1.0000
  C   C171      1.0  0.05144  0.33419  0.97370  1.0000
  C   C172      1.0  0.94856  0.66581  0.97370  1.0000
  C   C173      1.0  0.94856  0.83419  0.52630  1.0000
  C   C174      1.0  0.05144  0.16581  0.52630  1.0000
  C   C175      1.0  0.05144  0.83419  0.47370  1.0000
  C   C176      1.0  0.94856  0.16581  0.47370  1.0000
  H   H65       1.0  0.46444  0.35814  0.55523  1.0000
  H   H66       1.0  0.53556  0.64186  0.55523  1.0000
  H   H67       1.0  0.53556  0.35814  0.44477  1.0000
  H   H68       1.0  0.46444  0.64186  0.44477  1.0000
  H   H69       1.0  0.46444  0.85814  0.05523  1.0000
  H   H70       1.0  0.53556  0.14186  0.05523  1.0000
  H   H71       1.0  0.53556  0.85814  0.94477  1.0000
  H   H72       1.0  0.46444  0.14186  0.94477  1.0000
  H   H73       1.0  0.96444  0.35814  0.05523  1.0000
  H   H74       1.0  0.03556  0.64186  0.05523  1.0000
  H   H75       1.0  0.03556  0.35814  0.94477  1.0000
  H   H76       1.0  0.96444  0.64186  0.94477  1.0000
  H   H77       1.0  0.96444  0.85814  0.55523  1.0000
  H   H78       1.0  0.03556  0.14186  0.55523  1.0000
  H   H79       1.0  0.03556  0.85814  0.44477  1.0000
  H   H80       1.0  0.96444  0.14186  0.44477  1.0000
  C   C177      1.0  0.39093  0.20360  0.33720  1.0000
  C   C178      1.0  0.60907  0.79640  0.33720  1.0000
  C   C179      1.0  0.60907  0.20360  0.66280  1.0000
  C   C180      1.0  0.39093  0.79640  0.66280  1.0000
  C   C181      1.0  0.39093  0.70360  0.83720  1.0000
  C   C182      1.0  0.60907  0.29640  0.83720  1.0000
  C   C183      1.0  0.60907  0.70360  0.16280  1.0000
  C   C184      1.0  0.39093  0.29640  0.16280  1.0000
  C   C185      1.0  0.89093  0.20360  0.83720  1.0000
  C   C186      1.0  0.10907  0.79640  0.83720  1.0000
  C   C187      1.0  0.10907  0.20360  0.16280  1.0000
  C   C188      1.0  0.89093  0.79640  0.16280  1.0000
  C   C189      1.0  0.89093  0.70360  0.33720  1.0000
  C   C190      1.0  0.10907  0.29640  0.33720  1.0000
  C   C191      1.0  0.10907  0.70360  0.66280  1.0000
  C   C192      1.0  0.89093  0.29640  0.66280  1.0000
  H   H81       1.0  0.41575  0.21637  0.30137  1.0000
  H   H82       1.0  0.58425  0.78363  0.30137  1.0000
  H   H83       1.0  0.58425  0.21637  0.69863  1.0000
  H   H84       1.0  0.41575  0.78363  0.69863  1.0000
  H   H85       1.0  0.41575  0.71637  0.80137  1.0000
  H   H86       1.0  0.58425  0.28363  0.80137  1.0000
  H   H87       1.0  0.58425  0.71637  0.19863  1.0000
  H   H88       1.0  0.41575  0.28363  0.19863  1.0000
  H   H89       1.0  0.91575  0.21637  0.80137  1.0000
  H   H90       1.0  0.08425  0.78363  0.80137  1.0000
  H   H91       1.0  0.08425  0.21637  0.19863  1.0000
  H   H92       1.0  0.91575  0.78363  0.19863  1.0000
  H   H93       1.0  0.91575  0.71637  0.30137  1.0000
  H   H94       1.0  0.08425  0.28363  0.30137  1.0000
  H   H95       1.0  0.08425  0.71637  0.69863  1.0000
  H   H96       1.0  0.91575  0.28363  0.69863  1.0000
  C   C193      1.0  0.47453  0.30010  0.49550  1.0000
  C   C194      1.0  0.52547  0.69990  0.49550  1.0000
  C   C195      1.0  0.52547  0.30010  0.50450  1.0000
  C   C196      1.0  0.47453  0.69990  0.50450  1.0000
  C   C197      1.0  0.47453  0.80010  0.99550  1.0000
  C   C198      1.0  0.52547  0.19990  0.99550  1.0000
  C   C199      1.0  0.52547  0.80010  0.00450  1.0000
  C   C200      1.0  0.47453  0.19990  0.00450  1.0000
  C   C201      1.0  0.97453  0.30010  0.99550  1.0000
  C   C202      1.0  0.02547  0.69990  0.99550  1.0000
  C   C203      1.0  0.02547  0.30010  0.00450  1.0000
  C   C204      1.0  0.97453  0.69990  0.00450  1.0000
  C   C205      1.0  0.97453  0.80010  0.49550  1.0000
  C   C206      1.0  0.02547  0.19990  0.49550  1.0000
  C   C207      1.0  0.02547  0.80010  0.50450  1.0000
  C   C208      1.0  0.97453  0.19990  0.50450  1.0000
  C   C209      1.0  0.40095  0.33690  0.51910  1.0000
  C   C210      1.0  0.59905  0.66310  0.51910  1.0000
  C   C211      1.0  0.59905  0.33690  0.48090  1.0000
  C   C212      1.0  0.40095  0.66310  0.48090  1.0000
  C   C213      1.0  0.40095  0.83690  0.01910  1.0000
  C   C214      1.0  0.59905  0.16310  0.01910  1.0000
  C   C215      1.0  0.59905  0.83690  0.98090  1.0000
  C   C216      1.0  0.40095  0.16310  0.98090  1.0000
  C   C217      1.0  0.90095  0.33690  0.01910  1.0000
  C   C218      1.0  0.09905  0.66310  0.01910  1.0000
  C   C219      1.0  0.09905  0.33690  0.98090  1.0000
  C   C220      1.0  0.90095  0.66310  0.98090  1.0000
  C   C221      1.0  0.90095  0.83690  0.51910  1.0000
  C   C222      1.0  0.09905  0.16310  0.51910  1.0000
  C   C223      1.0  0.09905  0.83690  0.48090  1.0000
  C   C224      1.0  0.90095  0.16310  0.48090  1.0000
  C   C225      1.0  0.37472  0.37505  0.55720  1.0000
  C   C226      1.0  0.62528  0.62495  0.55720  1.0000
  C   C227      1.0  0.62528  0.37505  0.44280  1.0000
  C   C228      1.0  0.37472  0.62495  0.44280  1.0000
  C   C229      1.0  0.37472  0.87505  0.05720  1.0000
  C   C230      1.0  0.62528  0.12495  0.05720  1.0000
  C   C231      1.0  0.62528  0.87505  0.94280  1.0000
  C   C232      1.0  0.37472  0.12495  0.94280  1.0000
  C   C233      1.0  0.87472  0.37505  0.05720  1.0000
  C   C234      1.0  0.12528  0.62495  0.05720  1.0000
  C   C235      1.0  0.12528  0.37505  0.94280  1.0000
  C   C236      1.0  0.87472  0.62495  0.94280  1.0000
  C   C237      1.0  0.87472  0.87505  0.55720  1.0000
  C   C238      1.0  0.12528  0.12495  0.55720  1.0000
  C   C239      1.0  0.12528  0.87505  0.44280  1.0000
  C   C240      1.0  0.87472  0.12495  0.44280  1.0000
  C   C241      1.0  0.30140  0.29860  0.40680  1.0000
  C   C242      1.0  0.69860  0.70140  0.40680  1.0000
  C   C243      1.0  0.69860  0.29860  0.59320  1.0000
  C   C244      1.0  0.30140  0.70140  0.59320  1.0000
  C   C245      1.0  0.30140  0.79860  0.90680  1.0000
  C   C246      1.0  0.69860  0.20140  0.90680  1.0000
  C   C247      1.0  0.69860  0.79860  0.09320  1.0000
  C   C248      1.0  0.30140  0.20140  0.09320  1.0000
  C   C249      1.0  0.80140  0.29860  0.90680  1.0000
  C   C250      1.0  0.19860  0.70140  0.90680  1.0000
  C   C251      1.0  0.19860  0.29860  0.09320  1.0000
  C   C252      1.0  0.80140  0.70140  0.09320  1.0000
  C   C253      1.0  0.80140  0.79860  0.40680  1.0000
  C   C254      1.0  0.19860  0.20140  0.40680  1.0000
  C   C255      1.0  0.19860  0.79860  0.59320  1.0000
  C   C256      1.0  0.80140  0.20140  0.59320  1.0000
  H   H97       1.0  0.30492  0.32525  0.36779  1.0000
  H   H98       1.0  0.69508  0.67475  0.36779  1.0000
  H   H99       1.0  0.69508  0.32525  0.63221  1.0000
  H   H100      1.0  0.30492  0.67475  0.63221  1.0000
  H   H101      1.0  0.30492  0.82525  0.86779  1.0000
  H   H102      1.0  0.69508  0.17475  0.86779  1.0000
  H   H103      1.0  0.69508  0.82525  0.13221  1.0000
  H   H104      1.0  0.30492  0.17475  0.13221  1.0000
  H   H105      1.0  0.80492  0.32525  0.86779  1.0000
  H   H106      1.0  0.19508  0.67475  0.86779  1.0000
  H   H107      1.0  0.19508  0.32525  0.13221  1.0000
  H   H108      1.0  0.80492  0.67475  0.13221  1.0000
  H   H109      1.0  0.80492  0.82525  0.36779  1.0000
  H   H110      1.0  0.19508  0.17475  0.36779  1.0000
  H   H111      1.0  0.19508  0.82525  0.63221  1.0000
  H   H112      1.0  0.80492  0.17475  0.63221  1.0000
  H   H113      1.0  0.26874  0.29508  0.42565  1.0000
  H   H114      1.0  0.73126  0.70492  0.42565  1.0000
  H   H115      1.0  0.73126  0.29508  0.57435  1.0000
  H   H116      1.0  0.26874  0.70492  0.57435  1.0000
  H   H117      1.0  0.26874  0.79508  0.92565  1.0000
  H   H118      1.0  0.73126  0.20492  0.92565  1.0000
  H   H119      1.0  0.73126  0.79508  0.07435  1.0000
  H   H120      1.0  0.26874  0.20492  0.07435  1.0000
  H   H121      1.0  0.76874  0.29508  0.92565  1.0000
  H   H122      1.0  0.23126  0.70492  0.92565  1.0000
  H   H123      1.0  0.23126  0.29508  0.07435  1.0000
  H   H124      1.0  0.76874  0.70492  0.07435  1.0000
  H   H125      1.0  0.76874  0.79508  0.42565  1.0000
  H   H126      1.0  0.23126  0.20492  0.42565  1.0000
  H   H127      1.0  0.23126  0.79508  0.57435  1.0000
  H   H128      1.0  0.76874  0.20492  0.57435  1.0000
  H   H129      1.0  0.31135  0.27336  0.36809  1.0000
  H   H130      1.0  0.68865  0.72664  0.36809  1.0000
  H   H131      1.0  0.68865  0.27336  0.63191  1.0000
  H   H132      1.0  0.31135  0.72664  0.63191  1.0000
  H   H133      1.0  0.31135  0.77336  0.86809  1.0000
  H   H134      1.0  0.68865  0.22664  0.86809  1.0000
  H   H135      1.0  0.68865  0.77336  0.13191  1.0000
  H   H136      1.0  0.31135  0.22664  0.13191  1.0000
  H   H137      1.0  0.81135  0.27336  0.86809  1.0000
  H   H138      1.0  0.18865  0.72664  0.86809  1.0000
  H   H139      1.0  0.18865  0.27336  0.13191  1.0000
  H   H140      1.0  0.81135  0.72664  0.13191  1.0000
  H   H141      1.0  0.81135  0.77336  0.36809  1.0000
  H   H142      1.0  0.18865  0.22664  0.36809  1.0000
  H   H143      1.0  0.18865  0.77336  0.63191  1.0000
  H   H144      1.0  0.81135  0.22664  0.63191  1.0000
  C   C257      1.0  0.32970  0.44919  0.63850  1.0000
  C   C258      1.0  0.67030  0.55081  0.63850  1.0000
  C   C259      1.0  0.67030  0.44919  0.36150  1.0000
  C   C260      1.0  0.32970  0.55081  0.36150  1.0000
  C   C261      1.0  0.32970  0.94919  0.13850  1.0000
  C   C262      1.0  0.67030  0.05081  0.13850  1.0000
  C   C263      1.0  0.67030  0.94919  0.86150  1.0000
  C   C264      1.0  0.32970  0.05081  0.86150  1.0000
  C   C265      1.0  0.82970  0.44919  0.13850  1.0000
  C   C266      1.0  0.17030  0.55081  0.13850  1.0000
  C   C267      1.0  0.17030  0.44919  0.86150  1.0000
  C   C268      1.0  0.82970  0.55081  0.86150  1.0000
  C   C269      1.0  0.82970  0.94919  0.63850  1.0000
  C   C270      1.0  0.17030  0.05081  0.63850  1.0000
  C   C271      1.0  0.17030  0.94919  0.36150  1.0000
  C   C272      1.0  0.82970  0.05081  0.36150  1.0000
  C   C273      1.0  0.34380  0.20463  0.47960  1.0000
  C   C274      1.0  0.65620  0.79537  0.47960  1.0000
  C   C275      1.0  0.65620  0.20463  0.52040  1.0000
  C   C276      1.0  0.34380  0.79537  0.52040  1.0000
  C   C277      1.0  0.34380  0.70463  0.97960  1.0000
  C   C278      1.0  0.65620  0.29537  0.97960  1.0000
  C   C279      1.0  0.65620  0.70463  0.02040  1.0000
  C   C280      1.0  0.34380  0.29537  0.02040  1.0000
  C   C281      1.0  0.84380  0.20463  0.97960  1.0000
  C   C282      1.0  0.15620  0.79537  0.97960  1.0000
  C   C283      1.0  0.15620  0.20463  0.02040  1.0000
  C   C284      1.0  0.84380  0.79537  0.02040  1.0000
  C   C285      1.0  0.84380  0.70463  0.47960  1.0000
  C   C286      1.0  0.15620  0.29537  0.47960  1.0000
  C   C287      1.0  0.15620  0.70463  0.52040  1.0000
  C   C288      1.0  0.84380  0.29537  0.52040  1.0000
  H   H145      1.0  0.33599  0.21775  0.54031  1.0000
  H   H146      1.0  0.66401  0.78225  0.54031  1.0000
  H   H147      1.0  0.66401  0.21775  0.45969  1.0000
  H   H148      1.0  0.33599  0.78225  0.45969  1.0000
  H   H149      1.0  0.33599  0.71775  0.04031  1.0000
  H   H150      1.0  0.66401  0.28225  0.04031  1.0000
  H   H151      1.0  0.66401  0.71775  0.95969  1.0000
  H   H152      1.0  0.33599  0.28225  0.95969  1.0000
  H   H153      1.0  0.83599  0.21775  0.04031  1.0000
  H   H154      1.0  0.16401  0.78225  0.04031  1.0000
  H   H155      1.0  0.16401  0.21775  0.95969  1.0000
  H   H156      1.0  0.83599  0.78225  0.95969  1.0000
  H   H157      1.0  0.83599  0.71775  0.54031  1.0000
  H   H158      1.0  0.16401  0.28225  0.54031  1.0000
  H   H159      1.0  0.16401  0.71775  0.45969  1.0000
  H   H160      1.0  0.83599  0.28225  0.45969  1.0000
  C   C289      1.0  0.32037  0.16552  0.44640  1.0000
  C   C290      1.0  0.67963  0.83448  0.44640  1.0000
  C   C291      1.0  0.67963  0.16552  0.55360  1.0000
  C   C292      1.0  0.32037  0.83448  0.55360  1.0000
  C   C293      1.0  0.32037  0.66552  0.94640  1.0000
  C   C294      1.0  0.67963  0.33448  0.94640  1.0000
  C   C295      1.0  0.67963  0.66552  0.05360  1.0000
  C   C296      1.0  0.32037  0.33448  0.05360  1.0000
  C   C297      1.0  0.82037  0.16552  0.94640  1.0000
  C   C298      1.0  0.17963  0.83448  0.94640  1.0000
  C   C299      1.0  0.17963  0.16552  0.05360  1.0000
  C   C300      1.0  0.82037  0.83448  0.05360  1.0000
  C   C301      1.0  0.82037  0.66552  0.44640  1.0000
  C   C302      1.0  0.17963  0.33448  0.44640  1.0000
  C   C303      1.0  0.17963  0.66552  0.55360  1.0000
  C   C304      1.0  0.82037  0.33448  0.55360  1.0000
  H   H161      1.0  0.29686  0.15189  0.48453  1.0000
  H   H162      1.0  0.70314  0.84811  0.48453  1.0000
  H   H163      1.0  0.70314  0.15189  0.51547  1.0000
  H   H164      1.0  0.29686  0.84811  0.51547  1.0000
  H   H165      1.0  0.29686  0.65189  0.98453  1.0000
  H   H166      1.0  0.70314  0.34811  0.98453  1.0000
  H   H167      1.0  0.70314  0.65189  0.01547  1.0000
  H   H168      1.0  0.29686  0.34811  0.01547  1.0000
  H   H169      1.0  0.79686  0.15189  0.98453  1.0000
  H   H170      1.0  0.20314  0.84811  0.98453  1.0000
  H   H171      1.0  0.20314  0.15189  0.01547  1.0000
  H   H172      1.0  0.79686  0.84811  0.01547  1.0000
  H   H173      1.0  0.79686  0.65189  0.48453  1.0000
  H   H174      1.0  0.20314  0.34811  0.48453  1.0000
  H   H175      1.0  0.20314  0.65189  0.51547  1.0000
  H   H176      1.0  0.79686  0.34811  0.51547  1.0000
  C   C305      1.0  0.31857  0.43420  0.54800  1.0000
  C   C306      1.0  0.68143  0.56580  0.54800  1.0000
  C   C307      1.0  0.68143  0.43420  0.45200  1.0000
  C   C308      1.0  0.31857  0.56580  0.45200  1.0000
  C   C309      1.0  0.31857  0.93420  0.04800  1.0000
  C   C310      1.0  0.68143  0.06580  0.04800  1.0000
  C   C311      1.0  0.68143  0.93420  0.95200  1.0000
  C   C312      1.0  0.31857  0.06580  0.95200  1.0000
  C   C313      1.0  0.81857  0.43420  0.04800  1.0000
  C   C314      1.0  0.18143  0.56580  0.04800  1.0000
  C   C315      1.0  0.18143  0.43420  0.95200  1.0000
  C   C316      1.0  0.81857  0.56580  0.95200  1.0000
  C   C317      1.0  0.81857  0.93420  0.54800  1.0000
  C   C318      1.0  0.18143  0.06580  0.54800  1.0000
  C   C319      1.0  0.18143  0.93420  0.45200  1.0000
  C   C320      1.0  0.81857  0.06580  0.45200  1.0000
  H   H177      1.0  0.29728  0.44900  0.50642  1.0000
  H   H178      1.0  0.70272  0.55100  0.50642  1.0000
  H   H179      1.0  0.70272  0.44900  0.49358  1.0000
  H   H180      1.0  0.29728  0.55100  0.49358  1.0000
  H   H181      1.0  0.29728  0.94900  0.00642  1.0000
  H   H182      1.0  0.70272  0.05100  0.00642  1.0000
  H   H183      1.0  0.70272  0.94900  0.99358  1.0000
  H   H184      1.0  0.29728  0.05100  0.99358  1.0000
  H   H185      1.0  0.79728  0.44900  0.00642  1.0000
  H   H186      1.0  0.20272  0.55100  0.00642  1.0000
  H   H187      1.0  0.20272  0.44900  0.99358  1.0000
  H   H188      1.0  0.79728  0.55100  0.99358  1.0000
  H   H189      1.0  0.79728  0.94900  0.50642  1.0000
  H   H190      1.0  0.20272  0.05100  0.50642  1.0000
  H   H191      1.0  0.20272  0.94900  0.49358  1.0000
  H   H192      1.0  0.79728  0.05100  0.49358  1.0000
  C   C321      1.0  0.34036  0.39613  0.52090  1.0000
  C   C322      1.0  0.65964  0.60387  0.52090  1.0000
  C   C323      1.0  0.65964  0.39613  0.47910  1.0000
  C   C324      1.0  0.34036  0.60387  0.47910  1.0000
  C   C325      1.0  0.34036  0.89613  0.02090  1.0000
  C   C326      1.0  0.65964  0.10387  0.02090  1.0000
  C   C327      1.0  0.65964  0.89613  0.97910  1.0000
  C   C328      1.0  0.34036  0.10387  0.97910  1.0000
  C   C329      1.0  0.84036  0.39613  0.02090  1.0000
  C   C330      1.0  0.15964  0.60387  0.02090  1.0000
  C   C331      1.0  0.15964  0.39613  0.97910  1.0000
  C   C332      1.0  0.84036  0.60387  0.97910  1.0000
  C   C333      1.0  0.84036  0.89613  0.52090  1.0000
  C   C334      1.0  0.15964  0.10387  0.52090  1.0000
  C   C335      1.0  0.15964  0.89613  0.47910  1.0000
  C   C336      1.0  0.84036  0.10387  0.47910  1.0000
  H   H193      1.0  0.32738  0.38289  0.46432  1.0000
  H   H194      1.0  0.67262  0.61711  0.46432  1.0000
  H   H195      1.0  0.67262  0.38289  0.53568  1.0000
  H   H196      1.0  0.32738  0.61711  0.53568  1.0000
  H   H197      1.0  0.32738  0.88289  0.96432  1.0000
  H   H198      1.0  0.67262  0.11711  0.96432  1.0000
  H   H199      1.0  0.67262  0.88289  0.03568  1.0000
  H   H200      1.0  0.32738  0.11711  0.03568  1.0000
  H   H201      1.0  0.82738  0.38289  0.96432  1.0000
  H   H202      1.0  0.17262  0.61711  0.96432  1.0000
  H   H203      1.0  0.17262  0.38289  0.03568  1.0000
  H   H204      1.0  0.82738  0.61711  0.03568  1.0000
  H   H205      1.0  0.82738  0.88289  0.46432  1.0000
  H   H206      1.0  0.17262  0.11711  0.46432  1.0000
  H   H207      1.0  0.17262  0.88289  0.53568  1.0000
  H   H208      1.0  0.82738  0.11711  0.53568  1.0000
