data_image0
_chemical_formula_structural       In2O12C8O4C8H4C12O4C12H4C4H4C4H4C4H4C4H4C8H4C12H4C4H12C4H4C4H4C4H4C4H4
_chemical_formula_sum              "In2 O20 C96 H60"
_cell_length_a       19.505
_cell_length_b       9.945
_cell_length_c       13.327
_cell_angle_alpha    90
_cell_angle_beta     90
_cell_angle_gamma    90

_space_group_name_H-M_alt    "P 1"
_space_group_IT_number       1

loop_
  _space_group_symop_operation_xyz
  'x, y, z'

loop_
  _atom_site_type_symbol
  _atom_site_label
  _atom_site_symmetry_multiplicity
  _atom_site_fract_x
  _atom_site_fract_y
  _atom_site_fract_z
  _atom_site_occupancy
  In  In1       1.0  0.50000  0.00000  0.96185  1.0000
  In  In2       1.0  0.00000  0.50000  0.96185  1.0000
  O   O1        1.0  0.27900  0.56310  0.46080  1.0000
  O   O2        1.0  0.72100  0.43690  0.46080  1.0000
  O   O3        1.0  0.77900  0.93690  0.46080  1.0000
  O   O4        1.0  0.22100  0.06310  0.46080  1.0000
  O   O5        1.0  0.49670  0.79280  0.89160  1.0000
  O   O6        1.0  0.50330  0.20720  0.89160  1.0000
  O   O7        1.0  0.99670  0.70720  0.89160  1.0000
  O   O8        1.0  0.00330  0.29280  0.89160  1.0000
  O   O9        1.0  0.42720  0.95580  0.82180  1.0000
  O   O10       1.0  0.57280  0.04420  0.82180  1.0000
  O   O11       1.0  0.92720  0.54420  0.82180  1.0000
  O   O12       1.0  0.07280  0.45580  0.82180  1.0000
  C   C1        1.0  0.39140  0.54800  0.60200  1.0000
  C   C2        1.0  0.60860  0.45200  0.60200  1.0000
  C   C3        1.0  0.89140  0.95200  0.60200  1.0000
  C   C4        1.0  0.10860  0.04800  0.60200  1.0000
  C   C5        1.0  0.32540  0.45880  0.45750  1.0000
  C   C6        1.0  0.67460  0.54120  0.45750  1.0000
  C   C7        1.0  0.82540  0.04120  0.45750  1.0000
  C   C8        1.0  0.17460  0.95880  0.45750  1.0000
  O   O13       1.0  0.10100  0.55030  0.03240  1.0000
  O   O14       1.0  0.89900  0.44970  0.03240  1.0000
  O   O15       1.0  0.60100  0.94970  0.03240  1.0000
  O   O16       1.0  0.39900  0.05030  0.03240  1.0000
  C   C9        1.0  0.37850  0.44590  0.52360  1.0000
  C   C10       1.0  0.62150  0.55410  0.52360  1.0000
  C   C11       1.0  0.87850  0.05410  0.52360  1.0000
  C   C12       1.0  0.12150  0.94590  0.52360  1.0000
  C   C13       1.0  0.42410  0.33450  0.51080  1.0000
  C   C14       1.0  0.57590  0.66550  0.51080  1.0000
  C   C15       1.0  0.92410  0.16550  0.51080  1.0000
  C   C16       1.0  0.07590  0.83450  0.51080  1.0000
  H   H1        1.0  0.46217  0.32616  0.55483  1.0000
  H   H2        1.0  0.53783  0.67384  0.55483  1.0000
  H   H3        1.0  0.96217  0.17384  0.55483  1.0000
  H   H4        1.0  0.03783  0.82616  0.55483  1.0000
  C   C17       1.0  0.45060  0.83230  0.82530  1.0000
  C   C18       1.0  0.54940  0.16770  0.82530  1.0000
  C   C19       1.0  0.95060  0.66770  0.82530  1.0000
  C   C20       1.0  0.04940  0.33230  0.82530  1.0000
  C   C21       1.0  0.31710  0.36910  0.37430  1.0000
  C   C22       1.0  0.68290  0.63090  0.37430  1.0000
  C   C23       1.0  0.81710  0.13090  0.37430  1.0000
  C   C24       1.0  0.18290  0.86910  0.37430  1.0000
  C   C25       1.0  0.42490  0.73420  0.75210  1.0000
  C   C26       1.0  0.57510  0.26580  0.75210  1.0000
  C   C27       1.0  0.92490  0.76580  0.75210  1.0000
  C   C28       1.0  0.07510  0.23420  0.75210  1.0000
  O   O17       1.0  0.04950  0.37930  0.09390  1.0000
  O   O18       1.0  0.95050  0.62070  0.09390  1.0000
  O   O19       1.0  0.54950  0.12070  0.09390  1.0000
  O   O20       1.0  0.45050  0.87930  0.09390  1.0000
  C   C29       1.0  0.26530  0.39320  0.30030  1.0000
  C   C30       1.0  0.73470  0.60680  0.30030  1.0000
  C   C31       1.0  0.76530  0.10680  0.30030  1.0000
  C   C32       1.0  0.23470  0.89320  0.30030  1.0000
  C   C33       1.0  0.41510  0.24060  0.43870  1.0000
  C   C34       1.0  0.58490  0.75940  0.43870  1.0000
  C   C35       1.0  0.91510  0.25940  0.43870  1.0000
  C   C36       1.0  0.08490  0.74060  0.43870  1.0000
  C   C37       1.0  0.41040  0.50270  0.69300  1.0000
  C   C38       1.0  0.58960  0.49730  0.69300  1.0000
  C   C39       1.0  0.91040  0.99730  0.69300  1.0000
  C   C40       1.0  0.08960  0.00270  0.69300  1.0000
  H   H5        1.0  0.41040  0.40895  0.70664  1.0000
  H   H6        1.0  0.58960  0.59105  0.70664  1.0000
  H   H7        1.0  0.91040  0.09105  0.70664  1.0000
  H   H8        1.0  0.08960  0.90895  0.70664  1.0000
  C   C41       1.0  0.43030  0.59410  0.76750  1.0000
  C   C42       1.0  0.56970  0.40590  0.76750  1.0000
  C   C43       1.0  0.93030  0.90590  0.76750  1.0000
  C   C44       1.0  0.06970  0.09410  0.76750  1.0000
  H   H9        1.0  0.44770  0.56128  0.82946  1.0000
  H   H10       1.0  0.55230  0.43872  0.82946  1.0000
  H   H11       1.0  0.94770  0.93872  0.82946  1.0000
  H   H12       1.0  0.05230  0.06128  0.82946  1.0000
  C   C45       1.0  0.36400  0.26040  0.36400  1.0000
  C   C46       1.0  0.63600  0.73960  0.36400  1.0000
  C   C47       1.0  0.86400  0.23960  0.36400  1.0000
  C   C48       1.0  0.13600  0.76040  0.36400  1.0000
  H   H13       1.0  0.36118  0.20176  0.30791  1.0000
  H   H14       1.0  0.63882  0.79824  0.30791  1.0000
  H   H15       1.0  0.86118  0.29824  0.30791  1.0000
  H   H16       1.0  0.13882  0.70176  0.30791  1.0000
  C   C49       1.0  0.38600  0.68470  0.58630  1.0000
  C   C50       1.0  0.61400  0.31530  0.58630  1.0000
  C   C51       1.0  0.88600  0.81530  0.58630  1.0000
  C   C52       1.0  0.11400  0.18470  0.58630  1.0000
  H   H17       1.0  0.37140  0.71641  0.52251  1.0000
  H   H18       1.0  0.62860  0.28359  0.52251  1.0000
  H   H19       1.0  0.87140  0.78359  0.52251  1.0000
  H   H20       1.0  0.12860  0.21641  0.52251  1.0000
  C   C53       1.0  0.48090  0.05980  0.34440  1.0000
  C   C54       1.0  0.51910  0.94020  0.34440  1.0000
  C   C55       1.0  0.98090  0.44020  0.34440  1.0000
  C   C56       1.0  0.01910  0.55980  0.34440  1.0000
  H   H21       1.0  0.46843  0.10157  0.28292  1.0000
  H   H22       1.0  0.53157  0.89843  0.28292  1.0000
  H   H23       1.0  0.96843  0.39843  0.28292  1.0000
  H   H24       1.0  0.03157  0.60157  0.28292  1.0000
  C   C57       1.0  0.46120  0.11700  0.43630  1.0000
  C   C58       1.0  0.53880  0.88300  0.43630  1.0000
  C   C59       1.0  0.96120  0.38300  0.43630  1.0000
  C   C60       1.0  0.03880  0.61700  0.43630  1.0000
  C   C61       1.0  0.40090  0.77480  0.65890  1.0000
  C   C62       1.0  0.59910  0.22520  0.65890  1.0000
  C   C63       1.0  0.90090  0.72520  0.65890  1.0000
  C   C64       1.0  0.09910  0.27480  0.65890  1.0000
  H   H25       1.0  0.39481  0.86792  0.64589  1.0000
  H   H26       1.0  0.60519  0.13208  0.64589  1.0000
  H   H27       1.0  0.89481  0.63208  0.64589  1.0000
  H   H28       1.0  0.10519  0.36792  0.64589  1.0000
  C   C65       1.0  0.15540  0.43990  0.16350  1.0000
  C   C66       1.0  0.84460  0.56010  0.16350  1.0000
  C   C67       1.0  0.65540  0.06010  0.16350  1.0000
  C   C68       1.0  0.34460  0.93990  0.16350  1.0000
  C   C69       1.0  0.09880  0.45780  0.08960  1.0000
  C   C70       1.0  0.90120  0.54220  0.08960  1.0000
  C   C71       1.0  0.59880  0.04220  0.08960  1.0000
  C   C72       1.0  0.40120  0.95780  0.08960  1.0000
  C   C73       1.0  0.48000  0.05790  0.52330  1.0000
  C   C74       1.0  0.52000  0.94210  0.52330  1.0000
  C   C75       1.0  0.98000  0.44210  0.52330  1.0000
  C   C76       1.0  0.02000  0.55790  0.52330  1.0000
  H   H29       1.0  0.46577  0.09594  0.58531  1.0000
  H   H30       1.0  0.53423  0.90406  0.58531  1.0000
  H   H31       1.0  0.96577  0.40406  0.58531  1.0000
  H   H32       1.0  0.03423  0.59594  0.58531  1.0000
  C   C77       1.0  0.22640  0.53800  0.53170  1.0000
  C   C78       1.0  0.77360  0.46200  0.53170  1.0000
  C   C79       1.0  0.72640  0.96200  0.53170  1.0000
  C   C80       1.0  0.27360  0.03800  0.53170  1.0000
  H   H33       1.0  0.21538  0.44189  0.53192  1.0000
  H   H34       1.0  0.78462  0.55811  0.53192  1.0000
  H   H35       1.0  0.71538  0.05811  0.53192  1.0000
  H   H36       1.0  0.28462  0.94189  0.53192  1.0000
  H   H37       1.0  0.18549  0.58974  0.51364  1.0000
  H   H38       1.0  0.81451  0.41026  0.51364  1.0000
  H   H39       1.0  0.68549  0.91026  0.51364  1.0000
  H   H40       1.0  0.31451  0.08974  0.51364  1.0000
  H   H41       1.0  0.24210  0.56505  0.59859  1.0000
  H   H42       1.0  0.75790  0.43495  0.59859  1.0000
  H   H43       1.0  0.74210  0.93495  0.59859  1.0000
  H   H44       1.0  0.25790  0.06505  0.59859  1.0000
  C   C81       1.0  0.14830  0.33730  0.23400  1.0000
  C   C82       1.0  0.85170  0.66270  0.23400  1.0000
  C   C83       1.0  0.64830  0.16270  0.23400  1.0000
  C   C84       1.0  0.35170  0.83730  0.23400  1.0000
  H   H45       1.0  0.10850  0.28245  0.23742  1.0000
  H   H46       1.0  0.89150  0.71755  0.23742  1.0000
  H   H47       1.0  0.60850  0.21755  0.23742  1.0000
  H   H48       1.0  0.39150  0.78245  0.23742  1.0000
  C   C85       1.0  0.20540  0.31980  0.30150  1.0000
  C   C86       1.0  0.79460  0.68020  0.30150  1.0000
  C   C87       1.0  0.70540  0.18020  0.30150  1.0000
  C   C88       1.0  0.29460  0.81980  0.30150  1.0000
  H   H49       1.0  0.20132  0.25175  0.35121  1.0000
  H   H50       1.0  0.79868  0.74825  0.35121  1.0000
  H   H51       1.0  0.70132  0.24825  0.35121  1.0000
  H   H52       1.0  0.29868  0.75175  0.35121  1.0000
  C   C89       1.0  0.21290  0.52040  0.15860  1.0000
  C   C90       1.0  0.78710  0.47960  0.15860  1.0000
  C   C91       1.0  0.71290  0.97960  0.15860  1.0000
  C   C92       1.0  0.28710  0.02040  0.15860  1.0000
  H   H53       1.0  0.21667  0.58966  0.10979  1.0000
  H   H54       1.0  0.78333  0.41034  0.10979  1.0000
  H   H55       1.0  0.71667  0.91034  0.10979  1.0000
  H   H56       1.0  0.28333  0.08966  0.10979  1.0000
  C   C93       1.0  0.26620  0.49630  0.22870  1.0000
  C   C94       1.0  0.73380  0.50370  0.22870  1.0000
  C   C95       1.0  0.76620  0.00370  0.22870  1.0000
  C   C96       1.0  0.23380  0.99630  0.22870  1.0000
  H   H57       1.0  0.30511  0.55379  0.22696  1.0000
  H   H58       1.0  0.69489  0.44621  0.22696  1.0000
  H   H59       1.0  0.80511  0.94621  0.22696  1.0000
  H   H60       1.0  0.19489  0.05379  0.22696  1.0000
