data_image0
_chemical_formula_structural       In4O48C48H8C8H8C24H8C16H8C36H8C16H8C8H8C24H8C8H8C8H8C8H8C8H8C8H24C8H24
_chemical_formula_sum              "In4 O48 C228 H144"
_cell_length_a       19.773
_cell_length_b       36.25
_cell_length_c       17.175
_cell_angle_alpha    90
_cell_angle_beta     122.695
_cell_angle_gamma    90

_space_group_name_H-M_alt    "P 1"
_space_group_IT_number       1

loop_
  _space_group_symop_operation_xyz
  'x, y, z'

loop_
  _atom_site_type_symbol
  _atom_site_label
  _atom_site_symmetry_multiplicity
  _atom_site_fract_x
  _atom_site_fract_y
  _atom_site_fract_z
  _atom_site_occupancy
  In  In1       1.0  0.00000  0.53811  0.75000  1.0000
  In  In2       1.0  0.50000  0.03811  0.75000  1.0000
  In  In3       1.0  0.00000  0.46189  0.25000  1.0000
  In  In4       1.0  0.50000  0.96189  0.25000  1.0000
  O   O1        1.0  0.95680  0.49297  0.64410  1.0000
  O   O2        1.0  0.04320  0.49297  0.85590  1.0000
  O   O3        1.0  0.45680  0.99297  0.64410  1.0000
  O   O4        1.0  0.54320  0.99297  0.85590  1.0000
  O   O5        1.0  0.04320  0.50703  0.35590  1.0000
  O   O6        1.0  0.95680  0.50703  0.14410  1.0000
  O   O7        1.0  0.54320  0.00703  0.35590  1.0000
  O   O8        1.0  0.45680  0.00703  0.14410  1.0000
  O   O9        1.0  0.46170  0.06637  0.83720  1.0000
  O   O10       1.0  0.53830  0.06637  0.66280  1.0000
  O   O11       1.0  0.96170  0.56637  0.83720  1.0000
  O   O12       1.0  0.03830  0.56637  0.66280  1.0000
  O   O13       1.0  0.53830  0.93363  0.16280  1.0000
  O   O14       1.0  0.46170  0.93363  0.33720  1.0000
  O   O15       1.0  0.03830  0.43363  0.16280  1.0000
  O   O16       1.0  0.96170  0.43363  0.33720  1.0000
  O   O17       1.0  0.87620  0.50965  0.68590  1.0000
  O   O18       1.0  0.12380  0.50965  0.81410  1.0000
  O   O19       1.0  0.37620  0.00965  0.68590  1.0000
  O   O20       1.0  0.62380  0.00965  0.81410  1.0000
  O   O21       1.0  0.12380  0.49035  0.31410  1.0000
  O   O22       1.0  0.87620  0.49035  0.18590  1.0000
  O   O23       1.0  0.62380  0.99035  0.31410  1.0000
  O   O24       1.0  0.37620  0.99035  0.18590  1.0000
  O   O25       1.0  0.57330  0.08344  0.85270  1.0000
  O   O26       1.0  0.42670  0.08344  0.64730  1.0000
  O   O27       1.0  0.07330  0.58344  0.85270  1.0000
  O   O28       1.0  0.92670  0.58344  0.64730  1.0000
  O   O29       1.0  0.42670  0.91656  0.14730  1.0000
  O   O30       1.0  0.57330  0.91656  0.35270  1.0000
  O   O31       1.0  0.92670  0.41656  0.14730  1.0000
  O   O32       1.0  0.07330  0.41656  0.35270  1.0000
  O   O33       1.0  0.55950  0.24976  0.01270  1.0000
  O   O34       1.0  0.44050  0.24976  0.48730  1.0000
  O   O35       1.0  0.05950  0.74976  0.01270  1.0000
  O   O36       1.0  0.94050  0.74976  0.48730  1.0000
  O   O37       1.0  0.44050  0.75024  0.98730  1.0000
  O   O38       1.0  0.55950  0.75024  0.51270  1.0000
  O   O39       1.0  0.94050  0.25024  0.98730  1.0000
  O   O40       1.0  0.05950  0.25024  0.51270  1.0000
  O   O41       1.0  0.77460  0.33346  0.49840  1.0000
  O   O42       1.0  0.22540  0.33346  0.00160  1.0000
  O   O43       1.0  0.27460  0.83346  0.49840  1.0000
  O   O44       1.0  0.72540  0.83346  0.00160  1.0000
  O   O45       1.0  0.22540  0.66654  0.50160  1.0000
  O   O46       1.0  0.77460  0.66654  0.99840  1.0000
  O   O47       1.0  0.72540  0.16654  0.50160  1.0000
  O   O48       1.0  0.27460  0.16654  0.99840  1.0000
  C   C1        1.0  0.51630  0.26572  0.19230  1.0000
  C   C2        1.0  0.48370  0.26572  0.30770  1.0000
  C   C3        1.0  0.01630  0.76572  0.19230  1.0000
  C   C4        1.0  0.98370  0.76572  0.30770  1.0000
  C   C5        1.0  0.48370  0.73428  0.80770  1.0000
  C   C6        1.0  0.51630  0.73428  0.69230  1.0000
  C   C7        1.0  0.98370  0.23428  0.80770  1.0000
  C   C8        1.0  0.01630  0.23428  0.69230  1.0000
  C   C9        1.0  0.53330  0.17717  0.04080  1.0000
  C   C10       1.0  0.46670  0.17717  0.45920  1.0000
  C   C11       1.0  0.03330  0.67717  0.04080  1.0000
  C   C12       1.0  0.96670  0.67717  0.45920  1.0000
  C   C13       1.0  0.46670  0.82283  0.95920  1.0000
  C   C14       1.0  0.53330  0.82283  0.54080  1.0000
  C   C15       1.0  0.96670  0.32283  0.95920  1.0000
  C   C16       1.0  0.03330  0.32283  0.54080  1.0000
  C   C17       1.0  0.50920  0.22910  0.21490  1.0000
  C   C18       1.0  0.49080  0.22910  0.28510  1.0000
  C   C19       1.0  0.00920  0.72910  0.21490  1.0000
  C   C20       1.0  0.99080  0.72910  0.28510  1.0000
  C   C21       1.0  0.49080  0.77090  0.78510  1.0000
  C   C22       1.0  0.50920  0.77090  0.71490  1.0000
  C   C23       1.0  0.99080  0.27090  0.78510  1.0000
  C   C24       1.0  0.00920  0.27090  0.71490  1.0000
  C   C25       1.0  0.72740  0.40667  0.46420  1.0000
  C   C26       1.0  0.27260  0.40667  0.03580  1.0000
  C   C27       1.0  0.22740  0.90667  0.46420  1.0000
  C   C28       1.0  0.77260  0.90667  0.03580  1.0000
  C   C29       1.0  0.27260  0.59333  0.53580  1.0000
  C   C30       1.0  0.72740  0.59333  0.96420  1.0000
  C   C31       1.0  0.77260  0.09333  0.53580  1.0000
  C   C32       1.0  0.22740  0.09333  0.96420  1.0000
  C   C33       1.0  0.89040  0.49028  0.63920  1.0000
  C   C34       1.0  0.10960  0.49028  0.86080  1.0000
  C   C35       1.0  0.39040  0.99028  0.63920  1.0000
  C   C36       1.0  0.60960  0.99028  0.86080  1.0000
  C   C37       1.0  0.10960  0.50972  0.36080  1.0000
  C   C38       1.0  0.89040  0.50972  0.13920  1.0000
  C   C39       1.0  0.60960  0.00972  0.36080  1.0000
  C   C40       1.0  0.39040  0.00972  0.13920  1.0000
  C   C41       1.0  0.51700  0.20104  0.16530  1.0000
  C   C42       1.0  0.48300  0.20104  0.33470  1.0000
  C   C43       1.0  0.01700  0.70104  0.16530  1.0000
  C   C44       1.0  0.98300  0.70104  0.33470  1.0000
  C   C45       1.0  0.48300  0.79896  0.83470  1.0000
  C   C46       1.0  0.51700  0.79896  0.66530  1.0000
  C   C47       1.0  0.98300  0.29896  0.83470  1.0000
  C   C48       1.0  0.01700  0.29896  0.66530  1.0000
  H   H1        1.0  0.51019  0.17620  0.17748  1.0000
  H   H2        1.0  0.48981  0.17620  0.32252  1.0000
  H   H3        1.0  0.01019  0.67620  0.17748  1.0000
  H   H4        1.0  0.98981  0.67620  0.32252  1.0000
  H   H5        1.0  0.48981  0.82380  0.82252  1.0000
  H   H6        1.0  0.51019  0.82380  0.67748  1.0000
  H   H7        1.0  0.98981  0.32380  0.82252  1.0000
  H   H8        1.0  0.01019  0.32380  0.67748  1.0000
  C   C49       1.0  0.53310  0.27371  0.12670  1.0000
  C   C50       1.0  0.46690  0.27371  0.37330  1.0000
  C   C51       1.0  0.03310  0.77371  0.12670  1.0000
  C   C52       1.0  0.96690  0.77371  0.37330  1.0000
  C   C53       1.0  0.46690  0.72629  0.87330  1.0000
  C   C54       1.0  0.53310  0.72629  0.62670  1.0000
  C   C55       1.0  0.96690  0.22629  0.87330  1.0000
  C   C56       1.0  0.03310  0.22629  0.62670  1.0000
  H   H9        1.0  0.53773  0.29859  0.11278  1.0000
  H   H10       1.0  0.46227  0.29859  0.38722  1.0000
  H   H11       1.0  0.03773  0.79859  0.11278  1.0000
  H   H12       1.0  0.96227  0.79859  0.38722  1.0000
  H   H13       1.0  0.46227  0.70141  0.88722  1.0000
  H   H14       1.0  0.53773  0.70141  0.61278  1.0000
  H   H15       1.0  0.96227  0.20141  0.88722  1.0000
  H   H16       1.0  0.03773  0.20141  0.61278  1.0000
  C   C57       1.0  0.53400  0.20801  0.09960  1.0000
  C   C58       1.0  0.46600  0.20801  0.40040  1.0000
  C   C59       1.0  0.03400  0.70801  0.09960  1.0000
  C   C60       1.0  0.96600  0.70801  0.40040  1.0000
  C   C61       1.0  0.46600  0.79199  0.90040  1.0000
  C   C62       1.0  0.53400  0.79199  0.59960  1.0000
  C   C63       1.0  0.96600  0.29199  0.90040  1.0000
  C   C64       1.0  0.03400  0.29199  0.59960  1.0000
  C   C65       1.0  0.52740  0.11805  0.93390  1.0000
  C   C66       1.0  0.47260  0.11805  0.56610  1.0000
  C   C67       1.0  0.02740  0.61805  0.93390  1.0000
  C   C68       1.0  0.97260  0.61805  0.56610  1.0000
  C   C69       1.0  0.47260  0.88195  0.06610  1.0000
  C   C70       1.0  0.52740  0.88195  0.43390  1.0000
  C   C71       1.0  0.97260  0.38195  0.06610  1.0000
  C   C72       1.0  0.02740  0.38195  0.43390  1.0000
  C   C73       1.0  0.64420  0.31066  0.38060  1.0000
  C   C74       1.0  0.35580  0.31066  0.11940  1.0000
  C   C75       1.0  0.14420  0.81066  0.38060  1.0000
  C   C76       1.0  0.85580  0.81066  0.11940  1.0000
  C   C77       1.0  0.35580  0.68934  0.61940  1.0000
  C   C78       1.0  0.64420  0.68934  0.88060  1.0000
  C   C79       1.0  0.85580  0.18934  0.61940  1.0000
  C   C80       1.0  0.14420  0.18934  0.88060  1.0000
  H   H17       1.0  0.66074  0.28569  0.39607  1.0000
  H   H18       1.0  0.33926  0.28569  0.10393  1.0000
  H   H19       1.0  0.16074  0.78569  0.39607  1.0000
  H   H20       1.0  0.83926  0.78569  0.10393  1.0000
  H   H21       1.0  0.33926  0.71431  0.60393  1.0000
  H   H22       1.0  0.66074  0.71431  0.89607  1.0000
  H   H23       1.0  0.83926  0.21431  0.60393  1.0000
  H   H24       1.0  0.16074  0.21431  0.89607  1.0000
  C   C81       1.0  0.56840  0.31865  0.31140  1.0000
  C   C82       1.0  0.43160  0.31865  0.18860  1.0000
  C   C83       1.0  0.06840  0.81865  0.31140  1.0000
  C   C84       1.0  0.93160  0.81865  0.18860  1.0000
  C   C85       1.0  0.43160  0.68135  0.68860  1.0000
  C   C86       1.0  0.56840  0.68135  0.81140  1.0000
  C   C87       1.0  0.93160  0.18135  0.68860  1.0000
  C   C88       1.0  0.06840  0.18135  0.81140  1.0000
  C   C89       1.0  0.47060  0.12189  0.95440  1.0000
  C   C90       1.0  0.52940  0.12189  0.54560  1.0000
  C   C91       1.0  0.97060  0.62189  0.95440  1.0000
  C   C92       1.0  0.02940  0.62189  0.54560  1.0000
  C   C93       1.0  0.52940  0.87811  0.04560  1.0000
  C   C94       1.0  0.47060  0.87811  0.45440  1.0000
  C   C95       1.0  0.02940  0.37811  0.04560  1.0000
  C   C96       1.0  0.97060  0.37811  0.45440  1.0000
  H   H25       1.0  0.42815  0.10446  0.93150  1.0000
  H   H26       1.0  0.57185  0.10446  0.56850  1.0000
  H   H27       1.0  0.92815  0.60446  0.93150  1.0000
  H   H28       1.0  0.07185  0.60446  0.56850  1.0000
  H   H29       1.0  0.57185  0.89554  0.06850  1.0000
  H   H30       1.0  0.42815  0.89554  0.43150  1.0000
  H   H31       1.0  0.07185  0.39554  0.06850  1.0000
  H   H32       1.0  0.92815  0.39554  0.43150  1.0000
  C   C97       1.0  0.54360  0.35621  0.28800  1.0000
  C   C98       1.0  0.45640  0.35621  0.21200  1.0000
  C   C99       1.0  0.04360  0.85621  0.28800  1.0000
  C   C100      1.0  0.95640  0.85621  0.21200  1.0000
  C   C101      1.0  0.45640  0.64379  0.71200  1.0000
  C   C102      1.0  0.54360  0.64379  0.78800  1.0000
  C   C103      1.0  0.95640  0.14379  0.71200  1.0000
  C   C104      1.0  0.04360  0.14379  0.78800  1.0000
  C   C105      1.0  0.83350  0.46096  0.57560  1.0000
  C   C106      1.0  0.16650  0.46096  0.92440  1.0000
  C   C107      1.0  0.33350  0.96096  0.57560  1.0000
  C   C108      1.0  0.66650  0.96096  0.92440  1.0000
  C   C109      1.0  0.16650  0.53904  0.42440  1.0000
  C   C110      1.0  0.83350  0.53904  0.07560  1.0000
  C   C111      1.0  0.66650  0.03904  0.42440  1.0000
  C   C112      1.0  0.33350  0.03904  0.07560  1.0000
  C   C113      1.0  0.50000  0.29187  0.25000  1.0000
  C   C114      1.0  0.00000  0.79187  0.25000  1.0000
  C   C115      1.0  0.50000  0.70813  0.75000  1.0000
  C   C116      1.0  0.00000  0.20813  0.75000  1.0000
  C   C117      1.0  0.52110  0.08811  0.87120  1.0000
  C   C118      1.0  0.47890  0.08811  0.62880  1.0000
  C   C119      1.0  0.02110  0.58811  0.87120  1.0000
  C   C120      1.0  0.97890  0.58811  0.62880  1.0000
  C   C121      1.0  0.47890  0.91189  0.12880  1.0000
  C   C122      1.0  0.52110  0.91189  0.37120  1.0000
  C   C123      1.0  0.97890  0.41189  0.12880  1.0000
  C   C124      1.0  0.02110  0.41189  0.37120  1.0000
  C   C125      1.0  0.47410  0.15130  0.00900  1.0000
  C   C126      1.0  0.52590  0.15130  0.49100  1.0000
  C   C127      1.0  0.97410  0.65130  0.00900  1.0000
  C   C128      1.0  0.02590  0.65130  0.49100  1.0000
  C   C129      1.0  0.52590  0.84870  0.99100  1.0000
  C   C130      1.0  0.47410  0.84870  0.50900  1.0000
  C   C131      1.0  0.02590  0.34870  0.99100  1.0000
  C   C132      1.0  0.97410  0.34870  0.50900  1.0000
  H   H33       1.0  0.43458  0.15329  0.02418  1.0000
  H   H34       1.0  0.56542  0.15329  0.47582  1.0000
  H   H35       1.0  0.93458  0.65329  0.02418  1.0000
  H   H36       1.0  0.06542  0.65329  0.47582  1.0000
  H   H37       1.0  0.56542  0.84671  0.97582  1.0000
  H   H38       1.0  0.43458  0.84671  0.52418  1.0000
  H   H39       1.0  0.06542  0.34671  0.97582  1.0000
  H   H40       1.0  0.93458  0.34671  0.52418  1.0000
  C   C133      1.0  0.54330  0.24529  0.08150  1.0000
  C   C134      1.0  0.45670  0.24529  0.41850  1.0000
  C   C135      1.0  0.04330  0.74529  0.08150  1.0000
  C   C136      1.0  0.95670  0.74529  0.41850  1.0000
  C   C137      1.0  0.45670  0.75471  0.91850  1.0000
  C   C138      1.0  0.54330  0.75471  0.58150  1.0000
  C   C139      1.0  0.95670  0.25471  0.91850  1.0000
  C   C140      1.0  0.04330  0.25471  0.58150  1.0000
  C   C141      1.0  0.85630  0.43650  0.53500  1.0000
  C   C142      1.0  0.14370  0.43650  0.96500  1.0000
  C   C143      1.0  0.35630  0.93650  0.53500  1.0000
  C   C144      1.0  0.64370  0.93650  0.96500  1.0000
  C   C145      1.0  0.14370  0.56350  0.46500  1.0000
  C   C146      1.0  0.85630  0.56350  0.03500  1.0000
  C   C147      1.0  0.64370  0.06350  0.46500  1.0000
  C   C148      1.0  0.35630  0.06350  0.03500  1.0000
  H   H41       1.0  0.90778  0.43866  0.54363  1.0000
  H   H42       1.0  0.09222  0.43866  0.95637  1.0000
  H   H43       1.0  0.40778  0.93866  0.54363  1.0000
  H   H44       1.0  0.59222  0.93866  0.95637  1.0000
  H   H45       1.0  0.09222  0.56134  0.45637  1.0000
  H   H46       1.0  0.90778  0.56134  0.04363  1.0000
  H   H47       1.0  0.59222  0.06134  0.45637  1.0000
  H   H48       1.0  0.40778  0.06134  0.04363  1.0000
  C   C149      1.0  0.58850  0.14344  0.96760  1.0000
  C   C150      1.0  0.41150  0.14344  0.53240  1.0000
  C   C151      1.0  0.08850  0.64344  0.96760  1.0000
  C   C152      1.0  0.91150  0.64344  0.53240  1.0000
  C   C153      1.0  0.41150  0.85656  0.03240  1.0000
  C   C154      1.0  0.58850  0.85656  0.46760  1.0000
  C   C155      1.0  0.91150  0.35656  0.03240  1.0000
  C   C156      1.0  0.08850  0.35656  0.46760  1.0000
  H   H49       1.0  0.62880  0.14133  0.95375  1.0000
  H   H50       1.0  0.37120  0.14133  0.54625  1.0000
  H   H51       1.0  0.12880  0.64133  0.95375  1.0000
  H   H52       1.0  0.87120  0.64133  0.54625  1.0000
  H   H53       1.0  0.37120  0.85867  0.04625  1.0000
  H   H54       1.0  0.62880  0.85867  0.45375  1.0000
  H   H55       1.0  0.87120  0.35867  0.04625  1.0000
  H   H56       1.0  0.12880  0.35867  0.45375  1.0000
  C   C157      1.0  0.69670  0.33832  0.42810  1.0000
  C   C158      1.0  0.30330  0.33832  0.07190  1.0000
  C   C159      1.0  0.19670  0.83832  0.42810  1.0000
  C   C160      1.0  0.80330  0.83832  0.07190  1.0000
  C   C161      1.0  0.30330  0.66168  0.57190  1.0000
  C   C162      1.0  0.69670  0.66168  0.92810  1.0000
  C   C163      1.0  0.80330  0.16168  0.57190  1.0000
  C   C164      1.0  0.19670  0.16168  0.92810  1.0000
  C   C165      1.0  0.67220  0.37522  0.40830  1.0000
  C   C166      1.0  0.32780  0.37522  0.09170  1.0000
  C   C167      1.0  0.17220  0.87522  0.40830  1.0000
  C   C168      1.0  0.82780  0.87522  0.09170  1.0000
  C   C169      1.0  0.32780  0.62478  0.59170  1.0000
  C   C170      1.0  0.67220  0.62478  0.90830  1.0000
  C   C171      1.0  0.82780  0.12478  0.59170  1.0000
  C   C172      1.0  0.17220  0.12478  0.90830  1.0000
  C   C173      1.0  0.80480  0.40799  0.48030  1.0000
  C   C174      1.0  0.19520  0.40799  0.01970  1.0000
  C   C175      1.0  0.30480  0.90799  0.48030  1.0000
  C   C176      1.0  0.69520  0.90799  0.01970  1.0000
  C   C177      1.0  0.19520  0.59201  0.51970  1.0000
  C   C178      1.0  0.80480  0.59201  0.98030  1.0000
  C   C179      1.0  0.69520  0.09201  0.51970  1.0000
  C   C180      1.0  0.30480  0.09201  0.98030  1.0000
  H   H57       1.0  0.82196  0.38988  0.45459  1.0000
  H   H58       1.0  0.17804  0.38988  0.04541  1.0000
  H   H59       1.0  0.32196  0.88988  0.45459  1.0000
  H   H60       1.0  0.67804  0.88988  0.04541  1.0000
  H   H61       1.0  0.17804  0.61012  0.54541  1.0000
  H   H62       1.0  0.82196  0.61012  0.95459  1.0000
  H   H63       1.0  0.67804  0.11012  0.54541  1.0000
  H   H64       1.0  0.32196  0.11012  0.95459  1.0000
  C   C181      1.0  0.70360  0.43239  0.50120  1.0000
  C   C182      1.0  0.29640  0.43239  0.99880  1.0000
  C   C183      1.0  0.20360  0.93239  0.50120  1.0000
  C   C184      1.0  0.79640  0.93239  0.99880  1.0000
  C   C185      1.0  0.29640  0.56761  0.49880  1.0000
  C   C186      1.0  0.70360  0.56761  0.00120  1.0000
  C   C187      1.0  0.79640  0.06761  0.49880  1.0000
  C   C188      1.0  0.20360  0.06761  0.00120  1.0000
  H   H65       1.0  0.65056  0.43174  0.48877  1.0000
  H   H66       1.0  0.34944  0.43174  0.01123  1.0000
  H   H67       1.0  0.15056  0.93174  0.48877  1.0000
  H   H68       1.0  0.84944  0.93174  0.01123  1.0000
  H   H69       1.0  0.34944  0.56826  0.51123  1.0000
  H   H70       1.0  0.65056  0.56826  0.98877  1.0000
  H   H71       1.0  0.84944  0.06826  0.51123  1.0000
  H   H72       1.0  0.15056  0.06826  0.98877  1.0000
  C   C189      1.0  0.75810  0.46060  0.55910  1.0000
  C   C190      1.0  0.24190  0.46060  0.94090  1.0000
  C   C191      1.0  0.25810  0.96060  0.55910  1.0000
  C   C192      1.0  0.74190  0.96060  0.94090  1.0000
  C   C193      1.0  0.24190  0.53940  0.44090  1.0000
  C   C194      1.0  0.75810  0.53940  0.05910  1.0000
  C   C195      1.0  0.74190  0.03940  0.44090  1.0000
  C   C196      1.0  0.25810  0.03940  0.05910  1.0000
  H   H73       1.0  0.74199  0.47881  0.58567  1.0000
  H   H74       1.0  0.25801  0.47881  0.91433  1.0000
  H   H75       1.0  0.24199  0.97881  0.58567  1.0000
  H   H76       1.0  0.75801  0.97881  0.91433  1.0000
  H   H77       1.0  0.25801  0.52119  0.41433  1.0000
  H   H78       1.0  0.74199  0.52119  0.08567  1.0000
  H   H79       1.0  0.75801  0.02119  0.41433  1.0000
  H   H80       1.0  0.24199  0.02119  0.08567  1.0000
  C   C197      1.0  0.59050  0.17221  0.02200  1.0000
  C   C198      1.0  0.40950  0.17221  0.47800  1.0000
  C   C199      1.0  0.09050  0.67221  0.02200  1.0000
  C   C200      1.0  0.90950  0.67221  0.47800  1.0000
  C   C201      1.0  0.40950  0.82779  0.97800  1.0000
  C   C202      1.0  0.59050  0.82779  0.52200  1.0000
  C   C203      1.0  0.90950  0.32779  0.97800  1.0000
  C   C204      1.0  0.09050  0.32779  0.52200  1.0000
  H   H81       1.0  0.63403  0.18913  0.04699  1.0000
  H   H82       1.0  0.36597  0.18913  0.45301  1.0000
  H   H83       1.0  0.13403  0.68913  0.04699  1.0000
  H   H84       1.0  0.86597  0.68913  0.45301  1.0000
  H   H85       1.0  0.36597  0.81087  0.95301  1.0000
  H   H86       1.0  0.63403  0.81087  0.54699  1.0000
  H   H87       1.0  0.86597  0.31087  0.95301  1.0000
  H   H88       1.0  0.13403  0.31087  0.54699  1.0000
  C   C205      1.0  0.59470  0.38319  0.33710  1.0000
  C   C206      1.0  0.40530  0.38319  0.16290  1.0000
  C   C207      1.0  0.09470  0.88319  0.33710  1.0000
  C   C208      1.0  0.90530  0.88319  0.16290  1.0000
  C   C209      1.0  0.40530  0.61681  0.66290  1.0000
  C   C210      1.0  0.59470  0.61681  0.83710  1.0000
  C   C211      1.0  0.90530  0.11681  0.66290  1.0000
  C   C212      1.0  0.09470  0.11681  0.83710  1.0000
  H   H89       1.0  0.57769  0.40815  0.32305  1.0000
  H   H90       1.0  0.42231  0.40815  0.17695  1.0000
  H   H91       1.0  0.07769  0.90815  0.32305  1.0000
  H   H92       1.0  0.92231  0.90815  0.17695  1.0000
  H   H93       1.0  0.42231  0.59185  0.67695  1.0000
  H   H94       1.0  0.57769  0.59185  0.82305  1.0000
  H   H95       1.0  0.92231  0.09185  0.67695  1.0000
  H   H96       1.0  0.07769  0.09185  0.82305  1.0000
  C   C213      1.0  0.79810  0.29676  0.52960  1.0000
  C   C214      1.0  0.20190  0.29676  0.97040  1.0000
  C   C215      1.0  0.29810  0.79676  0.52960  1.0000
  C   C216      1.0  0.70190  0.79676  0.97040  1.0000
  C   C217      1.0  0.20190  0.70324  0.47040  1.0000
  C   C218      1.0  0.79810  0.70324  0.02960  1.0000
  C   C219      1.0  0.70190  0.20324  0.47040  1.0000
  C   C220      1.0  0.29810  0.20324  0.02960  1.0000
  H   H97       1.0  0.80329  0.28293  0.48410  1.0000
  H   H98       1.0  0.19671  0.28293  0.01590  1.0000
  H   H99       1.0  0.30329  0.78293  0.48410  1.0000
  H   H100      1.0  0.69671  0.78293  0.01590  1.0000
  H   H101      1.0  0.19671  0.71707  0.51590  1.0000
  H   H102      1.0  0.80329  0.71707  0.98410  1.0000
  H   H103      1.0  0.69671  0.21707  0.51590  1.0000
  H   H104      1.0  0.30329  0.21707  0.98410  1.0000
  H   H105      1.0  0.75740  0.28504  0.53733  1.0000
  H   H106      1.0  0.24260  0.28504  0.96267  1.0000
  H   H107      1.0  0.25740  0.78504  0.53733  1.0000
  H   H108      1.0  0.74260  0.78504  0.96267  1.0000
  H   H109      1.0  0.24260  0.71496  0.46267  1.0000
  H   H110      1.0  0.75740  0.71496  0.03733  1.0000
  H   H111      1.0  0.74260  0.21496  0.46267  1.0000
  H   H112      1.0  0.25740  0.21496  0.03733  1.0000
  H   H113      1.0  0.84984  0.29692  0.58904  1.0000
  H   H114      1.0  0.15016  0.29692  0.91096  1.0000
  H   H115      1.0  0.34984  0.79692  0.58904  1.0000
  H   H116      1.0  0.65016  0.79692  0.91096  1.0000
  H   H117      1.0  0.15016  0.70308  0.41096  1.0000
  H   H118      1.0  0.84984  0.70308  0.08904  1.0000
  H   H119      1.0  0.65016  0.20308  0.41096  1.0000
  H   H120      1.0  0.34984  0.20308  0.08904  1.0000
  C   C221      1.0  0.57560  0.28786  0.99690  1.0000
  C   C222      1.0  0.42440  0.28786  0.50310  1.0000
  C   C223      1.0  0.07560  0.78786  0.99690  1.0000
  C   C224      1.0  0.92440  0.78786  0.50310  1.0000
  C   C225      1.0  0.42440  0.71214  0.00310  1.0000
  C   C226      1.0  0.57560  0.71214  0.49690  1.0000
  C   C227      1.0  0.92440  0.21214  0.00310  1.0000
  C   C228      1.0  0.07560  0.21214  0.49690  1.0000
  H   H121      1.0  0.59097  0.28773  0.95139  1.0000
  H   H122      1.0  0.40903  0.28773  0.54861  1.0000
  H   H123      1.0  0.09097  0.78773  0.95139  1.0000
  H   H124      1.0  0.90903  0.78773  0.54861  1.0000
  H   H125      1.0  0.40903  0.71227  0.04861  1.0000
  H   H126      1.0  0.59097  0.71227  0.45139  1.0000
  H   H127      1.0  0.90903  0.21227  0.04861  1.0000
  H   H128      1.0  0.09097  0.21227  0.45139  1.0000
  H   H129      1.0  0.61948  0.29829  0.05527  1.0000
  H   H130      1.0  0.38052  0.29829  0.44473  1.0000
  H   H131      1.0  0.11948  0.79829  0.05527  1.0000
  H   H132      1.0  0.88052  0.79829  0.44473  1.0000
  H   H133      1.0  0.38052  0.70171  0.94473  1.0000
  H   H134      1.0  0.61948  0.70171  0.55527  1.0000
  H   H135      1.0  0.88052  0.20171  0.94473  1.0000
  H   H136      1.0  0.11948  0.20171  0.55527  1.0000
  H   H137      1.0  0.52713  0.30285  0.97365  1.0000
  H   H138      1.0  0.47287  0.30285  0.52635  1.0000
  H   H139      1.0  0.02713  0.80285  0.97365  1.0000
  H   H140      1.0  0.97287  0.80285  0.52635  1.0000
  H   H141      1.0  0.47287  0.69715  0.02635  1.0000
  H   H142      1.0  0.52713  0.69715  0.47365  1.0000
  H   H143      1.0  0.97287  0.19715  0.02635  1.0000
  H   H144      1.0  0.02713  0.19715  0.47365  1.0000
