data_image0
_chemical_formula_structural       In4O32C16H8O8H8C16H8C8H8C8H8C56H8C8H8C8H8C24H8C8H8C8H8
_chemical_formula_sum              "In4 O40 C160 H88"
_cell_length_a       13.2976
_cell_length_b       30.422
_cell_length_c       15.8673
_cell_angle_alpha    90
_cell_angle_beta     112.959
_cell_angle_gamma    90

_space_group_name_H-M_alt    "P 1"
_space_group_IT_number       1

loop_
  _space_group_symop_operation_xyz
  'x, y, z'

loop_
  _atom_site_type_symbol
  _atom_site_label
  _atom_site_symmetry_multiplicity
  _atom_site_fract_x
  _atom_site_fract_y
  _atom_site_fract_z
  _atom_site_occupancy
  In  In1       1.0  0.00000  0.43067  0.25000  1.0000
  In  In2       1.0  0.50000  0.93067  0.25000  1.0000
  In  In3       1.0  0.00000  0.56933  0.75000  1.0000
  In  In4       1.0  0.50000  0.06933  0.75000  1.0000
  O   O1        1.0  0.15430  0.46650  0.31870  1.0000
  O   O2        1.0  0.84570  0.46650  0.18130  1.0000
  O   O3        1.0  0.65430  0.96650  0.31870  1.0000
  O   O4        1.0  0.34570  0.96650  0.18130  1.0000
  O   O5        1.0  0.84570  0.53350  0.68130  1.0000
  O   O6        1.0  0.15430  0.53350  0.81870  1.0000
  O   O7        1.0  0.34570  0.03350  0.68130  1.0000
  O   O8        1.0  0.65430  0.03350  0.81870  1.0000
  O   O9        1.0  0.56610  0.88180  0.36500  1.0000
  O   O10       1.0  0.43390  0.88180  0.13500  1.0000
  O   O11       1.0  0.06610  0.38180  0.36500  1.0000
  O   O12       1.0  0.93390  0.38180  0.13500  1.0000
  O   O13       1.0  0.43390  0.11820  0.63500  1.0000
  O   O14       1.0  0.56610  0.11820  0.86500  1.0000
  O   O15       1.0  0.93390  0.61820  0.63500  1.0000
  O   O16       1.0  0.06610  0.61820  0.86500  1.0000
  O   O17       1.0  0.39380  0.88820  0.30500  1.0000
  O   O18       1.0  0.60620  0.88820  0.19500  1.0000
  O   O19       1.0  0.89380  0.38820  0.30500  1.0000
  O   O20       1.0  0.10620  0.38820  0.19500  1.0000
  O   O21       1.0  0.60620  0.11180  0.69500  1.0000
  O   O22       1.0  0.39380  0.11180  0.80500  1.0000
  O   O23       1.0  0.10620  0.61180  0.69500  1.0000
  O   O24       1.0  0.89380  0.61180  0.80500  1.0000
  O   O25       1.0  0.02660  0.48140  0.36810  1.0000
  O   O26       1.0  0.97340  0.48140  0.13190  1.0000
  O   O27       1.0  0.52660  0.98140  0.36810  1.0000
  O   O28       1.0  0.47340  0.98140  0.13190  1.0000
  O   O29       1.0  0.97340  0.51860  0.63190  1.0000
  O   O30       1.0  0.02660  0.51860  0.86810  1.0000
  O   O31       1.0  0.47340  0.01860  0.63190  1.0000
  O   O32       1.0  0.52660  0.01860  0.86810  1.0000
  C   C1        1.0  0.47440  0.86990  0.35860  1.0000
  C   C2        1.0  0.52560  0.86990  0.14140  1.0000
  C   C3        1.0  0.97440  0.36990  0.35860  1.0000
  C   C4        1.0  0.02560  0.36990  0.14140  1.0000
  C   C5        1.0  0.52560  0.13010  0.64140  1.0000
  C   C6        1.0  0.47440  0.13010  0.85860  1.0000
  C   C7        1.0  0.02560  0.63010  0.64140  1.0000
  C   C8        1.0  0.97440  0.63010  0.85860  1.0000
  C   C9        1.0  0.47760  0.71710  0.65170  1.0000
  C   C10       1.0  0.52240  0.71710  0.84830  1.0000
  C   C11       1.0  0.97760  0.21710  0.65170  1.0000
  C   C12       1.0  0.02240  0.21710  0.84830  1.0000
  C   C13       1.0  0.52240  0.28290  0.34830  1.0000
  C   C14       1.0  0.47760  0.28290  0.15170  1.0000
  C   C15       1.0  0.02240  0.78290  0.34830  1.0000
  C   C16       1.0  0.97760  0.78290  0.15170  1.0000
  H   H1        1.0  0.51567  0.74250  0.68271  1.0000
  H   H2        1.0  0.48433  0.74250  0.81729  1.0000
  H   H3        1.0  0.01567  0.24250  0.68271  1.0000
  H   H4        1.0  0.98433  0.24250  0.81729  1.0000
  H   H5        1.0  0.48433  0.25750  0.31729  1.0000
  H   H6        1.0  0.51567  0.25750  0.18271  1.0000
  H   H7        1.0  0.98433  0.75750  0.31729  1.0000
  H   H8        1.0  0.01567  0.75750  0.18271  1.0000
  O   O33       1.0  0.32150  0.67870  0.41580  1.0000
  O   O34       1.0  0.67850  0.67870  0.08420  1.0000
  O   O35       1.0  0.82150  0.17870  0.41580  1.0000
  O   O36       1.0  0.17850  0.17870  0.08420  1.0000
  O   O37       1.0  0.67850  0.32130  0.58420  1.0000
  O   O38       1.0  0.32150  0.32130  0.91580  1.0000
  O   O39       1.0  0.17850  0.82130  0.58420  1.0000
  O   O40       1.0  0.82150  0.82130  0.91580  1.0000
  H   H9        1.0  0.25920  0.66724  0.39936  1.0000
  H   H10       1.0  0.74080  0.66724  0.10064  1.0000
  H   H11       1.0  0.75920  0.16724  0.39936  1.0000
  H   H12       1.0  0.24080  0.16724  0.10064  1.0000
  H   H13       1.0  0.74080  0.33276  0.60064  1.0000
  H   H14       1.0  0.25920  0.33276  0.89936  1.0000
  H   H15       1.0  0.24080  0.83276  0.60064  1.0000
  H   H16       1.0  0.75920  0.83276  0.89936  1.0000
  C   C17       1.0  0.12100  0.48820  0.36650  1.0000
  C   C18       1.0  0.87900  0.48820  0.13350  1.0000
  C   C19       1.0  0.62100  0.98820  0.36650  1.0000
  C   C20       1.0  0.37900  0.98820  0.13350  1.0000
  C   C21       1.0  0.87900  0.51180  0.63350  1.0000
  C   C22       1.0  0.12100  0.51180  0.86650  1.0000
  C   C23       1.0  0.37900  0.01180  0.63350  1.0000
  C   C24       1.0  0.62100  0.01180  0.86650  1.0000
  C   C25       1.0  0.35990  0.81240  0.39380  1.0000
  C   C26       1.0  0.64010  0.81240  0.10620  1.0000
  C   C27       1.0  0.85990  0.31240  0.39380  1.0000
  C   C28       1.0  0.14010  0.31240  0.10620  1.0000
  C   C29       1.0  0.64010  0.18760  0.60620  1.0000
  C   C30       1.0  0.35990  0.18760  0.89380  1.0000
  C   C31       1.0  0.14010  0.68760  0.60620  1.0000
  C   C32       1.0  0.85990  0.68760  0.89380  1.0000
  H   H17       1.0  0.29784  0.82450  0.34602  1.0000
  H   H18       1.0  0.70216  0.82450  0.15398  1.0000
  H   H19       1.0  0.79784  0.32450  0.34602  1.0000
  H   H20       1.0  0.20216  0.32450  0.15398  1.0000
  H   H21       1.0  0.70216  0.17550  0.65398  1.0000
  H   H22       1.0  0.29784  0.17550  0.84602  1.0000
  H   H23       1.0  0.20216  0.67550  0.65398  1.0000
  H   H24       1.0  0.79784  0.67550  0.84602  1.0000
  C   C33       1.0  0.41780  0.63940  0.65670  1.0000
  C   C34       1.0  0.58220  0.63940  0.84330  1.0000
  C   C35       1.0  0.91780  0.13940  0.65670  1.0000
  C   C36       1.0  0.08220  0.13940  0.84330  1.0000
  C   C37       1.0  0.58220  0.36060  0.34330  1.0000
  C   C38       1.0  0.41780  0.36060  0.15670  1.0000
  C   C39       1.0  0.08220  0.86060  0.34330  1.0000
  C   C40       1.0  0.91780  0.86060  0.15670  1.0000
  H   H25       1.0  0.41613  0.61373  0.69025  1.0000
  H   H26       1.0  0.58387  0.61373  0.80975  1.0000
  H   H27       1.0  0.91613  0.11373  0.69025  1.0000
  H   H28       1.0  0.08387  0.11373  0.80975  1.0000
  H   H29       1.0  0.58387  0.38627  0.30975  1.0000
  H   H30       1.0  0.41613  0.38627  0.19025  1.0000
  H   H31       1.0  0.08387  0.88627  0.30975  1.0000
  H   H32       1.0  0.91613  0.88627  0.19025  1.0000
  C   C41       1.0  0.34520  0.77630  0.43690  1.0000
  C   C42       1.0  0.65480  0.77630  0.06310  1.0000
  C   C43       1.0  0.84520  0.27630  0.43690  1.0000
  C   C44       1.0  0.15480  0.27630  0.06310  1.0000
  C   C45       1.0  0.65480  0.22370  0.56310  1.0000
  C   C46       1.0  0.34520  0.22370  0.93690  1.0000
  C   C47       1.0  0.15480  0.72370  0.56310  1.0000
  C   C48       1.0  0.84520  0.72370  0.93690  1.0000
  H   H33       1.0  0.27467  0.76378  0.42096  1.0000
  H   H34       1.0  0.72533  0.76378  0.07904  1.0000
  H   H35       1.0  0.77467  0.26378  0.42096  1.0000
  H   H36       1.0  0.22533  0.26378  0.07904  1.0000
  H   H37       1.0  0.72533  0.23622  0.57904  1.0000
  H   H38       1.0  0.27467  0.23622  0.92096  1.0000
  H   H39       1.0  0.22533  0.73622  0.57904  1.0000
  H   H40       1.0  0.77467  0.73622  0.92096  1.0000
  C   C49       1.0  0.45920  0.83290  0.41450  1.0000
  C   C50       1.0  0.54080  0.83290  0.08550  1.0000
  C   C51       1.0  0.95920  0.33290  0.41450  1.0000
  C   C52       1.0  0.04080  0.33290  0.08550  1.0000
  C   C53       1.0  0.54080  0.16710  0.58550  1.0000
  C   C54       1.0  0.45920  0.16710  0.91450  1.0000
  C   C55       1.0  0.04080  0.66710  0.58550  1.0000
  C   C56       1.0  0.95920  0.66710  0.91450  1.0000
  C   C57       1.0  0.47360  0.67970  0.70000  1.0000
  C   C58       1.0  0.52640  0.67970  0.80000  1.0000
  C   C59       1.0  0.97360  0.17970  0.70000  1.0000
  C   C60       1.0  0.02640  0.17970  0.80000  1.0000
  C   C61       1.0  0.52640  0.32030  0.30000  1.0000
  C   C62       1.0  0.47360  0.32030  0.20000  1.0000
  C   C63       1.0  0.02640  0.82030  0.30000  1.0000
  C   C64       1.0  0.97360  0.82030  0.20000  1.0000
  C   C65       1.0  0.42430  0.71670  0.55560  1.0000
  C   C66       1.0  0.57570  0.71670  0.94440  1.0000
  C   C67       1.0  0.92430  0.21670  0.55560  1.0000
  C   C68       1.0  0.07570  0.21670  0.94440  1.0000
  C   C69       1.0  0.57570  0.28330  0.44440  1.0000
  C   C70       1.0  0.42430  0.28330  0.05560  1.0000
  C   C71       1.0  0.07570  0.78330  0.44440  1.0000
  C   C72       1.0  0.92430  0.78330  0.05560  1.0000
  C   C73       1.0  0.36410  0.64210  0.55560  1.0000
  C   C74       1.0  0.63590  0.64210  0.94440  1.0000
  C   C75       1.0  0.86410  0.14210  0.55560  1.0000
  C   C76       1.0  0.13590  0.14210  0.94440  1.0000
  C   C77       1.0  0.63590  0.35790  0.44440  1.0000
  C   C78       1.0  0.36410  0.35790  0.05560  1.0000
  C   C79       1.0  0.13590  0.85790  0.44440  1.0000
  C   C80       1.0  0.86410  0.85790  0.05560  1.0000
  C   C81       1.0  0.43560  0.75800  0.50500  1.0000
  C   C82       1.0  0.56440  0.75800  0.99500  1.0000
  C   C83       1.0  0.93560  0.25800  0.50500  1.0000
  C   C84       1.0  0.06440  0.25800  0.99500  1.0000
  C   C85       1.0  0.56440  0.24200  0.49500  1.0000
  C   C86       1.0  0.43560  0.24200  0.00500  1.0000
  C   C87       1.0  0.06440  0.74200  0.49500  1.0000
  C   C88       1.0  0.93560  0.74200  0.00500  1.0000
  C   C89       1.0  0.36910  0.67920  0.50750  1.0000
  C   C90       1.0  0.63090  0.67920  0.99250  1.0000
  C   C91       1.0  0.86910  0.17920  0.50750  1.0000
  C   C92       1.0  0.13090  0.17920  0.99250  1.0000
  C   C93       1.0  0.63090  0.32080  0.49250  1.0000
  C   C94       1.0  0.36910  0.32080  0.00750  1.0000
  C   C95       1.0  0.13090  0.82080  0.49250  1.0000
  C   C96       1.0  0.86910  0.82080  0.00750  1.0000
  C   C97       1.0  0.16460  0.54400  0.49710  1.0000
  C   C98       1.0  0.83540  0.54400  0.00290  1.0000
  C   C99       1.0  0.66460  0.04400  0.49710  1.0000
  C   C100      1.0  0.33540  0.04400  0.00290  1.0000
  C   C101      1.0  0.83540  0.45600  0.50290  1.0000
  C   C102      1.0  0.16460  0.45600  0.99710  1.0000
  C   C103      1.0  0.33540  0.95600  0.50290  1.0000
  C   C104      1.0  0.66460  0.95600  0.99710  1.0000
  H   H41       1.0  0.11034  0.53141  0.51481  1.0000
  H   H42       1.0  0.88966  0.53141  0.98519  1.0000
  H   H43       1.0  0.61034  0.03141  0.51481  1.0000
  H   H44       1.0  0.38966  0.03141  0.98519  1.0000
  H   H45       1.0  0.88966  0.46859  0.48519  1.0000
  H   H46       1.0  0.11034  0.46859  0.01481  1.0000
  H   H47       1.0  0.38966  0.96859  0.48519  1.0000
  H   H48       1.0  0.61034  0.96859  0.01481  1.0000
  C   C105      1.0  0.55000  0.81500  0.48400  1.0000
  C   C106      1.0  0.45000  0.81500  0.01600  1.0000
  C   C107      1.0  0.05000  0.31500  0.48400  1.0000
  C   C108      1.0  0.95000  0.31500  0.01600  1.0000
  C   C109      1.0  0.45000  0.18500  0.51600  1.0000
  C   C110      1.0  0.55000  0.18500  0.98400  1.0000
  C   C111      1.0  0.95000  0.68500  0.51600  1.0000
  C   C112      1.0  0.05000  0.68500  0.98400  1.0000
  H   H49       1.0  0.62011  0.82814  0.50162  1.0000
  H   H50       1.0  0.37989  0.82814  0.99838  1.0000
  H   H51       1.0  0.12011  0.32814  0.50162  1.0000
  H   H52       1.0  0.87989  0.32814  0.99838  1.0000
  H   H53       1.0  0.37989  0.17186  0.49838  1.0000
  H   H54       1.0  0.62011  0.17186  0.00162  1.0000
  H   H55       1.0  0.87989  0.67186  0.49838  1.0000
  H   H56       1.0  0.12011  0.67186  0.00162  1.0000
  C   C113      1.0  0.53450  0.77720  0.52700  1.0000
  C   C114      1.0  0.46550  0.77720  0.97300  1.0000
  C   C115      1.0  0.03450  0.27720  0.52700  1.0000
  C   C116      1.0  0.96550  0.27720  0.97300  1.0000
  C   C117      1.0  0.46550  0.22280  0.47300  1.0000
  C   C118      1.0  0.53450  0.22280  0.02700  1.0000
  C   C119      1.0  0.96550  0.72280  0.47300  1.0000
  C   C120      1.0  0.03450  0.72280  0.02700  1.0000
  H   H57       1.0  0.59609  0.76423  0.57381  1.0000
  H   H58       1.0  0.40391  0.76423  0.92619  1.0000
  H   H59       1.0  0.09609  0.26423  0.57381  1.0000
  H   H60       1.0  0.90391  0.26423  0.92619  1.0000
  H   H61       1.0  0.40391  0.23577  0.42619  1.0000
  H   H62       1.0  0.59609  0.23577  0.07381  1.0000
  H   H63       1.0  0.90391  0.73577  0.42619  1.0000
  H   H64       1.0  0.09609  0.73577  0.07381  1.0000
  C   C121      1.0  0.30670  0.60130  0.51340  1.0000
  C   C122      1.0  0.69330  0.60130  0.98660  1.0000
  C   C123      1.0  0.80670  0.10130  0.51340  1.0000
  C   C124      1.0  0.19330  0.10130  0.98660  1.0000
  C   C125      1.0  0.69330  0.39870  0.48660  1.0000
  C   C126      1.0  0.30670  0.39870  0.01340  1.0000
  C   C127      1.0  0.19330  0.89870  0.48660  1.0000
  C   C128      1.0  0.80670  0.89870  0.01340  1.0000
  C   C129      1.0  0.18960  0.52550  0.42250  1.0000
  C   C130      1.0  0.81040  0.52550  0.07750  1.0000
  C   C131      1.0  0.68960  0.02550  0.42250  1.0000
  C   C132      1.0  0.31040  0.02550  0.07750  1.0000
  C   C133      1.0  0.81040  0.47450  0.57750  1.0000
  C   C134      1.0  0.18960  0.47450  0.92250  1.0000
  C   C135      1.0  0.31040  0.97450  0.57750  1.0000
  C   C136      1.0  0.68960  0.97450  0.92250  1.0000
  C   C137      1.0  0.22260  0.58000  0.54000  1.0000
  C   C138      1.0  0.77740  0.58000  0.96000  1.0000
  C   C139      1.0  0.72260  0.08000  0.54000  1.0000
  C   C140      1.0  0.27740  0.08000  0.96000  1.0000
  C   C141      1.0  0.77740  0.42000  0.46000  1.0000
  C   C142      1.0  0.22260  0.42000  0.04000  1.0000
  C   C143      1.0  0.27740  0.92000  0.46000  1.0000
  C   C144      1.0  0.72260  0.92000  0.04000  1.0000
  H   H65       1.0  0.20870  0.59221  0.58953  1.0000
  H   H66       1.0  0.79130  0.59221  0.91047  1.0000
  H   H67       1.0  0.70870  0.09221  0.58953  1.0000
  H   H68       1.0  0.29130  0.09221  0.91047  1.0000
  H   H69       1.0  0.79130  0.40779  0.41047  1.0000
  H   H70       1.0  0.20870  0.40779  0.08953  1.0000
  H   H71       1.0  0.29130  0.90779  0.41047  1.0000
  H   H72       1.0  0.70870  0.90779  0.08953  1.0000
  C   C145      1.0  0.33340  0.57910  0.45230  1.0000
  C   C146      1.0  0.66660  0.57910  0.04770  1.0000
  C   C147      1.0  0.83340  0.07910  0.45230  1.0000
  C   C148      1.0  0.16660  0.07910  0.04770  1.0000
  C   C149      1.0  0.66660  0.42090  0.54770  1.0000
  C   C150      1.0  0.33340  0.42090  0.95230  1.0000
  C   C151      1.0  0.16660  0.92090  0.54770  1.0000
  C   C152      1.0  0.83340  0.92090  0.95230  1.0000
  H   H73       1.0  0.39016  0.58984  0.43573  1.0000
  H   H74       1.0  0.60984  0.58984  0.06427  1.0000
  H   H75       1.0  0.89016  0.08984  0.43573  1.0000
  H   H76       1.0  0.10984  0.08984  0.06427  1.0000
  H   H77       1.0  0.60984  0.41016  0.56427  1.0000
  H   H78       1.0  0.39016  0.41016  0.93573  1.0000
  H   H79       1.0  0.10984  0.91016  0.56427  1.0000
  H   H80       1.0  0.89016  0.91016  0.93573  1.0000
  C   C153      1.0  0.27780  0.53930  0.41140  1.0000
  C   C154      1.0  0.72220  0.53930  0.08860  1.0000
  C   C155      1.0  0.77780  0.03930  0.41140  1.0000
  C   C156      1.0  0.22220  0.03930  0.08860  1.0000
  C   C157      1.0  0.72220  0.46070  0.58860  1.0000
  C   C158      1.0  0.27780  0.46070  0.91140  1.0000
  C   C159      1.0  0.22220  0.96070  0.58860  1.0000
  C   C160      1.0  0.77780  0.96070  0.91140  1.0000
  H   H81       1.0  0.30549  0.52223  0.37509  1.0000
  H   H82       1.0  0.69451  0.52223  0.12491  1.0000
  H   H83       1.0  0.80549  0.02223  0.37509  1.0000
  H   H84       1.0  0.19451  0.02223  0.12491  1.0000
  H   H85       1.0  0.69451  0.47777  0.62491  1.0000
  H   H86       1.0  0.30549  0.47777  0.87509  1.0000
  H   H87       1.0  0.19451  0.97777  0.62491  1.0000
  H   H88       1.0  0.80549  0.97777  0.87509  1.0000
