data_image0
_chemical_formula_structural       Dy4O28N4O4N4C4H8C4H4C16H4C24H4C4H4C4
_chemical_formula_sum              "Dy4 O32 N8 C56 H24"
_cell_length_a       9.1815
_cell_length_b       10.1647
_cell_length_c       21.7438
_cell_angle_alpha    90
_cell_angle_beta     99.809
_cell_angle_gamma    90

_space_group_name_H-M_alt    "P 1"
_space_group_IT_number       1

loop_
  _space_group_symop_operation_xyz
  'x, y, z'

loop_
  _atom_site_type_symbol
  _atom_site_label
  _atom_site_symmetry_multiplicity
  _atom_site_fract_x
  _atom_site_fract_y
  _atom_site_fract_z
  _atom_site_occupancy
  Dy  Dy1       1.0  0.11710  0.12670  0.56004  1.0000
  Dy  Dy2       1.0  0.88290  0.62670  0.93996  1.0000
  Dy  Dy3       1.0  0.88290  0.87330  0.43996  1.0000
  Dy  Dy4       1.0  0.11710  0.37330  0.06004  1.0000
  O   O1        1.0  0.89080  0.63800  0.46293  1.0000
  O   O2        1.0  0.10920  0.13800  0.03707  1.0000
  O   O3        1.0  0.10920  0.36200  0.53707  1.0000
  O   O4        1.0  0.89080  0.86200  0.96293  1.0000
  O   O5        1.0  0.16790  0.14180  0.45616  1.0000
  O   O6        1.0  0.83210  0.64180  0.04384  1.0000
  O   O7        1.0  0.83210  0.85820  0.54384  1.0000
  O   O8        1.0  0.16790  0.35820  0.95616  1.0000
  O   O9        1.0  0.69650  0.03650  0.44014  1.0000
  O   O10       1.0  0.30350  0.53650  0.05986  1.0000
  O   O11       1.0  0.30350  0.96350  0.55986  1.0000
  O   O12       1.0  0.69650  0.46350  0.94014  1.0000
  O   O13       1.0  0.67740  0.72940  0.42428  1.0000
  O   O14       1.0  0.32260  0.22940  0.07572  1.0000
  O   O15       1.0  0.32260  0.27060  0.57572  1.0000
  O   O16       1.0  0.67740  0.77060  0.92428  1.0000
  O   O17       1.0  0.23960  0.39200  0.17308  1.0000
  O   O18       1.0  0.76040  0.89200  0.32692  1.0000
  O   O19       1.0  0.76040  0.60800  0.82692  1.0000
  O   O20       1.0  0.23960  0.10800  0.67308  1.0000
  O   O21       1.0  0.05510  0.25370  0.14961  1.0000
  O   O22       1.0  0.94490  0.75370  0.35039  1.0000
  O   O23       1.0  0.94490  0.74630  0.85039  1.0000
  O   O24       1.0  0.05510  0.24630  0.64961  1.0000
  O   O25       1.0  0.00550  0.03100  0.38760  1.0000
  O   O26       1.0  0.99450  0.53100  0.11240  1.0000
  O   O27       1.0  0.99450  0.96900  0.61240  1.0000
  O   O28       1.0  0.00550  0.46900  0.88760  1.0000
  N   N1        1.0  0.22060  0.30930  0.35443  1.0000
  N   N2        1.0  0.77940  0.80930  0.14557  1.0000
  N   N3        1.0  0.77940  0.69070  0.64557  1.0000
  N   N4        1.0  0.22060  0.19070  0.85443  1.0000
  O   O29       1.0  0.88650  0.13100  0.49980  1.0000
  O   O30       1.0  0.11350  0.63100  0.00020  1.0000
  O   O31       1.0  0.11350  0.86900  0.50020  1.0000
  O   O32       1.0  0.88650  0.36900  0.99980  1.0000
  N   N5        1.0  0.23420  0.36060  0.29860  1.0000
  N   N6        1.0  0.76580  0.86060  0.20140  1.0000
  N   N7        1.0  0.76580  0.63940  0.70140  1.0000
  N   N8        1.0  0.23420  0.13940  0.79860  1.0000
  C   C1        1.0  0.27890  0.38510  0.41040  1.0000
  C   C2        1.0  0.72110  0.88510  0.08960  1.0000
  C   C3        1.0  0.72110  0.61490  0.58960  1.0000
  C   C4        1.0  0.27890  0.11490  0.91040  1.0000
  H   H1        1.0  0.23774  0.35070  0.44541  1.0000
  H   H2        1.0  0.76226  0.85070  0.05459  1.0000
  H   H3        1.0  0.76226  0.64930  0.55459  1.0000
  H   H4        1.0  0.23774  0.14930  0.94541  1.0000
  H   H5        1.0  0.24731  0.47592  0.40421  1.0000
  H   H6        1.0  0.75269  0.97592  0.09579  1.0000
  H   H7        1.0  0.75269  0.52408  0.59579  1.0000
  H   H8        1.0  0.24731  0.02408  0.90421  1.0000
  C   C5        1.0  0.52230  0.49800  0.42650  1.0000
  C   C6        1.0  0.47770  0.99800  0.07350  1.0000
  C   C7        1.0  0.47770  0.50200  0.57350  1.0000
  C   C8        1.0  0.52230  0.00200  0.92650  1.0000
  H   H9        1.0  0.47146  0.57601  0.41563  1.0000
  H   H10       1.0  0.52854  0.07601  0.08437  1.0000
  H   H11       1.0  0.52854  0.42399  0.58437  1.0000
  H   H12       1.0  0.47146  0.92399  0.91563  1.0000
  C   C9        1.0  0.75690  0.13580  0.46740  1.0000
  C   C10       1.0  0.24310  0.63580  0.03260  1.0000
  C   C11       1.0  0.24310  0.86420  0.53260  1.0000
  C   C12       1.0  0.75690  0.36420  0.96740  1.0000
  C   C13       1.0  0.67670  0.26680  0.45850  1.0000
  C   C14       1.0  0.32330  0.76680  0.04150  1.0000
  C   C15       1.0  0.32330  0.73320  0.54150  1.0000
  C   C16       1.0  0.67670  0.23320  0.95850  1.0000
  C   C17       1.0  0.44580  0.38090  0.42630  1.0000
  C   C18       1.0  0.55420  0.88090  0.07370  1.0000
  C   C19       1.0  0.55420  0.61910  0.57370  1.0000
  C   C20       1.0  0.44580  0.11910  0.92630  1.0000
  C   C21       1.0  0.75350  0.38210  0.46020  1.0000
  C   C22       1.0  0.24650  0.88210  0.03980  1.0000
  C   C23       1.0  0.24650  0.61790  0.53980  1.0000
  C   C24       1.0  0.75350  0.11790  0.96020  1.0000
  H   H13       1.0  0.85558  0.38276  0.47265  1.0000
  H   H14       1.0  0.14442  0.88276  0.02735  1.0000
  H   H15       1.0  0.14442  0.61724  0.52735  1.0000
  H   H16       1.0  0.85558  0.11724  0.97265  1.0000
  C   C25       1.0  0.75570  0.62840  0.44330  1.0000
  C   C26       1.0  0.24430  0.12840  0.05670  1.0000
  C   C27       1.0  0.24430  0.37160  0.55670  1.0000
  C   C28       1.0  0.75570  0.87160  0.94330  1.0000
  C   C29       1.0  0.10270  0.11910  0.40310  1.0000
  C   C30       1.0  0.89730  0.61910  0.09690  1.0000
  C   C31       1.0  0.89730  0.88090  0.59690  1.0000
  C   C32       1.0  0.10270  0.38090  0.90310  1.0000
  C   C33       1.0  0.14030  0.19630  0.34910  1.0000
  C   C34       1.0  0.85970  0.69630  0.15090  1.0000
  C   C35       1.0  0.85970  0.80370  0.65090  1.0000
  C   C36       1.0  0.14030  0.30370  0.84910  1.0000
  C   C37       1.0  0.15880  0.28060  0.25650  1.0000
  C   C38       1.0  0.84120  0.78060  0.24350  1.0000
  C   C39       1.0  0.84120  0.71940  0.74350  1.0000
  C   C40       1.0  0.15880  0.21940  0.75650  1.0000
  C   C41       1.0  0.15050  0.31060  0.18930  1.0000
  C   C42       1.0  0.84950  0.81060  0.31070  1.0000
  C   C43       1.0  0.84950  0.68940  0.81070  1.0000
  C   C44       1.0  0.15050  0.18940  0.68930  1.0000
  C   C45       1.0  0.52310  0.26460  0.44130  1.0000
  C   C46       1.0  0.47690  0.76460  0.05870  1.0000
  C   C47       1.0  0.47690  0.73540  0.55870  1.0000
  C   C48       1.0  0.52310  0.23540  0.94130  1.0000
  H   H17       1.0  0.47238  0.18517  0.44006  1.0000
  H   H18       1.0  0.52762  0.68517  0.05994  1.0000
  H   H19       1.0  0.52762  0.81483  0.55994  1.0000
  H   H20       1.0  0.47238  0.31483  0.94006  1.0000
  C   C49       1.0  0.09560  0.17590  0.28530  1.0000
  C   C50       1.0  0.90440  0.67590  0.21470  1.0000
  C   C51       1.0  0.90440  0.82410  0.71470  1.0000
  C   C52       1.0  0.09560  0.32410  0.78530  1.0000
  H   H21       1.0  0.03697  0.10803  0.26600  1.0000
  H   H22       1.0  0.96303  0.60803  0.23400  1.0000
  H   H23       1.0  0.96303  0.89197  0.73400  1.0000
  H   H24       1.0  0.03697  0.39197  0.76600  1.0000
  C   C53       1.0  0.67740  0.49910  0.44320  1.0000
  C   C54       1.0  0.32260  0.99910  0.05680  1.0000
  C   C55       1.0  0.32260  0.50090  0.55680  1.0000
  C   C56       1.0  0.67740  0.00090  0.94320  1.0000
