data_image0
_chemical_formula_structural       Er4C8H8C8H8C4H8C4H8C4H8C4H8C8H8C4N8O36H8
_chemical_formula_sum              "Er4 C44 H64 N8 O36"
_cell_length_a       12.7576
_cell_length_b       9.3151
_cell_length_c       14.3278
_cell_angle_alpha    90
_cell_angle_beta     96.138
_cell_angle_gamma    90

_space_group_name_H-M_alt    "P 1"
_space_group_IT_number       1

loop_
  _space_group_symop_operation_xyz
  'x, y, z'

loop_
  _atom_site_type_symbol
  _atom_site_label
  _atom_site_symmetry_multiplicity
  _atom_site_fract_x
  _atom_site_fract_y
  _atom_site_fract_z
  _atom_site_occupancy
  Er  Er1       1.0  0.09863  0.01146  0.20722  1.0000
  Er  Er2       1.0  0.40137  0.51146  0.29278  1.0000
  Er  Er3       1.0  0.90137  0.98854  0.79278  1.0000
  Er  Er4       1.0  0.59863  0.48854  0.70722  1.0000
  C   C1        1.0  0.14310  0.17970  0.39770  1.0000
  C   C2        1.0  0.35690  0.67970  0.10230  1.0000
  C   C3        1.0  0.85690  0.82030  0.60230  1.0000
  C   C4        1.0  0.64310  0.32030  0.89770  1.0000
  C   C5        1.0  0.05560  0.26950  0.34760  1.0000
  C   C6        1.0  0.44440  0.76950  0.15240  1.0000
  C   C7        1.0  0.94440  0.73050  0.65240  1.0000
  C   C8        1.0  0.55560  0.23050  0.84760  1.0000
  H   H1        1.0  0.02110  0.32440  0.39310  1.0000
  H   H2        1.0  0.47890  0.82440  0.10690  1.0000
  H   H3        1.0  0.97890  0.67560  0.60690  1.0000
  H   H4        1.0  0.52110  0.17560  0.89310  1.0000
  H   H5        1.0  0.08490  0.33640  0.30540  1.0000
  H   H6        1.0  0.41510  0.83640  0.19460  1.0000
  H   H7        1.0  0.91510  0.66360  0.69460  1.0000
  H   H8        1.0  0.58490  0.16360  0.80540  1.0000
  C   C9        1.0  0.98030  0.30300  0.14390  1.0000
  C   C10       1.0  0.51970  0.80300  0.35610  1.0000
  C   C11       1.0  0.01970  0.69700  0.85610  1.0000
  C   C12       1.0  0.48030  0.19700  0.64390  1.0000
  C   C13       1.0  0.91410  0.26090  0.22170  1.0000
  C   C14       1.0  0.58590  0.76090  0.27830  1.0000
  C   C15       1.0  0.08590  0.73910  0.77830  1.0000
  C   C16       1.0  0.41410  0.23910  0.72170  1.0000
  H   H9        1.0  0.88870  0.34660  0.25040  1.0000
  H   H10       1.0  0.61130  0.84660  0.24960  1.0000
  H   H11       1.0  0.11130  0.65340  0.74960  1.0000
  H   H12       1.0  0.38870  0.15340  0.75040  1.0000
  H   H13       1.0  0.85340  0.20580  0.19550  1.0000
  H   H14       1.0  0.64660  0.70580  0.30450  1.0000
  H   H15       1.0  0.14660  0.79420  0.80450  1.0000
  H   H16       1.0  0.35340  0.29420  0.69550  1.0000
  C   C17       1.0  0.90740  0.11480  0.36050  1.0000
  C   C18       1.0  0.59260  0.61480  0.13950  1.0000
  C   C19       1.0  0.09260  0.88520  0.63950  1.0000
  C   C20       1.0  0.40740  0.38520  0.86050  1.0000
  H   H17       1.0  0.85490  0.18650  0.37130  1.0000
  H   H18       1.0  0.64510  0.68650  0.12870  1.0000
  H   H19       1.0  0.14510  0.81350  0.62870  1.0000
  H   H20       1.0  0.35490  0.31350  0.87130  1.0000
  H   H21       1.0  0.94930  0.09730  0.42000  1.0000
  H   H22       1.0  0.55070  0.59730  0.08000  1.0000
  H   H23       1.0  0.05070  0.90270  0.58000  1.0000
  H   H24       1.0  0.44930  0.40270  0.92000  1.0000
  C   C21       1.0  0.85140  0.97780  0.32920  1.0000
  C   C22       1.0  0.64860  0.47780  0.17080  1.0000
  C   C23       1.0  0.14860  0.02220  0.67080  1.0000
  C   C24       1.0  0.35140  0.52220  0.82920  1.0000
  H   H25       1.0  0.82910  0.98450  0.26250  1.0000
  H   H26       1.0  0.67090  0.48450  0.23750  1.0000
  H   H27       1.0  0.17090  0.01550  0.73750  1.0000
  H   H28       1.0  0.32910  0.51550  0.76250  1.0000
  H   H29       1.0  0.78850  0.96930  0.36130  1.0000
  H   H30       1.0  0.71150  0.46930  0.13870  1.0000
  H   H31       1.0  0.21150  0.03070  0.63870  1.0000
  H   H32       1.0  0.28850  0.53070  0.86130  1.0000
  C   C25       1.0  0.91640  0.84210  0.34710  1.0000
  C   C26       1.0  0.58360  0.34210  0.15290  1.0000
  C   C27       1.0  0.08360  0.15790  0.65290  1.0000
  C   C28       1.0  0.41640  0.65790  0.84710  1.0000
  H   H33       1.0  0.95100  0.84680  0.41070  1.0000
  H   H34       1.0  0.54900  0.34680  0.08930  1.0000
  H   H35       1.0  0.04900  0.15320  0.58930  1.0000
  H   H36       1.0  0.45100  0.65320  0.91070  1.0000
  H   H37       1.0  0.86820  0.76130  0.34440  1.0000
  H   H38       1.0  0.63180  0.26130  0.15560  1.0000
  H   H39       1.0  0.13180  0.23870  0.65560  1.0000
  H   H40       1.0  0.36820  0.73870  0.84440  1.0000
  C   C29       1.0  0.07590  0.70870  0.33210  1.0000
  C   C30       1.0  0.42410  0.20870  0.16790  1.0000
  C   C31       1.0  0.92410  0.29130  0.66790  1.0000
  C   C32       1.0  0.57590  0.79130  0.83210  1.0000
  H   H41       1.0  0.04480  0.61370  0.33170  1.0000
  H   H42       1.0  0.45520  0.11370  0.16830  1.0000
  H   H43       1.0  0.95520  0.38630  0.66830  1.0000
  H   H44       1.0  0.54480  0.88630  0.83170  1.0000
  H   H45       1.0  0.09140  0.73840  0.39700  1.0000
  H   H46       1.0  0.40860  0.23840  0.10300  1.0000
  H   H47       1.0  0.90860  0.26160  0.60300  1.0000
  H   H48       1.0  0.59140  0.76160  0.89700  1.0000
  C   C33       1.0  0.17690  0.70210  0.28680  1.0000
  C   C34       1.0  0.32310  0.20210  0.21320  1.0000
  C   C35       1.0  0.82310  0.29790  0.71320  1.0000
  C   C36       1.0  0.67690  0.79790  0.78680  1.0000
  C   C37       1.0  0.94730  0.73930  0.19780  1.0000
  C   C38       1.0  0.55270  0.23930  0.30220  1.0000
  C   C39       1.0  0.05270  0.26070  0.80220  1.0000
  C   C40       1.0  0.44730  0.76070  0.69780  1.0000
  H   H49       1.0  0.89710  0.66910  0.21610  1.0000
  H   H50       1.0  0.60290  0.16910  0.28390  1.0000
  H   H51       1.0  0.10290  0.33090  0.78390  1.0000
  H   H52       1.0  0.39710  0.83090  0.71610  1.0000
  H   H53       1.0  0.00010  0.68860  0.16670  1.0000
  H   H54       1.0  0.49990  0.18860  0.33330  1.0000
  H   H55       1.0  0.99990  0.31140  0.83330  1.0000
  H   H56       1.0  0.50010  0.81140  0.66670  1.0000
  C   C41       1.0  0.89050  0.84470  0.12970  1.0000
  C   C42       1.0  0.60950  0.34470  0.37030  1.0000
  C   C43       1.0  0.10950  0.15530  0.87030  1.0000
  C   C44       1.0  0.39050  0.65530  0.62970  1.0000
  N   N1        1.0  0.97750  0.17450  0.29340  1.0000
  N   N2        1.0  0.52250  0.67450  0.20660  1.0000
  N   N3        1.0  0.02250  0.82550  0.70660  1.0000
  N   N4        1.0  0.47750  0.32550  0.79340  1.0000
  N   N5        1.0  0.99890  0.81020  0.28290  1.0000
  N   N6        1.0  0.50110  0.31020  0.21710  1.0000
  N   N7        1.0  0.00110  0.18980  0.71710  1.0000
  N   N8        1.0  0.49890  0.68980  0.78290  1.0000
  O   O1        1.0  0.15680  0.05620  0.36364  1.0000
  O   O2        1.0  0.34320  0.55620  0.13636  1.0000
  O   O3        1.0  0.84320  0.94380  0.63636  1.0000
  O   O4        1.0  0.65680  0.44380  0.86364  1.0000
  O   O5        1.0  0.19790  0.23160  0.46660  1.0000
  O   O6        1.0  0.30210  0.73160  0.03340  1.0000
  O   O7        1.0  0.80210  0.76840  0.53340  1.0000
  O   O8        1.0  0.69790  0.26840  0.96660  1.0000
  O   O9        1.0  0.05960  0.22490  0.13307  1.0000
  O   O10       1.0  0.44040  0.72490  0.36693  1.0000
  O   O11       1.0  0.94040  0.77510  0.86693  1.0000
  O   O12       1.0  0.55960  0.27510  0.63307  1.0000
  O   O13       1.0  0.95490  0.41010  0.09730  1.0000
  O   O14       1.0  0.54510  0.91010  0.40270  1.0000
  O   O15       1.0  0.04510  0.58990  0.90270  1.0000
  O   O16       1.0  0.45490  0.08990  0.59730  1.0000
  O   O17       1.0  0.93420  0.96680  0.12439  1.0000
  O   O18       1.0  0.56580  0.46680  0.37561  1.0000
  O   O19       1.0  0.06580  0.03320  0.87561  1.0000
  O   O20       1.0  0.43420  0.53320  0.62439  1.0000
  O   O21       1.0  0.80730  0.80800  0.08350  1.0000
  O   O22       1.0  0.69270  0.30800  0.41650  1.0000
  O   O23       1.0  0.19270  0.19200  0.91650  1.0000
  O   O24       1.0  0.30730  0.69200  0.58350  1.0000
  O   O25       1.0  0.19895  0.80510  0.23553  1.0000
  O   O26       1.0  0.30105  0.30510  0.26447  1.0000
  O   O27       1.0  0.80105  0.19490  0.76447  1.0000
  O   O28       1.0  0.69895  0.69490  0.73553  1.0000
  O   O29       1.0  0.23400  0.59520  0.30618  1.0000
  O   O30       1.0  0.26600  0.09520  0.19382  1.0000
  O   O31       1.0  0.76600  0.40480  0.69382  1.0000
  O   O32       1.0  0.73400  0.90480  0.80618  1.0000
  O   O33       1.0  0.13030  0.91680  0.05916  1.0000
  O   O34       1.0  0.36970  0.41680  0.44084  1.0000
  O   O35       1.0  0.86970  0.08320  0.94084  1.0000
  O   O36       1.0  0.63030  0.58320  0.55916  1.0000
  H   H57       1.0  0.17990  0.85900  0.05060  1.0000
  H   H58       1.0  0.32010  0.35900  0.44940  1.0000
  H   H59       1.0  0.82010  0.14100  0.94940  1.0000
  H   H60       1.0  0.67990  0.64100  0.55060  1.0000
  H   H61       1.0  0.11890  0.96220  0.00760  1.0000
  H   H62       1.0  0.38110  0.46220  0.49240  1.0000
  H   H63       1.0  0.88110  0.03780  0.99240  1.0000
  H   H64       1.0  0.61890  0.53780  0.50760  1.0000
