data_image0
_chemical_formula_structural       W48Co8B4O160C16H8C8H8C8H8C8H8C8H8C8H8C8H8C16H8C8H8N16C8H8N16
_chemical_formula_sum              "W48 Co8 B4 O160 C96 H80 N32"
_cell_length_a       26.78
_cell_length_b       19.963
_cell_length_c       12.98
_cell_angle_alpha    90
_cell_angle_beta     90
_cell_angle_gamma    90

_space_group_name_H-M_alt    "P 1"
_space_group_IT_number       1

loop_
  _space_group_symop_operation_xyz
  'x, y, z'

loop_
  _atom_site_type_symbol
  _atom_site_label
  _atom_site_symmetry_multiplicity
  _atom_site_fract_x
  _atom_site_fract_y
  _atom_site_fract_z
  _atom_site_occupancy
  W   W1        1.0  0.15367  0.25000  0.25651  1.0000
  W   W2        1.0  0.34633  0.75000  0.75651  1.0000
  W   W3        1.0  0.65367  0.25000  0.24349  1.0000
  W   W4        1.0  0.84633  0.75000  0.74349  1.0000
  W   W5        1.0  0.15436  0.16726  0.47766  1.0000
  W   W6        1.0  0.34564  0.83274  0.97766  1.0000
  W   W7        1.0  0.65436  0.33274  0.02234  1.0000
  W   W8        1.0  0.84564  0.66726  0.52234  1.0000
  W   W9        1.0  0.84564  0.83274  0.52234  1.0000
  W   W10       1.0  0.65436  0.16726  0.02234  1.0000
  W   W11       1.0  0.34564  0.66726  0.97766  1.0000
  W   W12       1.0  0.15436  0.33274  0.47766  1.0000
  W   W13       1.0  0.36756  0.25000  0.56014  1.0000
  W   W14       1.0  0.13244  0.75000  0.06014  1.0000
  W   W15       1.0  0.86756  0.25000  0.93986  1.0000
  W   W16       1.0  0.63244  0.75000  0.43986  1.0000
  W   W17       1.0  0.26523  0.07694  0.39263  1.0000
  W   W18       1.0  0.23477  0.92306  0.89263  1.0000
  W   W19       1.0  0.76523  0.42306  0.10737  1.0000
  W   W20       1.0  0.73477  0.57694  0.60737  1.0000
  W   W21       1.0  0.73477  0.92306  0.60737  1.0000
  W   W22       1.0  0.76523  0.07694  0.10737  1.0000
  W   W23       1.0  0.23477  0.57694  0.89263  1.0000
  W   W24       1.0  0.26523  0.42306  0.39263  1.0000
  W   W25       1.0  0.26661  0.16761  0.63458  1.0000
  W   W26       1.0  0.23339  0.83239  0.13458  1.0000
  W   W27       1.0  0.76661  0.33239  0.86542  1.0000
  W   W28       1.0  0.73339  0.66761  0.36542  1.0000
  W   W29       1.0  0.73339  0.83239  0.36542  1.0000
  W   W30       1.0  0.76661  0.16761  0.86542  1.0000
  W   W31       1.0  0.23339  0.66761  0.13458  1.0000
  W   W32       1.0  0.26661  0.33239  0.63458  1.0000
  W   W33       1.0  0.26503  0.15932  0.17322  1.0000
  W   W34       1.0  0.23497  0.84068  0.67322  1.0000
  W   W35       1.0  0.76503  0.34068  0.32678  1.0000
  W   W36       1.0  0.73497  0.65932  0.82678  1.0000
  W   W37       1.0  0.73497  0.84068  0.82678  1.0000
  W   W38       1.0  0.76503  0.15932  0.32678  1.0000
  W   W39       1.0  0.23497  0.65932  0.67322  1.0000
  W   W40       1.0  0.26503  0.34068  0.17322  1.0000
  W   W41       1.0  0.36667  0.15871  0.31769  1.0000
  W   W42       1.0  0.13333  0.84129  0.81769  1.0000
  W   W43       1.0  0.86667  0.34129  0.18231  1.0000
  W   W44       1.0  0.63333  0.65871  0.68231  1.0000
  W   W45       1.0  0.63333  0.84129  0.68231  1.0000
  W   W46       1.0  0.86667  0.15871  0.18231  1.0000
  W   W47       1.0  0.13333  0.65871  0.81769  1.0000
  W   W48       1.0  0.36667  0.34129  0.31769  1.0000
  Co  Co1       1.0  0.24085  0.89105  0.39910  1.0000
  Co  Co2       1.0  0.25915  0.10895  0.89910  1.0000
  Co  Co3       1.0  0.74085  0.60895  0.10090  1.0000
  Co  Co4       1.0  0.75915  0.39105  0.60090  1.0000
  Co  Co5       1.0  0.75915  0.10895  0.60090  1.0000
  Co  Co6       1.0  0.74085  0.89105  0.10090  1.0000
  Co  Co7       1.0  0.25915  0.39105  0.89910  1.0000
  Co  Co8       1.0  0.24085  0.60895  0.39910  1.0000
  B   B1        1.0  0.26280  0.25000  0.40100  1.0000
  B   B2        1.0  0.23720  0.75000  0.90100  1.0000
  B   B3        1.0  0.76280  0.25000  0.09900  1.0000
  B   B4        1.0  0.73720  0.75000  0.59900  1.0000
  O   O1        1.0  0.12580  0.25000  0.52060  1.0000
  O   O2        1.0  0.37420  0.75000  0.02060  1.0000
  O   O3        1.0  0.62580  0.25000  0.97940  1.0000
  O   O4        1.0  0.87420  0.75000  0.47940  1.0000
  O   O5        1.0  0.19880  0.10620  0.41150  1.0000
  O   O6        1.0  0.30120  0.89380  0.91150  1.0000
  O   O7        1.0  0.69880  0.39380  0.08850  1.0000
  O   O8        1.0  0.80120  0.60620  0.58850  1.0000
  O   O9        1.0  0.80120  0.89380  0.58850  1.0000
  O   O10       1.0  0.69880  0.10620  0.08850  1.0000
  O   O11       1.0  0.30120  0.60620  0.91150  1.0000
  O   O12       1.0  0.19880  0.39380  0.41150  1.0000
  O   O13       1.0  0.37590  0.18240  0.45590  1.0000
  O   O14       1.0  0.12410  0.81760  0.95590  1.0000
  O   O15       1.0  0.87590  0.31760  0.04410  1.0000
  O   O16       1.0  0.62410  0.68240  0.54410  1.0000
  O   O17       1.0  0.62410  0.81760  0.54410  1.0000
  O   O18       1.0  0.87590  0.18240  0.04410  1.0000
  O   O19       1.0  0.12410  0.68240  0.95590  1.0000
  O   O20       1.0  0.37590  0.31760  0.45590  1.0000
  O   O21       1.0  0.25520  0.25000  0.70710  1.0000
  O   O22       1.0  0.24480  0.75000  0.20710  1.0000
  O   O23       1.0  0.75520  0.25000  0.79290  1.0000
  O   O24       1.0  0.74480  0.75000  0.29290  1.0000
  O   O25       1.0  0.23890  0.88410  0.23740  1.0000
  O   O26       1.0  0.26110  0.11590  0.73740  1.0000
  O   O27       1.0  0.73890  0.61590  0.26260  1.0000
  O   O28       1.0  0.76110  0.38410  0.76260  1.0000
  O   O29       1.0  0.76110  0.11590  0.76260  1.0000
  O   O30       1.0  0.73890  0.88410  0.26260  1.0000
  O   O31       1.0  0.26110  0.38410  0.73740  1.0000
  O   O32       1.0  0.23890  0.61590  0.23740  1.0000
  O   O33       1.0  0.24250  0.87190  0.55300  1.0000
  O   O34       1.0  0.25750  0.12810  0.05300  1.0000
  O   O35       1.0  0.74250  0.62810  0.94700  1.0000
  O   O36       1.0  0.75750  0.37190  0.44700  1.0000
  O   O37       1.0  0.75750  0.12810  0.44700  1.0000
  O   O38       1.0  0.74250  0.87190  0.94700  1.0000
  O   O39       1.0  0.25750  0.37190  0.05300  1.0000
  O   O40       1.0  0.24250  0.62810  0.55300  1.0000
  O   O41       1.0  0.42550  0.25000  0.61620  1.0000
  O   O42       1.0  0.07450  0.75000  0.11620  1.0000
  O   O43       1.0  0.92550  0.25000  0.88380  1.0000
  O   O44       1.0  0.57450  0.75000  0.38380  1.0000
  O   O45       1.0  0.20060  0.16950  0.58830  1.0000
  O   O46       1.0  0.29940  0.83050  0.08830  1.0000
  O   O47       1.0  0.70060  0.33050  0.91170  1.0000
  O   O48       1.0  0.79940  0.66950  0.41170  1.0000
  O   O49       1.0  0.79940  0.83050  0.41170  1.0000
  O   O50       1.0  0.70060  0.16950  0.91170  1.0000
  O   O51       1.0  0.29940  0.66950  0.08830  1.0000
  O   O52       1.0  0.20060  0.33050  0.58830  1.0000
  O   O53       1.0  0.33650  0.18430  0.64430  1.0000
  O   O54       1.0  0.16350  0.81570  0.14430  1.0000
  O   O55       1.0  0.83650  0.31570  0.85570  1.0000
  O   O56       1.0  0.66350  0.68430  0.35570  1.0000
  O   O57       1.0  0.66350  0.81570  0.35570  1.0000
  O   O58       1.0  0.83650  0.18430  0.85570  1.0000
  O   O59       1.0  0.16350  0.68430  0.14430  1.0000
  O   O60       1.0  0.33650  0.31570  0.64430  1.0000
  O   O61       1.0  0.33630  0.07790  0.36500  1.0000
  O   O62       1.0  0.16370  0.92210  0.86500  1.0000
  O   O63       1.0  0.83630  0.42210  0.13500  1.0000
  O   O64       1.0  0.66370  0.57790  0.63500  1.0000
  O   O65       1.0  0.66370  0.92210  0.63500  1.0000
  O   O66       1.0  0.83630  0.07790  0.13500  1.0000
  O   O67       1.0  0.16370  0.57790  0.86500  1.0000
  O   O68       1.0  0.33630  0.42210  0.36500  1.0000
  O   O69       1.0  0.19920  0.18480  0.20300  1.0000
  O   O70       1.0  0.30080  0.81520  0.70300  1.0000
  O   O71       1.0  0.69920  0.31520  0.29700  1.0000
  O   O72       1.0  0.80080  0.68480  0.79700  1.0000
  O   O73       1.0  0.80080  0.81520  0.79700  1.0000
  O   O74       1.0  0.69920  0.18480  0.29700  1.0000
  O   O75       1.0  0.30080  0.68480  0.70300  1.0000
  O   O76       1.0  0.19920  0.31520  0.20300  1.0000
  O   O77       1.0  0.42420  0.12740  0.28900  1.0000
  O   O78       1.0  0.07580  0.87260  0.78900  1.0000
  O   O79       1.0  0.92420  0.37260  0.21100  1.0000
  O   O80       1.0  0.57580  0.62740  0.71100  1.0000
  O   O81       1.0  0.57580  0.87260  0.71100  1.0000
  O   O82       1.0  0.92420  0.12740  0.21100  1.0000
  O   O83       1.0  0.07580  0.62740  0.78900  1.0000
  O   O84       1.0  0.42420  0.37260  0.28900  1.0000
  O   O85       1.0  0.12620  0.18230  0.34380  1.0000
  O   O86       1.0  0.37380  0.81770  0.84380  1.0000
  O   O87       1.0  0.62620  0.31770  0.15620  1.0000
  O   O88       1.0  0.87380  0.68230  0.65620  1.0000
  O   O89       1.0  0.87380  0.81770  0.65620  1.0000
  O   O90       1.0  0.62620  0.18230  0.15620  1.0000
  O   O91       1.0  0.37380  0.68230  0.84380  1.0000
  O   O92       1.0  0.12620  0.31770  0.34380  1.0000
  O   O93       1.0  0.33550  0.14520  0.18800  1.0000
  O   O94       1.0  0.16450  0.85480  0.68800  1.0000
  O   O95       1.0  0.83550  0.35480  0.31200  1.0000
  O   O96       1.0  0.66450  0.64520  0.81200  1.0000
  O   O97       1.0  0.66450  0.85480  0.81200  1.0000
  O   O98       1.0  0.83550  0.14520  0.31200  1.0000
  O   O99       1.0  0.16450  0.64520  0.68800  1.0000
  O   O100      1.0  0.33550  0.35480  0.18800  1.0000
  O   O101      1.0  0.27820  0.10570  0.52970  1.0000
  O   O102      1.0  0.22180  0.89430  0.02970  1.0000
  O   O103      1.0  0.77820  0.39430  0.97030  1.0000
  O   O104      1.0  0.72180  0.60570  0.47030  1.0000
  O   O105      1.0  0.72180  0.89430  0.47030  1.0000
  O   O106      1.0  0.77820  0.10570  0.97030  1.0000
  O   O107      1.0  0.22180  0.60570  0.02970  1.0000
  O   O108      1.0  0.27820  0.39430  0.52970  1.0000
  O   O109      1.0  0.11050  0.11440  0.52390  1.0000
  O   O110      1.0  0.38950  0.88560  0.02390  1.0000
  O   O111      1.0  0.61050  0.38560  0.97610  1.0000
  O   O112      1.0  0.88950  0.61440  0.47610  1.0000
  O   O113      1.0  0.88950  0.88560  0.47610  1.0000
  O   O114      1.0  0.61050  0.11440  0.97610  1.0000
  O   O115      1.0  0.38950  0.61440  0.02390  1.0000
  O   O116      1.0  0.11050  0.38560  0.52390  1.0000
  O   O117      1.0  0.25430  0.07800  0.24800  1.0000
  O   O118      1.0  0.24570  0.92200  0.74800  1.0000
  O   O119      1.0  0.75430  0.42200  0.25200  1.0000
  O   O120      1.0  0.74570  0.57800  0.75200  1.0000
  O   O121      1.0  0.74570  0.92200  0.75200  1.0000
  O   O122      1.0  0.75430  0.07800  0.25200  1.0000
  O   O123      1.0  0.24570  0.57800  0.74800  1.0000
  O   O124      1.0  0.25430  0.42200  0.24800  1.0000
  O   O125      1.0  0.28250  0.25000  0.51330  1.0000
  O   O126      1.0  0.21750  0.75000  0.01330  1.0000
  O   O127      1.0  0.78250  0.25000  0.98670  1.0000
  O   O128      1.0  0.71750  0.75000  0.48670  1.0000
  O   O129      1.0  0.20630  0.25000  0.40280  1.0000
  O   O130      1.0  0.29370  0.75000  0.90280  1.0000
  O   O131      1.0  0.70630  0.25000  0.09720  1.0000
  O   O132      1.0  0.79370  0.75000  0.59720  1.0000
  O   O133      1.0  0.37580  0.25000  0.28200  1.0000
  O   O134      1.0  0.12420  0.75000  0.78200  1.0000
  O   O135      1.0  0.87580  0.25000  0.21800  1.0000
  O   O136      1.0  0.62420  0.75000  0.71800  1.0000
  O   O137      1.0  0.27770  0.25000  0.14280  1.0000
  O   O138      1.0  0.22230  0.75000  0.64280  1.0000
  O   O139      1.0  0.77770  0.25000  0.35720  1.0000
  O   O140      1.0  0.72230  0.75000  0.85720  1.0000
  O   O141      1.0  0.28140  0.18680  0.34500  1.0000
  O   O142      1.0  0.21860  0.81320  0.84500  1.0000
  O   O143      1.0  0.78140  0.31320  0.15500  1.0000
  O   O144      1.0  0.71860  0.68680  0.65500  1.0000
  O   O145      1.0  0.71860  0.81320  0.65500  1.0000
  O   O146      1.0  0.78140  0.18680  0.15500  1.0000
  O   O147      1.0  0.21860  0.68680  0.84500  1.0000
  O   O148      1.0  0.28140  0.31320  0.34500  1.0000
  O   O149      1.0  0.25800  0.99220  0.41080  1.0000
  O   O150      1.0  0.24200  0.00780  0.91080  1.0000
  O   O151      1.0  0.75800  0.50780  0.08920  1.0000
  O   O152      1.0  0.74200  0.49220  0.58920  1.0000
  O   O153      1.0  0.74200  0.00780  0.58920  1.0000
  O   O154      1.0  0.75800  0.99220  0.08920  1.0000
  O   O155      1.0  0.24200  0.49220  0.91080  1.0000
  O   O156      1.0  0.25800  0.50780  0.41080  1.0000
  O   O157      1.0  0.11080  0.25000  0.15960  1.0000
  O   O158      1.0  0.38920  0.75000  0.65960  1.0000
  O   O159      1.0  0.61080  0.25000  0.34040  1.0000
  O   O160      1.0  0.88920  0.75000  0.84040  1.0000
  C   C1        1.0  0.03410  0.91730  0.31430  1.0000
  C   C2        1.0  0.46590  0.08270  0.81430  1.0000
  C   C3        1.0  0.53410  0.58270  0.18570  1.0000
  C   C4        1.0  0.96590  0.41730  0.68570  1.0000
  C   C5        1.0  0.96590  0.08270  0.68570  1.0000
  C   C6        1.0  0.53410  0.91730  0.18570  1.0000
  C   C7        1.0  0.46590  0.41730  0.81430  1.0000
  C   C8        1.0  0.03410  0.58270  0.31430  1.0000
  C   C9        1.0  0.02640  0.85650  0.26240  1.0000
  C   C10       1.0  0.47360  0.14350  0.76240  1.0000
  C   C11       1.0  0.52640  0.64350  0.23760  1.0000
  C   C12       1.0  0.97360  0.35650  0.73760  1.0000
  C   C13       1.0  0.97360  0.14350  0.73760  1.0000
  C   C14       1.0  0.52640  0.85650  0.23760  1.0000
  C   C15       1.0  0.47360  0.35650  0.76240  1.0000
  C   C16       1.0  0.02640  0.64350  0.26240  1.0000
  H   H1        1.0  0.05010  0.82240  0.26470  1.0000
  H   H2        1.0  0.44990  0.17760  0.76470  1.0000
  H   H3        1.0  0.55010  0.67760  0.23530  1.0000
  H   H4        1.0  0.94990  0.32240  0.73530  1.0000
  H   H5        1.0  0.94990  0.17760  0.73530  1.0000
  H   H6        1.0  0.55010  0.82240  0.23530  1.0000
  H   H7        1.0  0.44990  0.32240  0.76470  1.0000
  H   H8        1.0  0.05010  0.67760  0.26470  1.0000
  C   C17       1.0  0.99830  0.96710  0.31470  1.0000
  C   C18       1.0  0.50170  0.03290  0.81470  1.0000
  C   C19       1.0  0.49830  0.53290  0.18530  1.0000
  C   C20       1.0  0.00170  0.46710  0.68530  1.0000
  C   C21       1.0  0.00170  0.03290  0.68530  1.0000
  C   C22       1.0  0.49830  0.96710  0.18530  1.0000
  C   C23       1.0  0.50170  0.46710  0.81470  1.0000
  C   C24       1.0  0.99830  0.53290  0.31470  1.0000
  H   H9        1.0  0.00350  0.00690  0.35040  1.0000
  H   H10       1.0  0.49650  0.99310  0.85040  1.0000
  H   H11       1.0  0.50350  0.49310  0.14960  1.0000
  H   H12       1.0  0.99650  0.50690  0.64960  1.0000
  H   H13       1.0  0.99650  0.99310  0.64960  1.0000
  H   H14       1.0  0.50350  0.00690  0.14960  1.0000
  H   H15       1.0  0.49650  0.50690  0.85040  1.0000
  H   H16       1.0  0.00350  0.49310  0.35040  1.0000
  C   C25       1.0  0.08730  0.96590  0.44400  1.0000
  C   C26       1.0  0.41270  0.03410  0.94400  1.0000
  C   C27       1.0  0.58730  0.53410  0.05600  1.0000
  C   C28       1.0  0.91270  0.46590  0.55600  1.0000
  C   C29       1.0  0.91270  0.03410  0.55600  1.0000
  C   C30       1.0  0.58730  0.96590  0.05600  1.0000
  C   C31       1.0  0.41270  0.46590  0.94400  1.0000
  C   C32       1.0  0.08730  0.53410  0.44400  1.0000
  H   H17       1.0  0.06300  0.99080  0.47730  1.0000
  H   H18       1.0  0.43700  0.00920  0.97730  1.0000
  H   H19       1.0  0.56300  0.50920  0.02270  1.0000
  H   H20       1.0  0.93700  0.49080  0.52270  1.0000
  H   H21       1.0  0.93700  0.00920  0.52270  1.0000
  H   H22       1.0  0.56300  0.99080  0.02270  1.0000
  H   H23       1.0  0.43700  0.49080  0.97730  1.0000
  H   H24       1.0  0.06300  0.50920  0.47730  1.0000
  C   C33       1.0  0.13780  0.96200  0.47100  1.0000
  C   C34       1.0  0.36220  0.03800  0.97100  1.0000
  C   C35       1.0  0.63780  0.53800  0.02900  1.0000
  C   C36       1.0  0.86220  0.46200  0.52900  1.0000
  C   C37       1.0  0.86220  0.03800  0.52900  1.0000
  C   C38       1.0  0.63780  0.96200  0.02900  1.0000
  C   C39       1.0  0.36220  0.46200  0.97100  1.0000
  C   C40       1.0  0.13780  0.53800  0.47100  1.0000
  H   H25       1.0  0.15250  0.98560  0.52490  1.0000
  H   H26       1.0  0.34750  0.01440  0.02490  1.0000
  H   H27       1.0  0.65250  0.51440  0.97510  1.0000
  H   H28       1.0  0.84750  0.48560  0.47510  1.0000
  H   H29       1.0  0.84750  0.01440  0.47510  1.0000
  H   H30       1.0  0.65250  0.98560  0.97510  1.0000
  H   H31       1.0  0.34750  0.48560  0.02490  1.0000
  H   H32       1.0  0.15250  0.51440  0.52490  1.0000
  C   C41       1.0  0.12470  0.90110  0.33340  1.0000
  C   C42       1.0  0.37530  0.09890  0.83340  1.0000
  C   C43       1.0  0.62470  0.59890  0.16660  1.0000
  C   C44       1.0  0.87530  0.40110  0.66660  1.0000
  C   C45       1.0  0.87530  0.09890  0.66660  1.0000
  C   C46       1.0  0.62470  0.90110  0.16660  1.0000
  C   C47       1.0  0.37530  0.40110  0.83340  1.0000
  C   C48       1.0  0.12470  0.59890  0.33340  1.0000
  H   H33       1.0  0.12920  0.87520  0.27460  1.0000
  H   H34       1.0  0.37080  0.12480  0.77460  1.0000
  H   H35       1.0  0.62920  0.62480  0.22540  1.0000
  H   H36       1.0  0.87080  0.37520  0.72540  1.0000
  H   H37       1.0  0.87080  0.12480  0.72540  1.0000
  H   H38       1.0  0.62920  0.87520  0.22540  1.0000
  H   H39       1.0  0.37080  0.37520  0.77460  1.0000
  H   H40       1.0  0.12920  0.62480  0.27460  1.0000
  C   C49       1.0  0.98120  0.84900  0.20600  1.0000
  C   C50       1.0  0.51880  0.15100  0.70600  1.0000
  C   C51       1.0  0.48120  0.65100  0.29400  1.0000
  C   C52       1.0  0.01880  0.34900  0.79400  1.0000
  C   C53       1.0  0.01880  0.15100  0.79400  1.0000
  C   C54       1.0  0.48120  0.84900  0.29400  1.0000
  C   C55       1.0  0.51880  0.34900  0.70600  1.0000
  C   C56       1.0  0.98120  0.65100  0.20600  1.0000
  H   H41       1.0  0.97630  0.81070  0.16670  1.0000
  H   H42       1.0  0.52370  0.18930  0.66670  1.0000
  H   H43       1.0  0.47630  0.68930  0.33330  1.0000
  H   H44       1.0  0.02370  0.31070  0.83330  1.0000
  H   H45       1.0  0.02370  0.18930  0.83330  1.0000
  H   H46       1.0  0.47630  0.81070  0.33330  1.0000
  H   H47       1.0  0.52370  0.31070  0.66670  1.0000
  H   H48       1.0  0.97630  0.68930  0.16670  1.0000
  C   C57       1.0  0.95240  0.95580  0.25780  1.0000
  C   C58       1.0  0.54760  0.04420  0.75780  1.0000
  C   C59       1.0  0.45240  0.54420  0.24220  1.0000
  C   C60       1.0  0.04760  0.45580  0.74220  1.0000
  C   C61       1.0  0.04760  0.04420  0.74220  1.0000
  C   C62       1.0  0.45240  0.95580  0.24220  1.0000
  C   C63       1.0  0.54760  0.45580  0.75780  1.0000
  C   C64       1.0  0.95240  0.54420  0.25780  1.0000
  H   H49       1.0  0.92790  0.98880  0.25450  1.0000
  H   H50       1.0  0.57210  0.01120  0.75450  1.0000
  H   H51       1.0  0.42790  0.51120  0.24550  1.0000
  H   H52       1.0  0.07210  0.48880  0.74550  1.0000
  H   H53       1.0  0.07210  0.01120  0.74550  1.0000
  H   H54       1.0  0.42790  0.98880  0.24550  1.0000
  H   H55       1.0  0.57210  0.48880  0.75450  1.0000
  H   H56       1.0  0.92790  0.51120  0.25450  1.0000
  C   C65       1.0  0.94580  0.89540  0.20910  1.0000
  C   C66       1.0  0.55420  0.10460  0.70910  1.0000
  C   C67       1.0  0.44580  0.60460  0.29090  1.0000
  C   C68       1.0  0.05420  0.39540  0.79090  1.0000
  C   C69       1.0  0.05420  0.10460  0.79090  1.0000
  C   C70       1.0  0.44580  0.89540  0.29090  1.0000
  C   C71       1.0  0.55420  0.39540  0.70910  1.0000
  C   C72       1.0  0.94580  0.60460  0.20910  1.0000
  C   C73       1.0  0.85330  0.90150  0.18000  1.0000
  C   C74       1.0  0.64670  0.09850  0.68000  1.0000
  C   C75       1.0  0.35330  0.59850  0.32000  1.0000
  C   C76       1.0  0.14670  0.40150  0.82000  1.0000
  C   C77       1.0  0.14670  0.09850  0.82000  1.0000
  C   C78       1.0  0.35330  0.90150  0.32000  1.0000
  C   C79       1.0  0.64670  0.40150  0.68000  1.0000
  C   C80       1.0  0.85330  0.59850  0.18000  1.0000
  H   H57       1.0  0.84470  0.92580  0.23850  1.0000
  H   H58       1.0  0.65530  0.07420  0.73850  1.0000
  H   H59       1.0  0.34470  0.57420  0.26150  1.0000
  H   H60       1.0  0.15530  0.42580  0.76150  1.0000
  H   H61       1.0  0.15530  0.07420  0.76150  1.0000
  H   H62       1.0  0.34470  0.92580  0.26150  1.0000
  H   H63       1.0  0.65530  0.42580  0.73850  1.0000
  H   H64       1.0  0.84470  0.57420  0.23850  1.0000
  C   C81       1.0  0.89810  0.84470  0.06510  1.0000
  C   C82       1.0  0.60190  0.15530  0.56510  1.0000
  C   C83       1.0  0.39810  0.65530  0.43490  1.0000
  C   C84       1.0  0.10190  0.34470  0.93490  1.0000
  C   C85       1.0  0.10190  0.15530  0.93490  1.0000
  C   C86       1.0  0.39810  0.84470  0.43490  1.0000
  C   C87       1.0  0.60190  0.34470  0.56510  1.0000
  C   C88       1.0  0.89810  0.65530  0.06510  1.0000
  H   H65       1.0  0.92390  0.82400  0.02930  1.0000
  H   H66       1.0  0.57610  0.17600  0.52930  1.0000
  H   H67       1.0  0.42390  0.67600  0.47070  1.0000
  H   H68       1.0  0.07610  0.32400  0.97070  1.0000
  H   H69       1.0  0.07610  0.17600  0.97070  1.0000
  H   H70       1.0  0.42390  0.82400  0.47070  1.0000
  H   H71       1.0  0.57610  0.32400  0.52930  1.0000
  H   H72       1.0  0.92390  0.67600  0.02930  1.0000
  N   N1        1.0  0.81900  0.87810  0.10790  1.0000
  N   N2        1.0  0.68100  0.12190  0.60790  1.0000
  N   N3        1.0  0.31900  0.62190  0.39210  1.0000
  N   N4        1.0  0.18100  0.37810  0.89210  1.0000
  N   N5        1.0  0.18100  0.12190  0.89210  1.0000
  N   N6        1.0  0.31900  0.87810  0.39210  1.0000
  N   N7        1.0  0.68100  0.37810  0.60790  1.0000
  N   N8        1.0  0.81900  0.62190  0.10790  1.0000
  N   N9        1.0  0.90090  0.88440  0.15450  1.0000
  N   N10       1.0  0.59910  0.11560  0.65450  1.0000
  N   N11       1.0  0.40090  0.61560  0.34550  1.0000
  N   N12       1.0  0.09910  0.38440  0.84550  1.0000
  N   N13       1.0  0.09910  0.11560  0.84550  1.0000
  N   N14       1.0  0.40090  0.88440  0.34550  1.0000
  N   N15       1.0  0.59910  0.38440  0.65450  1.0000
  N   N16       1.0  0.90090  0.61560  0.15450  1.0000
  C   C89       1.0  0.84720  0.84390  0.04350  1.0000
  C   C90       1.0  0.65280  0.15610  0.54350  1.0000
  C   C91       1.0  0.34720  0.65610  0.45650  1.0000
  C   C92       1.0  0.15280  0.34390  0.95650  1.0000
  C   C93       1.0  0.15280  0.15610  0.95650  1.0000
  C   C94       1.0  0.34720  0.84390  0.45650  1.0000
  C   C95       1.0  0.65280  0.34390  0.54350  1.0000
  C   C96       1.0  0.84720  0.65610  0.04350  1.0000
  H   H73       1.0  0.83400  0.82090  0.98740  1.0000
  H   H74       1.0  0.66600  0.17910  0.48740  1.0000
  H   H75       1.0  0.33400  0.67910  0.51260  1.0000
  H   H76       1.0  0.16600  0.32090  0.01260  1.0000
  H   H77       1.0  0.16600  0.17910  0.01260  1.0000
  H   H78       1.0  0.33400  0.82090  0.51260  1.0000
  H   H79       1.0  0.66600  0.32090  0.48740  1.0000
  H   H80       1.0  0.83400  0.67910  0.98740  1.0000
  N   N17       1.0  0.16310  0.91810  0.40630  1.0000
  N   N18       1.0  0.33690  0.08190  0.90630  1.0000
  N   N19       1.0  0.66310  0.58190  0.09370  1.0000
  N   N20       1.0  0.83690  0.41810  0.59370  1.0000
  N   N21       1.0  0.83690  0.08190  0.59370  1.0000
  N   N22       1.0  0.66310  0.91810  0.09370  1.0000
  N   N23       1.0  0.33690  0.41810  0.90630  1.0000
  N   N24       1.0  0.16310  0.58190  0.40630  1.0000
  N   N25       1.0  0.08050  0.92880  0.36400  1.0000
  N   N26       1.0  0.41950  0.07120  0.86400  1.0000
  N   N27       1.0  0.58050  0.57120  0.13600  1.0000
  N   N28       1.0  0.91950  0.42880  0.63600  1.0000
  N   N29       1.0  0.91950  0.07120  0.63600  1.0000
  N   N30       1.0  0.58050  0.92880  0.13600  1.0000
  N   N31       1.0  0.41950  0.42880  0.86400  1.0000
  N   N32       1.0  0.08050  0.57120  0.36400  1.0000
