data_image0
_chemical_formula_structural       W48Ag8O152N32C8H8C8H8C8H8C8H8C16H8C8H8C8H8C8H8C8H8C16H8B4O8
_chemical_formula_sum              "W48 Ag8 O160 N32 C96 H80 B4"
_cell_length_a       26.664
_cell_length_b       20.022
_cell_length_c       12.937
_cell_angle_alpha    90
_cell_angle_beta     90
_cell_angle_gamma    90

_space_group_name_H-M_alt    "P 1"
_space_group_IT_number       1

loop_
  _space_group_symop_operation_xyz
  'x, y, z'

loop_
  _atom_site_type_symbol
  _atom_site_label
  _atom_site_symmetry_multiplicity
  _atom_site_fract_x
  _atom_site_fract_y
  _atom_site_fract_z
  _atom_site_occupancy
  W   W1        1.0  0.15469  0.25000  0.74765  1.0000
  W   W2        1.0  0.34531  0.75000  0.24765  1.0000
  W   W3        1.0  0.65469  0.25000  0.75235  1.0000
  W   W4        1.0  0.84531  0.75000  0.25235  1.0000
  W   W5        1.0  0.15487  0.16719  0.96933  1.0000
  W   W6        1.0  0.34513  0.83281  0.46933  1.0000
  W   W7        1.0  0.65487  0.33281  0.53067  1.0000
  W   W8        1.0  0.84513  0.66719  0.03067  1.0000
  W   W9        1.0  0.84513  0.83281  0.03067  1.0000
  W   W10       1.0  0.65487  0.16719  0.53067  1.0000
  W   W11       1.0  0.34513  0.66719  0.46933  1.0000
  W   W12       1.0  0.15487  0.33281  0.96933  1.0000
  W   W13       1.0  0.36799  0.25000  0.05493  1.0000
  W   W14       1.0  0.13201  0.75000  0.55493  1.0000
  W   W15       1.0  0.86799  0.25000  0.44507  1.0000
  W   W16       1.0  0.63201  0.75000  0.94507  1.0000
  W   W17       1.0  0.26672  0.16822  0.12835  1.0000
  W   W18       1.0  0.23328  0.83178  0.62835  1.0000
  W   W19       1.0  0.76672  0.33178  0.37165  1.0000
  W   W20       1.0  0.73328  0.66822  0.87165  1.0000
  W   W21       1.0  0.73328  0.83178  0.87165  1.0000
  W   W22       1.0  0.76672  0.16822  0.37165  1.0000
  W   W23       1.0  0.23328  0.66822  0.62835  1.0000
  W   W24       1.0  0.26672  0.33178  0.12835  1.0000
  W   W25       1.0  0.26635  0.07766  0.88591  1.0000
  W   W26       1.0  0.23365  0.92234  0.38591  1.0000
  W   W27       1.0  0.76635  0.42234  0.61409  1.0000
  W   W28       1.0  0.73365  0.57766  0.11409  1.0000
  W   W29       1.0  0.73365  0.92234  0.11409  1.0000
  W   W30       1.0  0.76635  0.07766  0.61409  1.0000
  W   W31       1.0  0.23365  0.57766  0.38591  1.0000
  W   W32       1.0  0.26635  0.42234  0.88591  1.0000
  W   W33       1.0  0.36799  0.15892  0.81162  1.0000
  W   W34       1.0  0.13201  0.84108  0.31162  1.0000
  W   W35       1.0  0.86799  0.34108  0.68838  1.0000
  W   W36       1.0  0.63201  0.65892  0.18838  1.0000
  W   W37       1.0  0.63201  0.84108  0.18838  1.0000
  W   W38       1.0  0.86799  0.15892  0.68838  1.0000
  W   W39       1.0  0.13201  0.65892  0.31162  1.0000
  W   W40       1.0  0.36799  0.34108  0.81162  1.0000
  W   W41       1.0  0.26645  0.15955  0.66603  1.0000
  W   W42       1.0  0.23355  0.84045  0.16603  1.0000
  W   W43       1.0  0.76645  0.34045  0.83397  1.0000
  W   W44       1.0  0.73355  0.65955  0.33397  1.0000
  W   W45       1.0  0.73355  0.84045  0.33397  1.0000
  W   W46       1.0  0.76645  0.15955  0.83397  1.0000
  W   W47       1.0  0.23355  0.65955  0.16603  1.0000
  W   W48       1.0  0.26645  0.34045  0.66603  1.0000
  Ag  Ag1       1.0  0.25710  0.10590  0.39080  1.0000
  Ag  Ag2       1.0  0.24290  0.89410  0.89080  1.0000
  Ag  Ag3       1.0  0.75710  0.39410  0.10920  1.0000
  Ag  Ag4       1.0  0.74290  0.60590  0.60920  1.0000
  Ag  Ag5       1.0  0.74290  0.89410  0.60920  1.0000
  Ag  Ag6       1.0  0.75710  0.10590  0.10920  1.0000
  Ag  Ag7       1.0  0.24290  0.60590  0.89080  1.0000
  Ag  Ag8       1.0  0.25710  0.39410  0.39080  1.0000
  O   O1        1.0  0.20750  0.25000  0.89460  1.0000
  O   O2        1.0  0.29250  0.75000  0.39460  1.0000
  O   O3        1.0  0.70750  0.25000  0.60540  1.0000
  O   O4        1.0  0.79250  0.75000  0.10540  1.0000
  O   O5        1.0  0.28180  0.18840  0.84110  1.0000
  O   O6        1.0  0.21820  0.81160  0.34110  1.0000
  O   O7        1.0  0.78180  0.31160  0.65890  1.0000
  O   O8        1.0  0.71820  0.68840  0.15890  1.0000
  O   O9        1.0  0.71820  0.81160  0.15890  1.0000
  O   O10       1.0  0.78180  0.18840  0.65890  1.0000
  O   O11       1.0  0.21820  0.68840  0.34110  1.0000
  O   O12       1.0  0.28180  0.31160  0.84110  1.0000
  O   O13       1.0  0.25640  0.07810  0.74370  1.0000
  O   O14       1.0  0.24360  0.92190  0.24370  1.0000
  O   O15       1.0  0.75640  0.42190  0.75630  1.0000
  O   O16       1.0  0.74360  0.57810  0.25630  1.0000
  O   O17       1.0  0.74360  0.92190  0.25630  1.0000
  O   O18       1.0  0.75640  0.07810  0.75630  1.0000
  O   O19       1.0  0.24360  0.57810  0.24370  1.0000
  O   O20       1.0  0.25640  0.42190  0.74370  1.0000
  O   O21       1.0  0.42600  0.12860  0.78260  1.0000
  O   O22       1.0  0.07400  0.87140  0.28260  1.0000
  O   O23       1.0  0.92600  0.37140  0.71740  1.0000
  O   O24       1.0  0.57400  0.62860  0.21740  1.0000
  O   O25       1.0  0.57400  0.87140  0.21740  1.0000
  O   O26       1.0  0.92600  0.12860  0.71740  1.0000
  O   O27       1.0  0.07400  0.62860  0.28260  1.0000
  O   O28       1.0  0.42600  0.37140  0.78260  1.0000
  O   O29       1.0  0.37630  0.25000  0.77560  1.0000
  O   O30       1.0  0.12370  0.75000  0.27560  1.0000
  O   O31       1.0  0.87630  0.25000  0.72440  1.0000
  O   O32       1.0  0.62370  0.75000  0.22440  1.0000
  O   O33       1.0  0.37820  0.18380  0.95320  1.0000
  O   O34       1.0  0.12180  0.81620  0.45320  1.0000
  O   O35       1.0  0.87820  0.31620  0.54680  1.0000
  O   O36       1.0  0.62180  0.68380  0.04680  1.0000
  O   O37       1.0  0.62180  0.81620  0.04680  1.0000
  O   O38       1.0  0.87820  0.18380  0.54680  1.0000
  O   O39       1.0  0.12180  0.68380  0.45320  1.0000
  O   O40       1.0  0.37820  0.31620  0.95320  1.0000
  O   O41       1.0  0.42730  0.25000  0.11190  1.0000
  O   O42       1.0  0.07270  0.75000  0.61190  1.0000
  O   O43       1.0  0.92730  0.25000  0.38810  1.0000
  O   O44       1.0  0.57270  0.75000  0.88810  1.0000
  O   O45       1.0  0.33750  0.18450  0.14000  1.0000
  O   O46       1.0  0.16250  0.81550  0.64000  1.0000
  O   O47       1.0  0.83750  0.31550  0.36000  1.0000
  O   O48       1.0  0.66250  0.68450  0.86000  1.0000
  O   O49       1.0  0.66250  0.81550  0.86000  1.0000
  O   O50       1.0  0.83750  0.18450  0.36000  1.0000
  O   O51       1.0  0.16250  0.68450  0.64000  1.0000
  O   O52       1.0  0.33750  0.31550  0.14000  1.0000
  O   O53       1.0  0.20000  0.17140  0.07850  1.0000
  O   O54       1.0  0.30000  0.82860  0.57850  1.0000
  O   O55       1.0  0.70000  0.32860  0.42150  1.0000
  O   O56       1.0  0.80000  0.67140  0.92150  1.0000
  O   O57       1.0  0.80000  0.82860  0.92150  1.0000
  O   O58       1.0  0.70000  0.17140  0.42150  1.0000
  O   O59       1.0  0.30000  0.67140  0.57850  1.0000
  O   O60       1.0  0.20000  0.32860  0.07850  1.0000
  O   O61       1.0  0.11150  0.11310  0.01680  1.0000
  O   O62       1.0  0.38850  0.88690  0.51680  1.0000
  O   O63       1.0  0.61150  0.38690  0.48320  1.0000
  O   O64       1.0  0.88850  0.61310  0.98320  1.0000
  O   O65       1.0  0.88850  0.88690  0.98320  1.0000
  O   O66       1.0  0.61150  0.11310  0.48320  1.0000
  O   O67       1.0  0.38850  0.61310  0.51680  1.0000
  O   O68       1.0  0.11150  0.38690  0.01680  1.0000
  O   O69       1.0  0.12710  0.25000  0.00760  1.0000
  O   O70       1.0  0.37290  0.75000  0.50760  1.0000
  O   O71       1.0  0.62710  0.25000  0.49240  1.0000
  O   O72       1.0  0.87290  0.75000  0.99240  1.0000
  O   O73       1.0  0.12600  0.18480  0.83530  1.0000
  O   O74       1.0  0.37400  0.81520  0.33530  1.0000
  O   O75       1.0  0.62600  0.31520  0.66470  1.0000
  O   O76       1.0  0.87400  0.68480  0.16470  1.0000
  O   O77       1.0  0.87400  0.81520  0.16470  1.0000
  O   O78       1.0  0.62600  0.18480  0.66470  1.0000
  O   O79       1.0  0.37400  0.68480  0.33530  1.0000
  O   O80       1.0  0.12600  0.31520  0.83530  1.0000
  O   O81       1.0  0.11090  0.25000  0.65400  1.0000
  O   O82       1.0  0.38910  0.75000  0.15400  1.0000
  O   O83       1.0  0.61090  0.25000  0.84600  1.0000
  O   O84       1.0  0.88910  0.75000  0.34600  1.0000
  O   O85       1.0  0.20060  0.31450  0.69670  1.0000
  O   O86       1.0  0.29940  0.68550  0.19670  1.0000
  O   O87       1.0  0.70060  0.18550  0.80330  1.0000
  O   O88       1.0  0.79940  0.81450  0.30330  1.0000
  O   O89       1.0  0.79940  0.68550  0.30330  1.0000
  O   O90       1.0  0.70060  0.31450  0.80330  1.0000
  O   O91       1.0  0.29940  0.81450  0.19670  1.0000
  O   O92       1.0  0.20060  0.18550  0.69670  1.0000
  O   O93       1.0  0.27970  0.25000  0.63600  1.0000
  O   O94       1.0  0.22030  0.75000  0.13600  1.0000
  O   O95       1.0  0.77970  0.25000  0.86400  1.0000
  O   O96       1.0  0.72030  0.75000  0.36400  1.0000
  O   O97       1.0  0.33770  0.14600  0.68110  1.0000
  O   O98       1.0  0.16230  0.85400  0.18110  1.0000
  O   O99       1.0  0.83770  0.35400  0.81890  1.0000
  O   O100      1.0  0.66230  0.64600  0.31890  1.0000
  O   O101      1.0  0.66230  0.85400  0.31890  1.0000
  O   O102      1.0  0.83770  0.14600  0.81890  1.0000
  O   O103      1.0  0.16230  0.64600  0.18110  1.0000
  O   O104      1.0  0.33770  0.35400  0.68110  1.0000
  O   O105      1.0  0.33720  0.07870  0.85590  1.0000
  O   O106      1.0  0.16280  0.92130  0.35590  1.0000
  O   O107      1.0  0.83720  0.42130  0.64410  1.0000
  O   O108      1.0  0.66280  0.57870  0.14410  1.0000
  O   O109      1.0  0.66280  0.92130  0.14410  1.0000
  O   O110      1.0  0.83720  0.07870  0.64410  1.0000
  O   O111      1.0  0.16280  0.57870  0.35590  1.0000
  O   O112      1.0  0.33720  0.42130  0.85590  1.0000
  O   O113      1.0  0.27980  0.10570  0.02310  1.0000
  O   O114      1.0  0.22020  0.89430  0.52310  1.0000
  O   O115      1.0  0.77980  0.39430  0.47690  1.0000
  O   O116      1.0  0.72020  0.60570  0.97690  1.0000
  O   O117      1.0  0.72020  0.89430  0.97690  1.0000
  O   O118      1.0  0.77980  0.10570  0.47690  1.0000
  O   O119      1.0  0.22020  0.60570  0.52310  1.0000
  O   O120      1.0  0.27980  0.39430  0.02310  1.0000
  O   O121      1.0  0.26080  0.11620  0.23400  1.0000
  O   O122      1.0  0.23920  0.88380  0.73400  1.0000
  O   O123      1.0  0.76080  0.38380  0.26600  1.0000
  O   O124      1.0  0.73920  0.61620  0.76600  1.0000
  O   O125      1.0  0.73920  0.88380  0.76600  1.0000
  O   O126      1.0  0.76080  0.11620  0.26600  1.0000
  O   O127      1.0  0.23920  0.61620  0.73400  1.0000
  O   O128      1.0  0.26080  0.38380  0.23400  1.0000
  O   O129      1.0  0.25670  0.25000  0.20100  1.0000
  O   O130      1.0  0.24330  0.75000  0.70100  1.0000
  O   O131      1.0  0.75670  0.25000  0.29900  1.0000
  O   O132      1.0  0.74330  0.75000  0.79900  1.0000
  O   O133      1.0  0.28420  0.25000  0.00400  1.0000
  O   O134      1.0  0.21580  0.75000  0.50400  1.0000
  O   O135      1.0  0.78420  0.25000  0.49600  1.0000
  O   O136      1.0  0.71580  0.75000  0.99600  1.0000
  O   O137      1.0  0.19890  0.10720  0.90260  1.0000
  O   O138      1.0  0.30110  0.89280  0.40260  1.0000
  O   O139      1.0  0.69890  0.39280  0.59740  1.0000
  O   O140      1.0  0.80110  0.60720  0.09740  1.0000
  O   O141      1.0  0.80110  0.89280  0.09740  1.0000
  O   O142      1.0  0.69890  0.10720  0.59740  1.0000
  O   O143      1.0  0.30110  0.60720  0.40260  1.0000
  O   O144      1.0  0.19890  0.39280  0.90260  1.0000
  O   O145      1.0  0.25890  0.12610  0.54750  1.0000
  O   O146      1.0  0.24110  0.87390  0.04750  1.0000
  O   O147      1.0  0.75890  0.37390  0.95250  1.0000
  O   O148      1.0  0.74110  0.62610  0.45250  1.0000
  O   O149      1.0  0.74110  0.87390  0.45250  1.0000
  O   O150      1.0  0.75890  0.12610  0.95250  1.0000
  O   O151      1.0  0.24110  0.62610  0.04750  1.0000
  O   O152      1.0  0.25890  0.37390  0.54750  1.0000
  N   N1        1.0  0.33540  0.07830  0.39400  1.0000
  N   N2        1.0  0.16460  0.92170  0.89400  1.0000
  N   N3        1.0  0.83540  0.42170  0.10600  1.0000
  N   N4        1.0  0.66460  0.57830  0.60600  1.0000
  N   N5        1.0  0.66460  0.92170  0.60600  1.0000
  N   N6        1.0  0.83540  0.07830  0.10600  1.0000
  N   N7        1.0  0.16460  0.57830  0.89400  1.0000
  N   N8        1.0  0.33540  0.42170  0.39400  1.0000
  N   N9        1.0  0.68410  0.12080  0.11500  1.0000
  N   N10       1.0  0.81590  0.87920  0.61500  1.0000
  N   N11       1.0  0.18410  0.37920  0.38500  1.0000
  N   N12       1.0  0.31590  0.62080  0.88500  1.0000
  N   N13       1.0  0.31590  0.87920  0.88500  1.0000
  N   N14       1.0  0.18410  0.12080  0.38500  1.0000
  N   N15       1.0  0.81590  0.62080  0.61500  1.0000
  N   N16       1.0  0.68410  0.37920  0.11500  1.0000
  N   N17       1.0  0.41540  0.07050  0.36070  1.0000
  N   N18       1.0  0.08460  0.92950  0.86070  1.0000
  N   N19       1.0  0.91540  0.42950  0.13930  1.0000
  N   N20       1.0  0.58460  0.57050  0.63930  1.0000
  N   N21       1.0  0.58460  0.92950  0.63930  1.0000
  N   N22       1.0  0.91540  0.07050  0.13930  1.0000
  N   N23       1.0  0.08460  0.57050  0.86070  1.0000
  N   N24       1.0  0.41540  0.42950  0.36070  1.0000
  N   N25       1.0  0.59850  0.11870  0.15600  1.0000
  N   N26       1.0  0.90150  0.88130  0.65600  1.0000
  N   N27       1.0  0.09850  0.38130  0.34400  1.0000
  N   N28       1.0  0.40150  0.61870  0.84400  1.0000
  N   N29       1.0  0.40150  0.88130  0.84400  1.0000
  N   N30       1.0  0.09850  0.11870  0.34400  1.0000
  N   N31       1.0  0.90150  0.61870  0.65600  1.0000
  N   N32       1.0  0.59850  0.38130  0.15600  1.0000
  C   C1        1.0  0.37030  0.09870  0.33200  1.0000
  C   C2        1.0  0.12970  0.90130  0.83200  1.0000
  C   C3        1.0  0.87030  0.40130  0.16800  1.0000
  C   C4        1.0  0.62970  0.59870  0.66800  1.0000
  C   C5        1.0  0.62970  0.90130  0.66800  1.0000
  C   C6        1.0  0.87030  0.09870  0.16800  1.0000
  C   C7        1.0  0.12970  0.59870  0.83200  1.0000
  C   C8        1.0  0.37030  0.40130  0.33200  1.0000
  H   H1        1.0  0.36560  0.12790  0.27740  1.0000
  H   H2        1.0  0.13440  0.87210  0.77740  1.0000
  H   H3        1.0  0.86560  0.37210  0.22260  1.0000
  H   H4        1.0  0.63440  0.62790  0.72260  1.0000
  H   H5        1.0  0.63440  0.87210  0.72260  1.0000
  H   H6        1.0  0.86560  0.12790  0.22260  1.0000
  H   H7        1.0  0.13440  0.62790  0.77740  1.0000
  H   H8        1.0  0.36560  0.37210  0.27740  1.0000
  C   C9        1.0  0.64620  0.09950  0.18200  1.0000
  C   C10       1.0  0.85380  0.90050  0.68200  1.0000
  C   C11       1.0  0.14620  0.40050  0.31800  1.0000
  C   C12       1.0  0.35380  0.59950  0.81800  1.0000
  C   C13       1.0  0.35380  0.90050  0.81800  1.0000
  C   C14       1.0  0.14620  0.09950  0.31800  1.0000
  C   C15       1.0  0.85380  0.59950  0.68200  1.0000
  C   C16       1.0  0.64620  0.40050  0.18200  1.0000
  H   H9        1.0  0.65300  0.07400  0.24020  1.0000
  H   H10       1.0  0.84700  0.92600  0.74020  1.0000
  H   H11       1.0  0.15300  0.42600  0.25980  1.0000
  H   H12       1.0  0.34700  0.57400  0.75980  1.0000
  H   H13       1.0  0.34700  0.92600  0.75980  1.0000
  H   H14       1.0  0.15300  0.07400  0.25980  1.0000
  H   H15       1.0  0.84700  0.57400  0.74020  1.0000
  H   H16       1.0  0.65300  0.42600  0.24020  1.0000
  C   C17       1.0  0.65240  0.15670  0.03800  1.0000
  C   C18       1.0  0.84760  0.84330  0.53800  1.0000
  C   C19       1.0  0.15240  0.34330  0.46200  1.0000
  C   C20       1.0  0.34760  0.65670  0.96200  1.0000
  C   C21       1.0  0.34760  0.84330  0.96200  1.0000
  C   C22       1.0  0.15240  0.15670  0.46200  1.0000
  C   C23       1.0  0.84760  0.65670  0.53800  1.0000
  C   C24       1.0  0.65240  0.34330  0.03800  1.0000
  H   H17       1.0  0.66560  0.17750  0.97970  1.0000
  H   H18       1.0  0.83440  0.82250  0.47970  1.0000
  H   H19       1.0  0.16560  0.32250  0.52030  1.0000
  H   H20       1.0  0.33440  0.67750  0.02030  1.0000
  H   H21       1.0  0.33440  0.82250  0.02030  1.0000
  H   H22       1.0  0.16560  0.17750  0.52030  1.0000
  H   H23       1.0  0.83440  0.67750  0.47970  1.0000
  H   H24       1.0  0.66560  0.32250  0.97970  1.0000
  C   C25       1.0  0.50110  0.03400  0.31100  1.0000
  C   C26       1.0  0.99890  0.96600  0.81100  1.0000
  C   C27       1.0  0.00110  0.46600  0.18900  1.0000
  C   C28       1.0  0.49890  0.53400  0.68900  1.0000
  C   C29       1.0  0.49890  0.96600  0.68900  1.0000
  C   C30       1.0  0.00110  0.03400  0.18900  1.0000
  C   C31       1.0  0.99890  0.53400  0.81100  1.0000
  C   C32       1.0  0.50110  0.46600  0.31100  1.0000
  H   H25       1.0  0.49570  0.99320  0.34390  1.0000
  H   H26       1.0  0.00430  0.00680  0.84390  1.0000
  H   H27       1.0  0.99570  0.50680  0.15610  1.0000
  H   H28       1.0  0.50430  0.49320  0.65610  1.0000
  H   H29       1.0  0.50430  0.00680  0.65610  1.0000
  H   H30       1.0  0.99570  0.99320  0.15610  1.0000
  H   H31       1.0  0.00430  0.49320  0.84390  1.0000
  H   H32       1.0  0.49570  0.50680  0.34390  1.0000
  C   C33       1.0  0.46320  0.08140  0.30500  1.0000
  C   C34       1.0  0.03680  0.91860  0.80500  1.0000
  C   C35       1.0  0.96320  0.41860  0.19500  1.0000
  C   C36       1.0  0.53680  0.58140  0.69500  1.0000
  C   C37       1.0  0.53680  0.91860  0.69500  1.0000
  C   C38       1.0  0.96320  0.08140  0.19500  1.0000
  C   C39       1.0  0.03680  0.58140  0.80500  1.0000
  C   C40       1.0  0.46320  0.41860  0.30500  1.0000
  C   C41       1.0  0.40610  0.03550  0.44200  1.0000
  C   C42       1.0  0.09390  0.96450  0.94200  1.0000
  C   C43       1.0  0.90610  0.46450  0.05800  1.0000
  C   C44       1.0  0.59390  0.53550  0.55800  1.0000
  C   C45       1.0  0.59390  0.96450  0.55800  1.0000
  C   C46       1.0  0.90610  0.03550  0.05800  1.0000
  C   C47       1.0  0.09390  0.53550  0.94200  1.0000
  C   C48       1.0  0.40610  0.46450  0.44200  1.0000
  H   H33       1.0  0.42960  0.01120  0.47930  1.0000
  H   H34       1.0  0.07040  0.98880  0.97930  1.0000
  H   H35       1.0  0.92960  0.48880  0.02070  1.0000
  H   H36       1.0  0.57040  0.51120  0.52070  1.0000
  H   H37       1.0  0.57040  0.98880  0.52070  1.0000
  H   H38       1.0  0.92960  0.01120  0.02070  1.0000
  H   H39       1.0  0.07040  0.51120  0.97930  1.0000
  H   H40       1.0  0.42960  0.48880  0.47930  1.0000
  C   C49       1.0  0.35810  0.03960  0.46300  1.0000
  C   C50       1.0  0.14190  0.96040  0.96300  1.0000
  C   C51       1.0  0.85810  0.46040  0.03700  1.0000
  C   C52       1.0  0.64190  0.53960  0.53700  1.0000
  C   C53       1.0  0.64190  0.96040  0.53700  1.0000
  C   C54       1.0  0.85810  0.03960  0.03700  1.0000
  C   C55       1.0  0.14190  0.53960  0.96300  1.0000
  C   C56       1.0  0.35810  0.46040  0.46300  1.0000
  H   H41       1.0  0.34240  0.01850  0.51870  1.0000
  H   H42       1.0  0.15760  0.98150  0.01870  1.0000
  H   H43       1.0  0.84240  0.48150  0.98130  1.0000
  H   H44       1.0  0.65760  0.51850  0.48130  1.0000
  H   H45       1.0  0.65760  0.98150  0.48130  1.0000
  H   H46       1.0  0.84240  0.01850  0.98130  1.0000
  H   H47       1.0  0.15760  0.51850  0.01870  1.0000
  H   H48       1.0  0.34240  0.48150  0.51870  1.0000
  C   C57       1.0  0.47050  0.13980  0.25000  1.0000
  C   C58       1.0  0.02950  0.86020  0.75000  1.0000
  C   C59       1.0  0.97050  0.36020  0.25000  1.0000
  C   C60       1.0  0.52950  0.63980  0.75000  1.0000
  C   C61       1.0  0.52950  0.86020  0.75000  1.0000
  C   C62       1.0  0.97050  0.13980  0.25000  1.0000
  C   C63       1.0  0.02950  0.63980  0.75000  1.0000
  C   C64       1.0  0.47050  0.36020  0.25000  1.0000
  H   H49       1.0  0.44500  0.17120  0.24370  1.0000
  H   H50       1.0  0.05500  0.82880  0.74370  1.0000
  H   H51       1.0  0.94500  0.32880  0.25630  1.0000
  H   H52       1.0  0.55500  0.67120  0.75630  1.0000
  H   H53       1.0  0.55500  0.82880  0.75630  1.0000
  H   H54       1.0  0.94500  0.17120  0.25630  1.0000
  H   H55       1.0  0.05500  0.67120  0.74370  1.0000
  H   H56       1.0  0.44500  0.32880  0.24370  1.0000
  C   C65       1.0  0.51510  0.14900  0.20800  1.0000
  C   C66       1.0  0.98490  0.85100  0.70800  1.0000
  C   C67       1.0  0.01510  0.35100  0.29200  1.0000
  C   C68       1.0  0.48490  0.64900  0.79200  1.0000
  C   C69       1.0  0.48490  0.85100  0.79200  1.0000
  C   C70       1.0  0.01510  0.14900  0.29200  1.0000
  C   C71       1.0  0.98490  0.64900  0.70800  1.0000
  C   C72       1.0  0.51510  0.35100  0.20800  1.0000
  H   H57       1.0  0.52000  0.18910  0.17210  1.0000
  H   H58       1.0  0.98000  0.81090  0.67210  1.0000
  H   H59       1.0  0.02000  0.31090  0.32790  1.0000
  H   H60       1.0  0.48000  0.68910  0.82790  1.0000
  H   H61       1.0  0.48000  0.81090  0.82790  1.0000
  H   H62       1.0  0.02000  0.18910  0.32790  1.0000
  H   H63       1.0  0.98000  0.68910  0.67210  1.0000
  H   H64       1.0  0.52000  0.31090  0.17210  1.0000
  C   C73       1.0  0.60360  0.15640  0.06000  1.0000
  C   C74       1.0  0.89640  0.84360  0.56000  1.0000
  C   C75       1.0  0.10360  0.34360  0.44000  1.0000
  C   C76       1.0  0.39640  0.65640  0.94000  1.0000
  C   C77       1.0  0.39640  0.84360  0.94000  1.0000
  C   C78       1.0  0.10360  0.15640  0.44000  1.0000
  C   C79       1.0  0.89640  0.65640  0.56000  1.0000
  C   C80       1.0  0.60360  0.34360  0.06000  1.0000
  H   H65       1.0  0.57800  0.17610  0.02180  1.0000
  H   H66       1.0  0.92200  0.82390  0.52180  1.0000
  H   H67       1.0  0.07800  0.32390  0.47820  1.0000
  H   H68       1.0  0.42200  0.67610  0.97820  1.0000
  H   H69       1.0  0.42200  0.82390  0.97820  1.0000
  H   H70       1.0  0.07800  0.17610  0.47820  1.0000
  H   H71       1.0  0.92200  0.67610  0.52180  1.0000
  H   H72       1.0  0.57800  0.32390  0.02180  1.0000
  C   C81       1.0  0.55540  0.10540  0.21300  1.0000
  C   C82       1.0  0.94460  0.89460  0.71300  1.0000
  C   C83       1.0  0.05540  0.39460  0.28700  1.0000
  C   C84       1.0  0.44460  0.60540  0.78700  1.0000
  C   C85       1.0  0.44460  0.89460  0.78700  1.0000
  C   C86       1.0  0.05540  0.10540  0.28700  1.0000
  C   C87       1.0  0.94460  0.60540  0.71300  1.0000
  C   C88       1.0  0.55540  0.39460  0.21300  1.0000
  C   C89       1.0  0.54600  0.04840  0.26700  1.0000
  C   C90       1.0  0.95400  0.95160  0.76700  1.0000
  C   C91       1.0  0.04600  0.45160  0.23300  1.0000
  C   C92       1.0  0.45400  0.54840  0.73300  1.0000
  C   C93       1.0  0.45400  0.95160  0.73300  1.0000
  C   C94       1.0  0.04600  0.04840  0.23300  1.0000
  C   C95       1.0  0.95400  0.54840  0.76700  1.0000
  C   C96       1.0  0.54600  0.45160  0.26700  1.0000
  H   H73       1.0  0.57200  0.01780  0.27500  1.0000
  H   H74       1.0  0.92800  0.98220  0.77500  1.0000
  H   H75       1.0  0.07200  0.48220  0.22500  1.0000
  H   H76       1.0  0.42800  0.51780  0.72500  1.0000
  H   H77       1.0  0.42800  0.98220  0.72500  1.0000
  H   H78       1.0  0.07200  0.01780  0.22500  1.0000
  H   H79       1.0  0.92800  0.51780  0.77500  1.0000
  H   H80       1.0  0.57200  0.48220  0.27500  1.0000
  B   B1        1.0  0.26370  0.25000  0.89600  1.0000
  B   B2        1.0  0.23630  0.75000  0.39600  1.0000
  B   B3        1.0  0.76370  0.25000  0.60400  1.0000
  B   B4        1.0  0.73630  0.75000  0.10400  1.0000
  O   O153      1.0  0.25990  0.99210  0.90480  1.0000
  O   O154      1.0  0.24010  0.00790  0.40480  1.0000
  O   O155      1.0  0.75990  0.50790  0.59520  1.0000
  O   O156      1.0  0.74010  0.49210  0.09520  1.0000
  O   O157      1.0  0.74010  0.00790  0.09520  1.0000
  O   O158      1.0  0.75990  0.99210  0.59520  1.0000
  O   O159      1.0  0.24010  0.49210  0.40480  1.0000
  O   O160      1.0  0.25990  0.50790  0.90480  1.0000
