data_image0
_chemical_formula_structural       Er4O24C12H4O8C4H4
_chemical_formula_sum              "Er4 O32 C16 H8"
_cell_length_a       8.5549
_cell_length_b       6.6144
_cell_length_c       19.1726
_cell_angle_alpha    90
_cell_angle_beta     90
_cell_angle_gamma    90

_space_group_name_H-M_alt    "P 1"
_space_group_IT_number       1

loop_
  _space_group_symop_operation_xyz
  'x, y, z'

loop_
  _atom_site_type_symbol
  _atom_site_label
  _atom_site_symmetry_multiplicity
  _atom_site_fract_x
  _atom_site_fract_y
  _atom_site_fract_z
  _atom_site_occupancy
  Er  Er1       1.0  0.25000  0.50000  0.11650  1.0000
  Er  Er2       1.0  0.75000  0.50000  0.38350  1.0000
  Er  Er3       1.0  0.75000  0.50000  0.88350  1.0000
  Er  Er4       1.0  0.25000  0.50000  0.61650  1.0000
  O   O1        1.0  0.85730  0.32310  0.98080  1.0000
  O   O2        1.0  0.64270  0.67690  0.98080  1.0000
  O   O3        1.0  0.35730  0.67690  0.51920  1.0000
  O   O4        1.0  0.14270  0.32310  0.51920  1.0000
  O   O5        1.0  0.14270  0.67690  0.01920  1.0000
  O   O6        1.0  0.35730  0.32310  0.01920  1.0000
  O   O7        1.0  0.64270  0.32310  0.48080  1.0000
  O   O8        1.0  0.85730  0.67690  0.48080  1.0000
  O   O9        1.0  0.02330  0.33460  0.06870  1.0000
  O   O10       1.0  0.47670  0.66540  0.06870  1.0000
  O   O11       1.0  0.52330  0.66540  0.43130  1.0000
  O   O12       1.0  0.97670  0.33460  0.43130  1.0000
  O   O13       1.0  0.97670  0.66540  0.93130  1.0000
  O   O14       1.0  0.52330  0.33460  0.93130  1.0000
  O   O15       1.0  0.47670  0.33460  0.56870  1.0000
  O   O16       1.0  0.02330  0.66540  0.56870  1.0000
  O   O17       1.0  0.06950  0.49500  0.20220  1.0000
  O   O18       1.0  0.43050  0.50500  0.20220  1.0000
  O   O19       1.0  0.56950  0.50500  0.29780  1.0000
  O   O20       1.0  0.93050  0.49500  0.29780  1.0000
  O   O21       1.0  0.93050  0.50500  0.79780  1.0000
  O   O22       1.0  0.56950  0.49500  0.79780  1.0000
  O   O23       1.0  0.43050  0.49500  0.70220  1.0000
  O   O24       1.0  0.06950  0.50500  0.70220  1.0000
  C   C1        1.0  0.96620  0.39700  0.01420  1.0000
  C   C2        1.0  0.53380  0.60300  0.01420  1.0000
  C   C3        1.0  0.46620  0.60300  0.48580  1.0000
  C   C4        1.0  0.03380  0.39700  0.48580  1.0000
  C   C5        1.0  0.03380  0.60300  0.98580  1.0000
  C   C6        1.0  0.46620  0.39700  0.98580  1.0000
  C   C7        1.0  0.53380  0.39700  0.51420  1.0000
  C   C8        1.0  0.96620  0.60300  0.51420  1.0000
  C   C9        1.0  0.00000  0.57500  0.25000  1.0000
  C   C10       1.0  0.50000  0.42500  0.25000  1.0000
  C   C11       1.0  0.00000  0.42500  0.75000  1.0000
  C   C12       1.0  0.50000  0.57500  0.75000  1.0000
  H   H1        1.0  0.00000  0.71595  0.25000  1.0000
  H   H2        1.0  0.50000  0.28405  0.25000  1.0000
  H   H3        1.0  0.00000  0.28405  0.75000  1.0000
  H   H4        1.0  0.50000  0.71595  0.75000  1.0000
  O   O25       1.0  0.24200  0.83510  0.15620  1.0000
  O   O26       1.0  0.25800  0.16490  0.15620  1.0000
  O   O27       1.0  0.74200  0.16490  0.34380  1.0000
  O   O28       1.0  0.75800  0.83510  0.34380  1.0000
  O   O29       1.0  0.75800  0.16490  0.84380  1.0000
  O   O30       1.0  0.74200  0.83510  0.84380  1.0000
  O   O31       1.0  0.25800  0.83510  0.65620  1.0000
  O   O32       1.0  0.24200  0.16490  0.65620  1.0000
  C   C13       1.0  0.25000  0.00000  0.12720  1.0000
  C   C14       1.0  0.75000  0.00000  0.37280  1.0000
  C   C15       1.0  0.75000  0.00000  0.87280  1.0000
  C   C16       1.0  0.25000  0.00000  0.62720  1.0000
  H   H5        1.0  0.25000  0.00000  0.07871  1.0000
  H   H6        1.0  0.75000  0.00000  0.42129  1.0000
  H   H7        1.0  0.75000  0.00000  0.92129  1.0000
  H   H8        1.0  0.25000  0.00000  0.57871  1.0000
