data_image0
_chemical_formula_structural       Er4O24C12H4O8C4H4
_chemical_formula_sum              "Er4 O32 C16 H8"
_cell_length_a       8.4795
_cell_length_b       6.6014
_cell_length_c       19.2633
_cell_angle_alpha    90
_cell_angle_beta     90
_cell_angle_gamma    90

_space_group_name_H-M_alt    "P 1"
_space_group_IT_number       1

loop_
  _space_group_symop_operation_xyz
  'x, y, z'

loop_
  _atom_site_type_symbol
  _atom_site_label
  _atom_site_symmetry_multiplicity
  _atom_site_fract_x
  _atom_site_fract_y
  _atom_site_fract_z
  _atom_site_occupancy
  Er  Er1       1.0  0.25000  0.50000  0.11627  1.0000
  Er  Er2       1.0  0.75000  0.50000  0.38373  1.0000
  Er  Er3       1.0  0.75000  0.50000  0.88373  1.0000
  Er  Er4       1.0  0.25000  0.50000  0.61627  1.0000
  O   O1        1.0  0.85520  0.32330  0.98090  1.0000
  O   O2        1.0  0.64480  0.67670  0.98090  1.0000
  O   O3        1.0  0.35520  0.67670  0.51910  1.0000
  O   O4        1.0  0.14480  0.32330  0.51910  1.0000
  O   O5        1.0  0.14480  0.67670  0.01910  1.0000
  O   O6        1.0  0.35520  0.32330  0.01910  1.0000
  O   O7        1.0  0.64480  0.32330  0.48090  1.0000
  O   O8        1.0  0.85520  0.67670  0.48090  1.0000
  O   O9        1.0  0.02290  0.33560  0.06910  1.0000
  O   O10       1.0  0.47710  0.66440  0.06910  1.0000
  O   O11       1.0  0.52290  0.66440  0.43090  1.0000
  O   O12       1.0  0.97710  0.33560  0.43090  1.0000
  O   O13       1.0  0.97710  0.66440  0.93090  1.0000
  O   O14       1.0  0.52290  0.33560  0.93090  1.0000
  O   O15       1.0  0.47710  0.33560  0.56910  1.0000
  O   O16       1.0  0.02290  0.66440  0.56910  1.0000
  O   O17       1.0  0.06880  0.49280  0.20100  1.0000
  O   O18       1.0  0.43120  0.50720  0.20100  1.0000
  O   O19       1.0  0.56880  0.50720  0.29900  1.0000
  O   O20       1.0  0.93120  0.49280  0.29900  1.0000
  O   O21       1.0  0.93120  0.50720  0.79900  1.0000
  O   O22       1.0  0.56880  0.49280  0.79900  1.0000
  O   O23       1.0  0.43120  0.49280  0.70100  1.0000
  O   O24       1.0  0.06880  0.50720  0.70100  1.0000
  C   C1        1.0  0.96560  0.39860  0.01430  1.0000
  C   C2        1.0  0.53440  0.60140  0.01430  1.0000
  C   C3        1.0  0.46560  0.60140  0.48570  1.0000
  C   C4        1.0  0.03440  0.39860  0.48570  1.0000
  C   C5        1.0  0.03440  0.60140  0.98570  1.0000
  C   C6        1.0  0.46560  0.39860  0.98570  1.0000
  C   C7        1.0  0.53440  0.39860  0.51430  1.0000
  C   C8        1.0  0.96560  0.60140  0.51430  1.0000
  C   C9        1.0  0.00000  0.57600  0.25000  1.0000
  C   C10       1.0  0.50000  0.42400  0.25000  1.0000
  C   C11       1.0  0.00000  0.42400  0.75000  1.0000
  C   C12       1.0  0.50000  0.57600  0.75000  1.0000
  H   H1        1.0  0.00000  0.71708  0.25000  1.0000
  H   H2        1.0  0.50000  0.28292  0.25000  1.0000
  H   H3        1.0  0.00000  0.28292  0.75000  1.0000
  H   H4        1.0  0.50000  0.71708  0.75000  1.0000
  O   O25       1.0  0.23910  0.83440  0.15660  1.0000
  O   O26       1.0  0.26090  0.16560  0.15660  1.0000
  O   O27       1.0  0.73910  0.16560  0.34340  1.0000
  O   O28       1.0  0.76090  0.83440  0.34340  1.0000
  O   O29       1.0  0.76090  0.16560  0.84340  1.0000
  O   O30       1.0  0.73910  0.83440  0.84340  1.0000
  O   O31       1.0  0.26090  0.83440  0.65660  1.0000
  O   O32       1.0  0.23910  0.16560  0.65660  1.0000
  C   C13       1.0  0.25000  0.00000  0.12760  1.0000
  C   C14       1.0  0.75000  0.00000  0.37240  1.0000
  C   C15       1.0  0.75000  0.00000  0.87240  1.0000
  C   C16       1.0  0.25000  0.00000  0.62760  1.0000
  H   H5        1.0  0.25000  0.00000  0.07935  1.0000
  H   H6        1.0  0.75000  0.00000  0.42065  1.0000
  H   H7        1.0  0.75000  0.00000  0.92065  1.0000
  H   H8        1.0  0.25000  0.00000  0.57935  1.0000
