data_image0
_chemical_formula_structural       Er4O32C16H8
_chemical_formula_sum              "Er4 O32 C16 H8"
_cell_length_a       8.3846
_cell_length_b       6.5898
_cell_length_c       19.4181
_cell_angle_alpha    90
_cell_angle_beta     90
_cell_angle_gamma    90

_space_group_name_H-M_alt    "P 1"
_space_group_IT_number       1

loop_
  _space_group_symop_operation_xyz
  'x, y, z'

loop_
  _atom_site_type_symbol
  _atom_site_label
  _atom_site_symmetry_multiplicity
  _atom_site_fract_x
  _atom_site_fract_y
  _atom_site_fract_z
  _atom_site_occupancy
  Er  Er1       1.0  0.25000  0.50000  0.11599  1.0000
  Er  Er2       1.0  0.75000  0.50000  0.38401  1.0000
  Er  Er3       1.0  0.75000  0.50000  0.88401  1.0000
  Er  Er4       1.0  0.25000  0.50000  0.61599  1.0000
  O   O1        1.0  0.02070  0.33400  0.06990  1.0000
  O   O2        1.0  0.47930  0.66600  0.06990  1.0000
  O   O3        1.0  0.52070  0.66600  0.43010  1.0000
  O   O4        1.0  0.97930  0.33400  0.43010  1.0000
  O   O5        1.0  0.97930  0.66600  0.93010  1.0000
  O   O6        1.0  0.52070  0.33400  0.93010  1.0000
  O   O7        1.0  0.47930  0.33400  0.56990  1.0000
  O   O8        1.0  0.02070  0.66600  0.56990  1.0000
  O   O9        1.0  0.06490  0.49090  0.20020  1.0000
  O   O10       1.0  0.43510  0.50910  0.20020  1.0000
  O   O11       1.0  0.56490  0.50910  0.29980  1.0000
  O   O12       1.0  0.93510  0.49090  0.29980  1.0000
  O   O13       1.0  0.93510  0.50910  0.79980  1.0000
  O   O14       1.0  0.56490  0.49090  0.79980  1.0000
  O   O15       1.0  0.43510  0.49090  0.70020  1.0000
  O   O16       1.0  0.06490  0.50910  0.70020  1.0000
  O   O17       1.0  0.23870  0.83330  0.15680  1.0000
  O   O18       1.0  0.26130  0.16670  0.15680  1.0000
  O   O19       1.0  0.73870  0.16670  0.34320  1.0000
  O   O20       1.0  0.76130  0.83330  0.34320  1.0000
  O   O21       1.0  0.76130  0.16670  0.84320  1.0000
  O   O22       1.0  0.73870  0.83330  0.84320  1.0000
  O   O23       1.0  0.26130  0.83330  0.65680  1.0000
  O   O24       1.0  0.23870  0.16670  0.65680  1.0000
  O   O25       1.0  0.85460  0.32310  0.98000  1.0000
  O   O26       1.0  0.64540  0.67690  0.98000  1.0000
  O   O27       1.0  0.35460  0.67690  0.52000  1.0000
  O   O28       1.0  0.14540  0.32310  0.52000  1.0000
  O   O29       1.0  0.14540  0.67690  0.02000  1.0000
  O   O30       1.0  0.35460  0.32310  0.02000  1.0000
  O   O31       1.0  0.64540  0.32310  0.48000  1.0000
  O   O32       1.0  0.85460  0.67690  0.48000  1.0000
  C   C1        1.0  0.96320  0.39950  0.01420  1.0000
  C   C2        1.0  0.53680  0.60050  0.01420  1.0000
  C   C3        1.0  0.46320  0.60050  0.48580  1.0000
  C   C4        1.0  0.03680  0.39950  0.48580  1.0000
  C   C5        1.0  0.03680  0.60050  0.98580  1.0000
  C   C6        1.0  0.46320  0.39950  0.98580  1.0000
  C   C7        1.0  0.53680  0.39950  0.51420  1.0000
  C   C8        1.0  0.96320  0.60050  0.51420  1.0000
  C   C9        1.0  0.00000  0.57900  0.25000  1.0000
  C   C10       1.0  0.50000  0.42100  0.25000  1.0000
  C   C11       1.0  0.00000  0.42100  0.75000  1.0000
  C   C12       1.0  0.50000  0.57900  0.75000  1.0000
  C   C13       1.0  0.25000  1.00000  0.12720  1.0000
  C   C14       1.0  0.75000  0.00000  0.37280  1.0000
  C   C15       1.0  0.75000  0.00000  0.87280  1.0000
  C   C16       1.0  0.25000  1.00000  0.62720  1.0000
  H   H1        1.0  0.00000  0.72019  0.25000  1.0000
  H   H2        1.0  0.50000  0.27981  0.25000  1.0000
  H   H3        1.0  0.00000  0.27981  0.75000  1.0000
  H   H4        1.0  0.50000  0.72019  0.75000  1.0000
  H   H5        1.0  0.25000  1.00000  0.07934  1.0000
  H   H6        1.0  0.75000  0.00000  0.42066  1.0000
  H   H7        1.0  0.75000  0.00000  0.92066  1.0000
  H   H8        1.0  0.25000  1.00000  0.57934  1.0000
