data_image0
_chemical_formula_structural       Er2O16C16O12H4O4H4Er2
_chemical_formula_sum              "Er4 O32 C16 H8"
_cell_length_a       9.1445
_cell_length_b       9.0168
_cell_length_c       13.2244
_cell_angle_alpha    90
_cell_angle_beta     96.821
_cell_angle_gamma    90

_space_group_name_H-M_alt    "P 1"
_space_group_IT_number       1

loop_
  _space_group_symop_operation_xyz
  'x, y, z'

loop_
  _atom_site_type_symbol
  _atom_site_label
  _atom_site_symmetry_multiplicity
  _atom_site_fract_x
  _atom_site_fract_y
  _atom_site_fract_z
  _atom_site_occupancy
  Er  Er1       1.0  0.75000  0.75342  0.25000  1.0000
  Er  Er2       1.0  0.25000  0.24658  0.75000  1.0000
  O   O1        1.0  0.84660  0.95370  0.16350  1.0000
  O   O2        1.0  0.65340  0.95370  0.33650  1.0000
  O   O3        1.0  0.15340  0.04630  0.83650  1.0000
  O   O4        1.0  0.34660  0.04630  0.66350  1.0000
  O   O5        1.0  0.97630  0.84580  0.33700  1.0000
  O   O6        1.0  0.52370  0.84580  0.16300  1.0000
  O   O7        1.0  0.02370  0.15420  0.66300  1.0000
  O   O8        1.0  0.47630  0.15420  0.83700  1.0000
  O   O9        1.0  0.59130  0.55850  0.25260  1.0000
  O   O10       1.0  0.90870  0.55850  0.24740  1.0000
  O   O11       1.0  0.40870  0.44150  0.74740  1.0000
  O   O12       1.0  0.09130  0.44150  0.75260  1.0000
  O   O13       1.0  0.75400  0.67300  0.42040  1.0000
  O   O14       1.0  0.74600  0.67300  0.07960  1.0000
  O   O15       1.0  0.24600  0.32700  0.57960  1.0000
  O   O16       1.0  0.25400  0.32700  0.92040  1.0000
  C   C1        1.0  0.96460  0.01230  0.19930  1.0000
  C   C2        1.0  0.53540  0.01230  0.30070  1.0000
  C   C3        1.0  0.03540  0.98770  0.80070  1.0000
  C   C4        1.0  0.46460  0.98770  0.69930  1.0000
  C   C5        1.0  0.03890  0.95110  0.30010  1.0000
  C   C6        1.0  0.46110  0.95110  0.19990  1.0000
  C   C7        1.0  0.96110  0.04890  0.69990  1.0000
  C   C8        1.0  0.53890  0.04890  0.80010  1.0000
  C   C9        1.0  0.47730  0.50310  0.23420  1.0000
  C   C10       1.0  0.02270  0.50310  0.26580  1.0000
  C   C11       1.0  0.52270  0.49690  0.76580  1.0000
  C   C12       1.0  0.97730  0.49690  0.73420  1.0000
  C   C13       1.0  0.76760  0.74280  0.50160  1.0000
  C   C14       1.0  0.73240  0.74280  0.99840  1.0000
  C   C15       1.0  0.23240  0.25720  0.49840  1.0000
  C   C16       1.0  0.26760  0.25720  0.00160  1.0000
  O   O17       1.0  0.02850  0.11540  0.16060  1.0000
  O   O18       1.0  0.47150  0.11540  0.33940  1.0000
  O   O19       1.0  0.97150  0.88460  0.83940  1.0000
  O   O20       1.0  0.52850  0.88460  0.66060  1.0000
  O   O21       1.0  0.15490  0.01290  0.33740  1.0000
  O   O22       1.0  0.34510  0.01290  0.16260  1.0000
  O   O23       1.0  0.84510  0.98710  0.66260  1.0000
  O   O24       1.0  0.65490  0.98710  0.83740  1.0000
  O   O25       1.0  0.42480  0.39650  0.26530  1.0000
  O   O26       1.0  0.07520  0.39650  0.23470  1.0000
  O   O27       1.0  0.57520  0.60350  0.73470  1.0000
  O   O28       1.0  0.92480  0.60350  0.76530  1.0000
  H   H1        1.0  0.41490  0.55310  0.18490  1.0000
  H   H2        1.0  0.08510  0.55310  0.31510  1.0000
  H   H3        1.0  0.58510  0.44690  0.81510  1.0000
  H   H4        1.0  0.91490  0.44690  0.68490  1.0000
  O   O29       1.0  0.75590  0.69460  0.58540  1.0000
  O   O30       1.0  0.74410  0.69460  0.91460  1.0000
  O   O31       1.0  0.24410  0.30540  0.41460  1.0000
  O   O32       1.0  0.25590  0.30540  0.08540  1.0000
  H   H5        1.0  0.78930  0.84320  0.49770  1.0000
  H   H6        1.0  0.71070  0.84320  0.00230  1.0000
  H   H7        1.0  0.21070  0.15680  0.50230  1.0000
  H   H8        1.0  0.28930  0.15680  0.99770  1.0000
  Er  Er3       1.0  0.25000  0.21492  0.25000  1.0000
  Er  Er4       1.0  0.75000  0.78508  0.75000  1.0000
