data_image0
_chemical_formula_structural       Er4O32C12H4C4H4
_chemical_formula_sum              "Er4 O32 C16 H8"
_cell_length_a       9.1654
_cell_length_b       8.9841
_cell_length_c       13.1605
_cell_angle_alpha    90
_cell_angle_beta     97.185
_cell_angle_gamma    90

_space_group_name_H-M_alt    "P 1"
_space_group_IT_number       1

loop_
  _space_group_symop_operation_xyz
  'x, y, z'

loop_
  _atom_site_type_symbol
  _atom_site_label
  _atom_site_symmetry_multiplicity
  _atom_site_fract_x
  _atom_site_fract_y
  _atom_site_fract_z
  _atom_site_occupancy
  Er  Er1       1.0  0.25000  0.20763  0.75000  1.0000
  Er  Er2       1.0  0.75000  0.79237  0.25000  1.0000
  Er  Er3       1.0  0.75000  0.75192  0.75000  1.0000
  Er  Er4       1.0  0.25000  0.24808  0.25000  1.0000
  O   O1        1.0  0.74530  0.66640  0.57940  1.0000
  O   O2        1.0  0.75470  0.66640  0.92060  1.0000
  O   O3        1.0  0.25470  0.33360  0.42060  1.0000
  O   O4        1.0  0.24530  0.33360  0.07940  1.0000
  O   O5        1.0  0.52420  0.84080  0.66120  1.0000
  O   O6        1.0  0.97580  0.84080  0.83880  1.0000
  O   O7        1.0  0.47580  0.15920  0.33880  1.0000
  O   O8        1.0  0.02420  0.15920  0.16120  1.0000
  O   O9        1.0  0.65380  0.94820  0.83690  1.0000
  O   O10       1.0  0.84620  0.94820  0.66310  1.0000
  O   O11       1.0  0.34620  0.05180  0.16310  1.0000
  O   O12       1.0  0.15380  0.05180  0.33690  1.0000
  O   O13       1.0  0.34380  0.00880  0.66220  1.0000
  O   O14       1.0  0.15620  0.00880  0.83780  1.0000
  O   O15       1.0  0.65620  0.99120  0.33780  1.0000
  O   O16       1.0  0.84380  0.99120  0.16220  1.0000
  O   O17       1.0  0.73960  0.69330  0.41240  1.0000
  O   O18       1.0  0.76040  0.69330  0.08760  1.0000
  O   O19       1.0  0.26040  0.30670  0.58760  1.0000
  O   O20       1.0  0.23960  0.30670  0.91240  1.0000
  O   O21       1.0  0.42600  0.39030  0.76980  1.0000
  O   O22       1.0  0.07400  0.39030  0.73020  1.0000
  O   O23       1.0  0.57400  0.60970  0.23020  1.0000
  O   O24       1.0  0.92600  0.60970  0.26980  1.0000
  O   O25       1.0  0.59380  0.55560  0.75310  1.0000
  O   O26       1.0  0.90620  0.55560  0.74690  1.0000
  O   O27       1.0  0.40620  0.44440  0.24690  1.0000
  O   O28       1.0  0.09380  0.44440  0.25310  1.0000
  O   O29       1.0  0.47090  0.11100  0.84130  1.0000
  O   O30       1.0  0.02910  0.11100  0.65870  1.0000
  O   O31       1.0  0.52910  0.88900  0.15870  1.0000
  O   O32       1.0  0.97090  0.88900  0.34130  1.0000
  C   C1        1.0  0.53420  0.00730  0.80130  1.0000
  C   C2        1.0  0.96580  0.00730  0.69870  1.0000
  C   C3        1.0  0.46580  0.99270  0.19870  1.0000
  C   C4        1.0  0.03420  0.99270  0.30130  1.0000
  C   C5        1.0  0.46100  0.94690  0.69880  1.0000
  C   C6        1.0  0.03900  0.94690  0.80120  1.0000
  C   C7        1.0  0.53900  0.05310  0.30120  1.0000
  C   C8        1.0  0.96100  0.05310  0.19880  1.0000
  C   C9        1.0  0.72570  0.74330  0.49870  1.0000
  C   C10       1.0  0.77430  0.74330  0.00130  1.0000
  C   C11       1.0  0.27430  0.25670  0.50130  1.0000
  C   C12       1.0  0.22570  0.25670  0.99870  1.0000
  H   H1        1.0  0.69940  0.84270  0.50400  1.0000
  H   H2        1.0  0.80060  0.84270  0.99600  1.0000
  H   H3        1.0  0.30060  0.15730  0.49600  1.0000
  H   H4        1.0  0.19940  0.15730  0.00400  1.0000
  C   C13       1.0  0.47290  0.50210  0.73040  1.0000
  C   C14       1.0  0.02710  0.50210  0.76960  1.0000
  C   C15       1.0  0.52710  0.49790  0.26960  1.0000
  C   C16       1.0  0.97290  0.49790  0.23040  1.0000
  H   H5        1.0  0.41040  0.54920  0.67920  1.0000
  H   H6        1.0  0.08960  0.54920  0.82080  1.0000
  H   H7        1.0  0.58960  0.45080  0.32080  1.0000
  H   H8        1.0  0.91040  0.45080  0.17920  1.0000
