data_image0
_chemical_formula_structural       Mg8O56N8C24H8C8H8C8H8C8H8C8H16C16H16C16H16C8
_chemical_formula_sum              "Mg8 O56 N8 C96 H80"
_cell_length_a       24.2955
_cell_length_b       9.4801
_cell_length_c       18.5395
_cell_angle_alpha    90
_cell_angle_beta     103.947
_cell_angle_gamma    90

_space_group_name_H-M_alt    "P 1"
_space_group_IT_number       1

loop_
  _space_group_symop_operation_xyz
  'x, y, z'

loop_
  _atom_site_type_symbol
  _atom_site_label
  _atom_site_symmetry_multiplicity
  _atom_site_fract_x
  _atom_site_fract_y
  _atom_site_fract_z
  _atom_site_occupancy
  Mg  Mg1       1.0  0.26440  0.60674  0.30378  1.0000
  Mg  Mg2       1.0  0.73560  0.60674  0.19622  1.0000
  Mg  Mg3       1.0  0.76440  0.10674  0.30378  1.0000
  Mg  Mg4       1.0  0.23560  0.10674  0.19622  1.0000
  Mg  Mg5       1.0  0.73560  0.39326  0.69622  1.0000
  Mg  Mg6       1.0  0.26440  0.39326  0.80378  1.0000
  Mg  Mg7       1.0  0.23560  0.89326  0.69622  1.0000
  Mg  Mg8       1.0  0.76440  0.89326  0.80378  1.0000
  O   O1        1.0  0.29604  0.72482  0.40358  1.0000
  O   O2        1.0  0.70396  0.72482  0.09642  1.0000
  O   O3        1.0  0.79604  0.22482  0.40358  1.0000
  O   O4        1.0  0.20396  0.22482  0.09642  1.0000
  O   O5        1.0  0.70396  0.27518  0.59642  1.0000
  O   O6        1.0  0.29604  0.27518  0.90358  1.0000
  O   O7        1.0  0.20396  0.77518  0.59642  1.0000
  O   O8        1.0  0.79604  0.77518  0.90358  1.0000
  O   O9        1.0  0.34531  0.56834  0.29606  1.0000
  O   O10       1.0  0.65469  0.56834  0.20394  1.0000
  O   O11       1.0  0.84531  0.06834  0.29606  1.0000
  O   O12       1.0  0.15469  0.06834  0.20394  1.0000
  O   O13       1.0  0.65469  0.43166  0.70394  1.0000
  O   O14       1.0  0.34531  0.43166  0.79606  1.0000
  O   O15       1.0  0.15469  0.93166  0.70394  1.0000
  O   O16       1.0  0.84531  0.93166  0.79606  1.0000
  O   O17       1.0  0.26877  0.04181  0.30306  1.0000
  O   O18       1.0  0.73123  0.04181  0.19694  1.0000
  O   O19       1.0  0.76877  0.54181  0.30306  1.0000
  O   O20       1.0  0.23123  0.54181  0.19694  1.0000
  O   O21       1.0  0.73123  0.95819  0.69694  1.0000
  O   O22       1.0  0.26877  0.95819  0.80306  1.0000
  O   O23       1.0  0.23123  0.45819  0.69694  1.0000
  O   O24       1.0  0.76877  0.45819  0.80306  1.0000
  O   O25       1.0  0.19247  0.54963  0.33441  1.0000
  O   O26       1.0  0.80753  0.54963  0.16559  1.0000
  O   O27       1.0  0.69247  0.04963  0.33441  1.0000
  O   O28       1.0  0.30753  0.04963  0.16559  1.0000
  O   O29       1.0  0.80753  0.45037  0.66559  1.0000
  O   O30       1.0  0.19247  0.45037  0.83441  1.0000
  O   O31       1.0  0.30753  0.95037  0.66559  1.0000
  O   O32       1.0  0.69247  0.95037  0.83441  1.0000
  O   O33       1.0  0.25276  0.81420  0.27451  1.0000
  O   O34       1.0  0.74724  0.81420  0.22549  1.0000
  O   O35       1.0  0.75276  0.31420  0.27451  1.0000
  O   O36       1.0  0.24724  0.31420  0.22549  1.0000
  O   O37       1.0  0.74724  0.18580  0.72549  1.0000
  O   O38       1.0  0.25276  0.18580  0.77451  1.0000
  O   O39       1.0  0.24724  0.68580  0.72549  1.0000
  O   O40       1.0  0.75276  0.68580  0.77451  1.0000
  O   O41       1.0  0.40916  0.39870  0.29752  1.0000
  O   O42       1.0  0.59084  0.39870  0.20248  1.0000
  O   O43       1.0  0.90916  0.89870  0.29752  1.0000
  O   O44       1.0  0.09084  0.89870  0.20248  1.0000
  O   O45       1.0  0.59084  0.60130  0.70248  1.0000
  O   O46       1.0  0.40916  0.60130  0.79752  1.0000
  O   O47       1.0  0.09084  0.10130  0.70248  1.0000
  O   O48       1.0  0.90916  0.10130  0.79752  1.0000
  O   O49       1.0  0.15165  0.40445  0.40132  1.0000
  O   O50       1.0  0.84835  0.40445  0.09868  1.0000
  O   O51       1.0  0.65165  0.90445  0.40132  1.0000
  O   O52       1.0  0.34835  0.90445  0.09868  1.0000
  O   O53       1.0  0.84835  0.59555  0.59868  1.0000
  O   O54       1.0  0.15165  0.59555  0.90132  1.0000
  O   O55       1.0  0.34835  0.09555  0.59868  1.0000
  O   O56       1.0  0.65165  0.09555  0.90132  1.0000
  N   N1        1.0  0.29648  0.44004  0.39489  1.0000
  N   N2        1.0  0.70352  0.44004  0.10511  1.0000
  N   N3        1.0  0.79648  0.94004  0.39489  1.0000
  N   N4        1.0  0.20352  0.94004  0.10511  1.0000
  N   N5        1.0  0.70352  0.55996  0.60511  1.0000
  N   N6        1.0  0.29648  0.55996  0.89489  1.0000
  N   N7        1.0  0.20352  0.05996  0.60511  1.0000
  N   N8        1.0  0.79648  0.05996  0.89489  1.0000
  C   C1        1.0  0.31331  0.65668  0.47115  1.0000
  C   C2        1.0  0.68669  0.65668  0.02885  1.0000
  C   C3        1.0  0.81331  0.15668  0.47115  1.0000
  C   C4        1.0  0.18669  0.15668  0.02885  1.0000
  C   C5        1.0  0.68669  0.34332  0.52885  1.0000
  C   C6        1.0  0.31331  0.34332  0.97115  1.0000
  C   C7        1.0  0.18669  0.84332  0.52885  1.0000
  C   C8        1.0  0.81331  0.84332  0.97115  1.0000
  C   C9        1.0  0.31426  0.50969  0.46716  1.0000
  C   C10       1.0  0.68574  0.50969  0.03284  1.0000
  C   C11       1.0  0.81426  0.00969  0.46716  1.0000
  C   C12       1.0  0.18574  0.00969  0.03284  1.0000
  C   C13       1.0  0.68574  0.49031  0.53284  1.0000
  C   C14       1.0  0.31426  0.49031  0.96716  1.0000
  C   C15       1.0  0.18574  0.99031  0.53284  1.0000
  C   C16       1.0  0.81426  0.99031  0.96716  1.0000
  C   C17       1.0  0.33049  0.43321  0.53314  1.0000
  C   C18       1.0  0.66951  0.43321  0.96686  1.0000
  C   C19       1.0  0.83049  0.93321  0.53314  1.0000
  C   C20       1.0  0.16951  0.93321  0.96686  1.0000
  C   C21       1.0  0.66951  0.56679  0.46686  1.0000
  C   C22       1.0  0.33049  0.56679  0.03314  1.0000
  C   C23       1.0  0.16951  0.06679  0.46686  1.0000
  C   C24       1.0  0.83049  0.06679  0.03314  1.0000
  H   H1        1.0  0.33190  0.33320  0.53150  1.0000
  H   H2        1.0  0.66810  0.33320  0.96850  1.0000
  H   H3        1.0  0.83190  0.83320  0.53150  1.0000
  H   H4        1.0  0.16810  0.83320  0.96850  1.0000
  H   H5        1.0  0.66810  0.66680  0.46850  1.0000
  H   H6        1.0  0.33190  0.66680  0.03150  1.0000
  H   H7        1.0  0.16810  0.16680  0.46850  1.0000
  H   H8        1.0  0.83190  0.16680  0.03150  1.0000
  C   C25       1.0  0.34457  0.50209  0.60143  1.0000
  C   C26       1.0  0.65543  0.50209  0.89857  1.0000
  C   C27       1.0  0.84457  0.00209  0.60143  1.0000
  C   C28       1.0  0.15543  0.00209  0.89857  1.0000
  C   C29       1.0  0.65543  0.49791  0.39857  1.0000
  C   C30       1.0  0.34457  0.49791  0.10143  1.0000
  C   C31       1.0  0.15543  0.99791  0.39857  1.0000
  C   C32       1.0  0.84457  0.99791  0.10143  1.0000
  H   H9        1.0  0.35480  0.44920  0.64620  1.0000
  H   H10       1.0  0.64520  0.44920  0.85380  1.0000
  H   H11       1.0  0.85480  0.94920  0.64620  1.0000
  H   H12       1.0  0.14520  0.94920  0.85380  1.0000
  H   H13       1.0  0.64520  0.55080  0.35380  1.0000
  H   H14       1.0  0.35480  0.55080  0.14620  1.0000
  H   H15       1.0  0.14520  0.05080  0.35380  1.0000
  H   H16       1.0  0.85480  0.05080  0.14620  1.0000
  C   C33       1.0  0.34355  0.64802  0.60392  1.0000
  C   C34       1.0  0.65645  0.64802  0.89608  1.0000
  C   C35       1.0  0.84355  0.14802  0.60392  1.0000
  C   C36       1.0  0.15645  0.14802  0.89608  1.0000
  C   C37       1.0  0.65645  0.35198  0.39608  1.0000
  C   C38       1.0  0.34355  0.35198  0.10392  1.0000
  C   C39       1.0  0.15645  0.85198  0.39608  1.0000
  C   C40       1.0  0.84355  0.85198  0.10392  1.0000
  H   H17       1.0  0.35340  0.69480  0.65060  1.0000
  H   H18       1.0  0.64660  0.69480  0.84940  1.0000
  H   H19       1.0  0.85340  0.19480  0.65060  1.0000
  H   H20       1.0  0.14660  0.19480  0.84940  1.0000
  H   H21       1.0  0.64660  0.30520  0.34940  1.0000
  H   H22       1.0  0.35340  0.30520  0.15060  1.0000
  H   H23       1.0  0.14660  0.80520  0.34940  1.0000
  H   H24       1.0  0.85340  0.80520  0.15060  1.0000
  C   C41       1.0  0.32824  0.72692  0.53881  1.0000
  C   C42       1.0  0.67176  0.72692  0.96119  1.0000
  C   C43       1.0  0.82824  0.22692  0.53881  1.0000
  C   C44       1.0  0.17176  0.22692  0.96119  1.0000
  C   C45       1.0  0.67176  0.27308  0.46119  1.0000
  C   C46       1.0  0.32824  0.27308  0.03881  1.0000
  C   C47       1.0  0.17176  0.77308  0.46119  1.0000
  C   C48       1.0  0.82824  0.77308  0.03881  1.0000
  H   H25       1.0  0.32800  0.82710  0.54060  1.0000
  H   H26       1.0  0.67200  0.82710  0.95940  1.0000
  H   H27       1.0  0.82800  0.32710  0.54060  1.0000
  H   H28       1.0  0.17200  0.32710  0.95940  1.0000
  H   H29       1.0  0.67200  0.17290  0.45940  1.0000
  H   H30       1.0  0.32800  0.17290  0.04060  1.0000
  H   H31       1.0  0.17200  0.67290  0.45940  1.0000
  H   H32       1.0  0.82800  0.67290  0.04060  1.0000
  C   C49       1.0  0.29661  0.87569  0.39996  1.0000
  C   C50       1.0  0.70339  0.87569  0.10004  1.0000
  C   C51       1.0  0.79661  0.37569  0.39996  1.0000
  C   C52       1.0  0.20339  0.37569  0.10004  1.0000
  C   C53       1.0  0.70339  0.12431  0.60004  1.0000
  C   C54       1.0  0.29661  0.12431  0.89996  1.0000
  C   C55       1.0  0.20339  0.62431  0.60004  1.0000
  C   C56       1.0  0.79661  0.62431  0.89996  1.0000
  H   H33       1.0  0.33590  0.91180  0.41570  1.0000
  H   H34       1.0  0.66410  0.91180  0.08430  1.0000
  H   H35       1.0  0.83590  0.41180  0.41570  1.0000
  H   H36       1.0  0.16410  0.41180  0.08430  1.0000
  H   H37       1.0  0.66410  0.08820  0.58430  1.0000
  H   H38       1.0  0.33590  0.08820  0.91570  1.0000
  H   H39       1.0  0.16410  0.58820  0.58430  1.0000
  H   H40       1.0  0.83590  0.58820  0.91570  1.0000
  H   H41       1.0  0.27400  0.91680  0.43260  1.0000
  H   H42       1.0  0.72600  0.91680  0.06740  1.0000
  H   H43       1.0  0.77400  0.41680  0.43260  1.0000
  H   H44       1.0  0.22600  0.41680  0.06740  1.0000
  H   H45       1.0  0.72600  0.08320  0.56740  1.0000
  H   H46       1.0  0.27400  0.08320  0.93260  1.0000
  H   H47       1.0  0.22600  0.58320  0.56740  1.0000
  H   H48       1.0  0.77400  0.58320  0.93260  1.0000
  C   C57       1.0  0.27065  0.91326  0.31920  1.0000
  C   C58       1.0  0.72935  0.91326  0.18080  1.0000
  C   C59       1.0  0.77065  0.41326  0.31920  1.0000
  C   C60       1.0  0.22935  0.41326  0.18080  1.0000
  C   C61       1.0  0.72935  0.08674  0.68080  1.0000
  C   C62       1.0  0.27065  0.08674  0.81920  1.0000
  C   C63       1.0  0.22935  0.58674  0.68080  1.0000
  C   C64       1.0  0.77065  0.58674  0.81920  1.0000
  C   C65       1.0  0.34385  0.36504  0.37328  1.0000
  C   C66       1.0  0.65615  0.36504  0.12672  1.0000
  C   C67       1.0  0.84385  0.86504  0.37328  1.0000
  C   C68       1.0  0.15615  0.86504  0.12672  1.0000
  C   C69       1.0  0.65615  0.63496  0.62672  1.0000
  C   C70       1.0  0.34385  0.63496  0.87328  1.0000
  C   C71       1.0  0.15615  0.13496  0.62672  1.0000
  C   C72       1.0  0.84385  0.13496  0.87328  1.0000
  H   H49       1.0  0.33010  0.27290  0.35090  1.0000
  H   H50       1.0  0.66990  0.27290  0.14910  1.0000
  H   H51       1.0  0.83010  0.77290  0.35090  1.0000
  H   H52       1.0  0.16990  0.77290  0.14910  1.0000
  H   H53       1.0  0.66990  0.72710  0.64910  1.0000
  H   H54       1.0  0.33010  0.72710  0.85090  1.0000
  H   H55       1.0  0.16990  0.22710  0.64910  1.0000
  H   H56       1.0  0.83010  0.22710  0.85090  1.0000
  H   H57       1.0  0.37440  0.34670  0.41830  1.0000
  H   H58       1.0  0.62560  0.34670  0.08170  1.0000
  H   H59       1.0  0.87440  0.84670  0.41830  1.0000
  H   H60       1.0  0.12560  0.84670  0.08170  1.0000
  H   H61       1.0  0.62560  0.65330  0.58170  1.0000
  H   H62       1.0  0.37440  0.65330  0.91830  1.0000
  H   H63       1.0  0.12560  0.15330  0.58170  1.0000
  H   H64       1.0  0.87440  0.15330  0.91830  1.0000
  C   C73       1.0  0.36794  0.44996  0.31779  1.0000
  C   C74       1.0  0.63206  0.44996  0.18221  1.0000
  C   C75       1.0  0.86794  0.94996  0.31779  1.0000
  C   C76       1.0  0.13206  0.94996  0.18221  1.0000
  C   C77       1.0  0.63206  0.55004  0.68221  1.0000
  C   C78       1.0  0.36794  0.55004  0.81779  1.0000
  C   C79       1.0  0.13206  0.05004  0.68221  1.0000
  C   C80       1.0  0.86794  0.05004  0.81779  1.0000
  C   C81       1.0  0.24585  0.35179  0.39299  1.0000
  C   C82       1.0  0.75415  0.35179  0.10701  1.0000
  C   C83       1.0  0.74585  0.85179  0.39299  1.0000
  C   C84       1.0  0.25415  0.85179  0.10701  1.0000
  C   C85       1.0  0.75415  0.64821  0.60701  1.0000
  C   C86       1.0  0.24585  0.64821  0.89299  1.0000
  C   C87       1.0  0.25415  0.14821  0.60701  1.0000
  C   C88       1.0  0.74585  0.14821  0.89299  1.0000
  H   H65       1.0  0.24980  0.30490  0.44170  1.0000
  H   H66       1.0  0.75020  0.30490  0.05830  1.0000
  H   H67       1.0  0.74980  0.80490  0.44170  1.0000
  H   H68       1.0  0.25020  0.80490  0.05830  1.0000
  H   H69       1.0  0.75020  0.69510  0.55830  1.0000
  H   H70       1.0  0.24980  0.69510  0.94170  1.0000
  H   H71       1.0  0.25020  0.19510  0.55830  1.0000
  H   H72       1.0  0.74980  0.19510  0.94170  1.0000
  H   H73       1.0  0.24290  0.27770  0.35460  1.0000
  H   H74       1.0  0.75710  0.27770  0.14540  1.0000
  H   H75       1.0  0.74290  0.77770  0.35460  1.0000
  H   H76       1.0  0.25710  0.77770  0.14540  1.0000
  H   H77       1.0  0.75710  0.72230  0.64540  1.0000
  H   H78       1.0  0.24290  0.72230  0.85460  1.0000
  H   H79       1.0  0.25710  0.22230  0.64540  1.0000
  H   H80       1.0  0.74290  0.22230  0.85460  1.0000
  C   C89       1.0  0.19230  0.44196  0.37560  1.0000
  C   C90       1.0  0.80770  0.44196  0.12440  1.0000
  C   C91       1.0  0.69230  0.94196  0.37560  1.0000
  C   C92       1.0  0.30770  0.94196  0.12440  1.0000
  C   C93       1.0  0.80770  0.55804  0.62440  1.0000
  C   C94       1.0  0.19230  0.55804  0.87560  1.0000
  C   C95       1.0  0.30770  0.05804  0.62440  1.0000
  C   C96       1.0  0.69230  0.05804  0.87560  1.0000
