data_image0
_chemical_formula_structural       Zn48N144O144C8H8C8H8C8H8C8H8C8H8C8H8C8H8C8H8C8H8C8H8C8H8C8H8C72
_chemical_formula_sum              "Zn48 N144 O144 C168 H96"
_cell_length_a       23.8935
_cell_length_b       18.9861
_cell_length_c       25.1041
_cell_angle_alpha    90
_cell_angle_beta     114.315
_cell_angle_gamma    90

_space_group_name_H-M_alt    "P 1"
_space_group_IT_number       1

loop_
  _space_group_symop_operation_xyz
  'x, y, z'

loop_
  _atom_site_type_symbol
  _atom_site_label
  _atom_site_symmetry_multiplicity
  _atom_site_fract_x
  _atom_site_fract_y
  _atom_site_fract_z
  _atom_site_occupancy
  Zn  Zn1       1.0  0.50380  0.95458  0.89760  1.0000
  Zn  Zn2       1.0  0.49620  0.95458  0.60240  1.0000
  Zn  Zn3       1.0  0.00380  0.45458  0.89760  1.0000
  Zn  Zn4       1.0  0.99620  0.45458  0.60240  1.0000
  Zn  Zn5       1.0  0.49620  0.04542  0.10240  1.0000
  Zn  Zn6       1.0  0.50380  0.04542  0.39760  1.0000
  Zn  Zn7       1.0  0.99620  0.54542  0.10240  1.0000
  Zn  Zn8       1.0  0.00380  0.54542  0.39760  1.0000
  Zn  Zn9       1.0  0.50000  0.95807  0.75000  1.0000
  Zn  Zn10      1.0  0.00000  0.45807  0.75000  1.0000
  Zn  Zn11      1.0  0.50000  0.04193  0.25000  1.0000
  Zn  Zn12      1.0  0.00000  0.54193  0.25000  1.0000
  Zn  Zn13      1.0  0.50742  0.46405  0.89731  1.0000
  Zn  Zn14      1.0  0.49258  0.46405  0.60269  1.0000
  Zn  Zn15      1.0  0.00742  0.96405  0.89731  1.0000
  Zn  Zn16      1.0  0.99258  0.96405  0.60269  1.0000
  Zn  Zn17      1.0  0.49258  0.53595  0.10269  1.0000
  Zn  Zn18      1.0  0.50742  0.53595  0.39731  1.0000
  Zn  Zn19      1.0  0.99258  0.03595  0.10269  1.0000
  Zn  Zn20      1.0  0.00742  0.03595  0.39731  1.0000
  Zn  Zn21      1.0  0.50000  0.45746  0.75000  1.0000
  Zn  Zn22      1.0  0.00000  0.95746  0.75000  1.0000
  Zn  Zn23      1.0  0.50000  0.54254  0.25000  1.0000
  Zn  Zn24      1.0  0.00000  0.04254  0.25000  1.0000
  Zn  Zn25      1.0  0.24920  0.04735  0.74808  1.0000
  Zn  Zn26      1.0  0.75080  0.04735  0.75192  1.0000
  Zn  Zn27      1.0  0.74920  0.54735  0.74808  1.0000
  Zn  Zn28      1.0  0.25080  0.54735  0.75192  1.0000
  Zn  Zn29      1.0  0.75080  0.95265  0.25192  1.0000
  Zn  Zn30      1.0  0.24920  0.95265  0.24808  1.0000
  Zn  Zn31      1.0  0.25080  0.45265  0.25192  1.0000
  Zn  Zn32      1.0  0.74920  0.45265  0.24808  1.0000
  Zn  Zn33      1.0  0.66659  0.20840  0.89018  1.0000
  Zn  Zn34      1.0  0.33341  0.20840  0.60982  1.0000
  Zn  Zn35      1.0  0.16659  0.70840  0.89018  1.0000
  Zn  Zn36      1.0  0.83341  0.70840  0.60982  1.0000
  Zn  Zn37      1.0  0.33341  0.79160  0.10982  1.0000
  Zn  Zn38      1.0  0.66659  0.79160  0.39018  1.0000
  Zn  Zn39      1.0  0.83341  0.29160  0.10982  1.0000
  Zn  Zn40      1.0  0.16659  0.29160  0.39018  1.0000
  Zn  Zn41      1.0  0.67060  0.71049  0.88801  1.0000
  Zn  Zn42      1.0  0.32940  0.71049  0.61199  1.0000
  Zn  Zn43      1.0  0.17060  0.21049  0.88801  1.0000
  Zn  Zn44      1.0  0.82940  0.21049  0.61199  1.0000
  Zn  Zn45      1.0  0.32940  0.28951  0.11199  1.0000
  Zn  Zn46      1.0  0.67060  0.28951  0.38801  1.0000
  Zn  Zn47      1.0  0.82940  0.78951  0.11199  1.0000
  Zn  Zn48      1.0  0.17060  0.78951  0.38801  1.0000
  N   N1        1.0  0.42270  0.96120  0.82740  1.0000
  N   N2        1.0  0.57730  0.96120  0.67260  1.0000
  N   N3        1.0  0.92270  0.46120  0.82740  1.0000
  N   N4        1.0  0.07730  0.46120  0.67260  1.0000
  N   N5        1.0  0.57730  0.03880  0.17260  1.0000
  N   N6        1.0  0.42270  0.03880  0.32740  1.0000
  N   N7        1.0  0.07730  0.53880  0.17260  1.0000
  N   N8        1.0  0.92270  0.53880  0.32740  1.0000
  N   N9        1.0  0.41780  0.95890  0.77190  1.0000
  N   N10       1.0  0.58220  0.95890  0.72810  1.0000
  N   N11       1.0  0.91780  0.45890  0.77190  1.0000
  N   N12       1.0  0.08220  0.45890  0.72810  1.0000
  N   N13       1.0  0.58220  0.04110  0.22810  1.0000
  N   N14       1.0  0.41780  0.04110  0.27190  1.0000
  N   N15       1.0  0.08220  0.54110  0.22810  1.0000
  N   N16       1.0  0.91780  0.54110  0.27190  1.0000
  N   N17       1.0  0.32600  0.98450  0.76940  1.0000
  N   N18       1.0  0.67400  0.98450  0.73060  1.0000
  N   N19       1.0  0.82600  0.48450  0.76940  1.0000
  N   N20       1.0  0.17400  0.48450  0.73060  1.0000
  N   N21       1.0  0.67400  0.01550  0.23060  1.0000
  N   N22       1.0  0.32600  0.01550  0.26940  1.0000
  N   N23       1.0  0.17400  0.51550  0.23060  1.0000
  N   N24       1.0  0.82600  0.51550  0.26940  1.0000
  N   N25       1.0  0.54600  0.03620  0.87320  1.0000
  N   N26       1.0  0.45400  0.03620  0.62680  1.0000
  N   N27       1.0  0.04600  0.53620  0.87320  1.0000
  N   N28       1.0  0.95400  0.53620  0.62680  1.0000
  N   N29       1.0  0.45400  0.96380  0.12680  1.0000
  N   N30       1.0  0.54600  0.96380  0.37320  1.0000
  N   N31       1.0  0.95400  0.46380  0.12680  1.0000
  N   N32       1.0  0.04600  0.46380  0.37320  1.0000
  N   N33       1.0  0.54010  0.03950  0.81610  1.0000
  N   N34       1.0  0.45990  0.03950  0.68390  1.0000
  N   N35       1.0  0.04010  0.53950  0.81610  1.0000
  N   N36       1.0  0.95990  0.53950  0.68390  1.0000
  N   N37       1.0  0.45990  0.96050  0.18390  1.0000
  N   N38       1.0  0.54010  0.96050  0.31610  1.0000
  N   N39       1.0  0.95990  0.46050  0.18390  1.0000
  N   N40       1.0  0.04010  0.46050  0.31610  1.0000
  N   N41       1.0  0.59910  0.12930  0.86580  1.0000
  N   N42       1.0  0.40090  0.12930  0.63420  1.0000
  N   N43       1.0  0.09910  0.62930  0.86580  1.0000
  N   N44       1.0  0.90090  0.62930  0.63420  1.0000
  N   N45       1.0  0.40090  0.87070  0.13420  1.0000
  N   N46       1.0  0.59910  0.87070  0.36580  1.0000
  N   N47       1.0  0.90090  0.37070  0.13420  1.0000
  N   N48       1.0  0.09910  0.37070  0.36580  1.0000
  N   N49       1.0  0.54670  0.88000  0.81590  1.0000
  N   N50       1.0  0.45330  0.88000  0.68410  1.0000
  N   N51       1.0  0.04670  0.38000  0.81590  1.0000
  N   N52       1.0  0.95330  0.38000  0.68410  1.0000
  N   N53       1.0  0.45330  0.12000  0.18410  1.0000
  N   N54       1.0  0.54670  0.12000  0.31590  1.0000
  N   N55       1.0  0.95330  0.62000  0.18410  1.0000
  N   N56       1.0  0.04670  0.62000  0.31590  1.0000
  N   N57       1.0  0.54810  0.87840  0.87110  1.0000
  N   N58       1.0  0.45190  0.87840  0.62890  1.0000
  N   N59       1.0  0.04810  0.37840  0.87110  1.0000
  N   N60       1.0  0.95190  0.37840  0.62890  1.0000
  N   N61       1.0  0.45190  0.12160  0.12890  1.0000
  N   N62       1.0  0.54810  0.12160  0.37110  1.0000
  N   N63       1.0  0.95190  0.62160  0.12890  1.0000
  N   N64       1.0  0.04810  0.62160  0.37110  1.0000
  N   N65       1.0  0.61020  0.79450  0.86580  1.0000
  N   N66       1.0  0.38980  0.79450  0.63420  1.0000
  N   N67       1.0  0.11020  0.29450  0.86580  1.0000
  N   N68       1.0  0.88980  0.29450  0.63420  1.0000
  N   N69       1.0  0.38980  0.20550  0.13420  1.0000
  N   N70       1.0  0.61020  0.20550  0.36580  1.0000
  N   N71       1.0  0.88980  0.70550  0.13420  1.0000
  N   N72       1.0  0.11020  0.70550  0.36580  1.0000
  N   N73       1.0  0.42500  0.46140  0.83000  1.0000
  N   N74       1.0  0.57500  0.46140  0.67000  1.0000
  N   N75       1.0  0.92500  0.96140  0.83000  1.0000
  N   N76       1.0  0.07500  0.96140  0.67000  1.0000
  N   N77       1.0  0.57500  0.53860  0.17000  1.0000
  N   N78       1.0  0.42500  0.53860  0.33000  1.0000
  N   N79       1.0  0.07500  0.03860  0.17000  1.0000
  N   N80       1.0  0.92500  0.03860  0.33000  1.0000
  N   N81       1.0  0.41870  0.45780  0.77370  1.0000
  N   N82       1.0  0.58130  0.45780  0.72630  1.0000
  N   N83       1.0  0.91870  0.95780  0.77370  1.0000
  N   N84       1.0  0.08130  0.95780  0.72630  1.0000
  N   N85       1.0  0.58130  0.54220  0.22630  1.0000
  N   N86       1.0  0.41870  0.54220  0.27370  1.0000
  N   N87       1.0  0.08130  0.04220  0.22630  1.0000
  N   N88       1.0  0.91870  0.04220  0.27370  1.0000
  N   N89       1.0  0.32820  0.48440  0.77290  1.0000
  N   N90       1.0  0.67180  0.48440  0.72710  1.0000
  N   N91       1.0  0.82820  0.98440  0.77290  1.0000
  N   N92       1.0  0.17180  0.98440  0.72710  1.0000
  N   N93       1.0  0.67180  0.51560  0.22710  1.0000
  N   N94       1.0  0.32820  0.51560  0.27290  1.0000
  N   N95       1.0  0.17180  0.01560  0.22710  1.0000
  N   N96       1.0  0.82820  0.01560  0.27290  1.0000
  N   N97       1.0  0.55210  0.53830  0.87170  1.0000
  N   N98       1.0  0.44790  0.53830  0.62830  1.0000
  N   N99       1.0  0.05210  0.03830  0.87170  1.0000
  N   N100      1.0  0.94790  0.03830  0.62830  1.0000
  N   N101      1.0  0.44790  0.46170  0.12830  1.0000
  N   N102      1.0  0.55210  0.46170  0.37170  1.0000
  N   N103      1.0  0.94790  0.96170  0.12830  1.0000
  N   N104      1.0  0.05210  0.96170  0.37170  1.0000
  N   N105      1.0  0.54370  0.54090  0.81460  1.0000
  N   N106      1.0  0.45630  0.54090  0.68540  1.0000
  N   N107      1.0  0.04370  0.04090  0.81460  1.0000
  N   N108      1.0  0.95630  0.04090  0.68540  1.0000
  N   N109      1.0  0.45630  0.45910  0.18540  1.0000
  N   N110      1.0  0.54370  0.45910  0.31460  1.0000
  N   N111      1.0  0.95630  0.95910  0.18540  1.0000
  N   N112      1.0  0.04370  0.95910  0.31460  1.0000
  N   N113      1.0  0.60300  0.63100  0.86180  1.0000
  N   N114      1.0  0.39700  0.63100  0.63820  1.0000
  N   N115      1.0  0.10300  0.13100  0.86180  1.0000
  N   N116      1.0  0.89700  0.13100  0.63820  1.0000
  N   N117      1.0  0.39700  0.36900  0.13820  1.0000
  N   N118      1.0  0.60300  0.36900  0.36180  1.0000
  N   N119      1.0  0.89700  0.86900  0.13820  1.0000
  N   N120      1.0  0.10300  0.86900  0.36180  1.0000
  N   N121      1.0  0.54850  0.38110  0.87280  1.0000
  N   N122      1.0  0.45150  0.38110  0.62720  1.0000
  N   N123      1.0  0.04850  0.88110  0.87280  1.0000
  N   N124      1.0  0.95150  0.88110  0.62720  1.0000
  N   N125      1.0  0.45150  0.61890  0.12720  1.0000
  N   N126      1.0  0.54850  0.61890  0.37280  1.0000
  N   N127      1.0  0.95150  0.11890  0.12720  1.0000
  N   N128      1.0  0.04850  0.11890  0.37280  1.0000
  N   N129      1.0  0.54620  0.38030  0.81700  1.0000
  N   N130      1.0  0.45380  0.38030  0.68300  1.0000
  N   N131      1.0  0.04620  0.88030  0.81700  1.0000
  N   N132      1.0  0.95380  0.88030  0.68300  1.0000
  N   N133      1.0  0.45380  0.61970  0.18300  1.0000
  N   N134      1.0  0.54620  0.61970  0.31700  1.0000
  N   N135      1.0  0.95380  0.11970  0.18300  1.0000
  N   N136      1.0  0.04620  0.11970  0.31700  1.0000
  N   N137      1.0  0.60710  0.29420  0.86760  1.0000
  N   N138      1.0  0.39290  0.29420  0.63240  1.0000
  N   N139      1.0  0.10710  0.79420  0.86760  1.0000
  N   N140      1.0  0.89290  0.79420  0.63240  1.0000
  N   N141      1.0  0.39290  0.70580  0.13240  1.0000
  N   N142      1.0  0.60710  0.70580  0.36760  1.0000
  N   N143      1.0  0.89290  0.20580  0.13240  1.0000
  N   N144      1.0  0.10710  0.20580  0.36760  1.0000
  O   O1        1.0  0.46710  0.87780  0.93890  1.0000
  O   O2        1.0  0.53290  0.87780  0.56110  1.0000
  O   O3        1.0  0.96710  0.37780  0.93890  1.0000
  O   O4        1.0  0.03290  0.37780  0.56110  1.0000
  O   O5        1.0  0.53290  0.12220  0.06110  1.0000
  O   O6        1.0  0.46710  0.12220  0.43890  1.0000
  O   O7        1.0  0.03290  0.62220  0.06110  1.0000
  O   O8        1.0  0.96710  0.62220  0.43890  1.0000
  O   O9        1.0  0.55760  0.96910  0.98280  1.0000
  O   O10       1.0  0.44240  0.96910  0.51720  1.0000
  O   O11       1.0  0.05760  0.46910  0.98280  1.0000
  O   O12       1.0  0.94240  0.46910  0.51720  1.0000
  O   O13       1.0  0.44240  0.03090  0.01720  1.0000
  O   O14       1.0  0.55760  0.03090  0.48280  1.0000
  O   O15       1.0  0.94240  0.53090  0.01720  1.0000
  O   O16       1.0  0.05760  0.53090  0.48280  1.0000
  O   O17       1.0  0.49430  0.82640  0.02430  1.0000
  O   O18       1.0  0.50570  0.82640  0.47570  1.0000
  O   O19       1.0  0.99430  0.32640  0.02430  1.0000
  O   O20       1.0  0.00570  0.32640  0.47570  1.0000
  O   O21       1.0  0.50570  0.17360  0.97570  1.0000
  O   O22       1.0  0.49430  0.17360  0.52430  1.0000
  O   O23       1.0  0.00570  0.67360  0.97570  1.0000
  O   O24       1.0  0.99430  0.67360  0.52430  1.0000
  O   O25       1.0  0.57940  0.93090  0.07310  1.0000
  O   O26       1.0  0.42060  0.93090  0.42690  1.0000
  O   O27       1.0  0.07940  0.43090  0.07310  1.0000
  O   O28       1.0  0.92060  0.43090  0.42690  1.0000
  O   O29       1.0  0.42060  0.06910  0.92690  1.0000
  O   O30       1.0  0.57940  0.06910  0.57310  1.0000
  O   O31       1.0  0.92060  0.56910  0.92690  1.0000
  O   O32       1.0  0.07940  0.56910  0.57310  1.0000
  O   O33       1.0  0.26340  0.06080  0.83530  1.0000
  O   O34       1.0  0.73660  0.06080  0.66470  1.0000
  O   O35       1.0  0.76340  0.56080  0.83530  1.0000
  O   O36       1.0  0.23660  0.56080  0.66470  1.0000
  O   O37       1.0  0.73660  0.93920  0.16470  1.0000
  O   O38       1.0  0.26340  0.93920  0.33530  1.0000
  O   O39       1.0  0.23660  0.43920  0.16470  1.0000
  O   O40       1.0  0.76340  0.43920  0.33530  1.0000
  O   O41       1.0  0.18990  0.13950  0.74370  1.0000
  O   O42       1.0  0.81010  0.13950  0.75630  1.0000
  O   O43       1.0  0.68990  0.63950  0.74370  1.0000
  O   O44       1.0  0.31010  0.63950  0.75630  1.0000
  O   O45       1.0  0.81010  0.86050  0.25630  1.0000
  O   O46       1.0  0.18990  0.86050  0.24370  1.0000
  O   O47       1.0  0.31010  0.36050  0.25630  1.0000
  O   O48       1.0  0.68990  0.36050  0.24370  1.0000
  O   O49       1.0  0.17180  0.21180  0.80390  1.0000
  O   O50       1.0  0.82820  0.21180  0.69610  1.0000
  O   O51       1.0  0.67180  0.71180  0.80390  1.0000
  O   O52       1.0  0.32820  0.71180  0.69610  1.0000
  O   O53       1.0  0.82820  0.78820  0.19610  1.0000
  O   O54       1.0  0.17180  0.78820  0.30390  1.0000
  O   O55       1.0  0.32820  0.28820  0.19610  1.0000
  O   O56       1.0  0.67180  0.28820  0.30390  1.0000
  O   O57       1.0  0.23650  0.12750  0.89410  1.0000
  O   O58       1.0  0.76350  0.12750  0.60590  1.0000
  O   O59       1.0  0.73650  0.62750  0.89410  1.0000
  O   O60       1.0  0.26350  0.62750  0.60590  1.0000
  O   O61       1.0  0.76350  0.87250  0.10590  1.0000
  O   O62       1.0  0.23650  0.87250  0.39410  1.0000
  O   O63       1.0  0.26350  0.37250  0.10590  1.0000
  O   O64       1.0  0.73650  0.37250  0.39410  1.0000
  O   O65       1.0  0.73350  0.12680  0.89610  1.0000
  O   O66       1.0  0.26650  0.12680  0.60390  1.0000
  O   O67       1.0  0.23350  0.62680  0.89610  1.0000
  O   O68       1.0  0.76650  0.62680  0.60390  1.0000
  O   O69       1.0  0.26650  0.87320  0.10390  1.0000
  O   O70       1.0  0.73350  0.87320  0.39610  1.0000
  O   O71       1.0  0.76650  0.37320  0.10390  1.0000
  O   O72       1.0  0.23350  0.37320  0.39610  1.0000
  O   O73       1.0  0.66670  0.20940  0.80520  1.0000
  O   O74       1.0  0.33330  0.20940  0.69480  1.0000
  O   O75       1.0  0.16670  0.70940  0.80520  1.0000
  O   O76       1.0  0.83330  0.70940  0.69480  1.0000
  O   O77       1.0  0.33330  0.79060  0.19480  1.0000
  O   O78       1.0  0.66670  0.79060  0.30520  1.0000
  O   O79       1.0  0.83330  0.29060  0.19480  1.0000
  O   O80       1.0  0.16670  0.29060  0.30520  1.0000
  O   O81       1.0  0.76560  0.06420  0.83970  1.0000
  O   O82       1.0  0.23440  0.06420  0.66030  1.0000
  O   O83       1.0  0.26560  0.56420  0.83970  1.0000
  O   O84       1.0  0.73440  0.56420  0.66030  1.0000
  O   O85       1.0  0.23440  0.93580  0.16030  1.0000
  O   O86       1.0  0.76560  0.93580  0.33970  1.0000
  O   O87       1.0  0.73440  0.43580  0.16030  1.0000
  O   O88       1.0  0.26560  0.43580  0.33970  1.0000
  O   O89       1.0  0.68830  0.13850  0.74590  1.0000
  O   O90       1.0  0.31170  0.13850  0.75410  1.0000
  O   O91       1.0  0.18830  0.63850  0.74590  1.0000
  O   O92       1.0  0.81170  0.63850  0.75410  1.0000
  O   O93       1.0  0.31170  0.86150  0.25410  1.0000
  O   O94       1.0  0.68830  0.86150  0.24590  1.0000
  O   O95       1.0  0.81170  0.36150  0.25410  1.0000
  O   O96       1.0  0.18830  0.36150  0.24590  1.0000
  O   O97       1.0  0.81560  0.80290  0.02350  1.0000
  O   O98       1.0  0.18440  0.80290  0.47650  1.0000
  O   O99       1.0  0.31560  0.30290  0.02350  1.0000
  O   O100      1.0  0.68440  0.30290  0.47650  1.0000
  O   O101      1.0  0.18440  0.19710  0.97650  1.0000
  O   O102      1.0  0.81560  0.19710  0.52350  1.0000
  O   O103      1.0  0.68440  0.69710  0.97650  1.0000
  O   O104      1.0  0.31560  0.69710  0.52350  1.0000
  O   O105      1.0  0.74920  0.77580  0.93330  1.0000
  O   O106      1.0  0.25080  0.77580  0.56670  1.0000
  O   O107      1.0  0.24920  0.27580  0.93330  1.0000
  O   O108      1.0  0.75080  0.27580  0.56670  1.0000
  O   O109      1.0  0.25080  0.22420  0.06670  1.0000
  O   O110      1.0  0.74920  0.22420  0.43330  1.0000
  O   O111      1.0  0.75080  0.72420  0.06670  1.0000
  O   O112      1.0  0.24920  0.72420  0.43330  1.0000
  O   O113      1.0  0.81520  0.30380  0.02050  1.0000
  O   O114      1.0  0.18480  0.30380  0.47950  1.0000
  O   O115      1.0  0.31520  0.80380  0.02050  1.0000
  O   O116      1.0  0.68480  0.80380  0.47950  1.0000
  O   O117      1.0  0.18480  0.69620  0.97950  1.0000
  O   O118      1.0  0.81520  0.69620  0.52050  1.0000
  O   O119      1.0  0.68480  0.19620  0.97950  1.0000
  O   O120      1.0  0.31520  0.19620  0.52050  1.0000
  O   O121      1.0  0.74540  0.27560  0.93200  1.0000
  O   O122      1.0  0.25460  0.27560  0.56800  1.0000
  O   O123      1.0  0.24540  0.77560  0.93200  1.0000
  O   O124      1.0  0.75460  0.77560  0.56800  1.0000
  O   O125      1.0  0.25460  0.72440  0.06800  1.0000
  O   O126      1.0  0.74540  0.72440  0.43200  1.0000
  O   O127      1.0  0.75460  0.22440  0.06800  1.0000
  O   O128      1.0  0.24540  0.22440  0.43200  1.0000
  O   O129      1.0  0.47280  0.57370  0.02350  1.0000
  O   O130      1.0  0.52720  0.57370  0.47650  1.0000
  O   O131      1.0  0.97280  0.07370  0.02350  1.0000
  O   O132      1.0  0.02720  0.07370  0.47650  1.0000
  O   O133      1.0  0.52720  0.42630  0.97650  1.0000
  O   O134      1.0  0.47280  0.42630  0.52350  1.0000
  O   O135      1.0  0.02720  0.92630  0.97650  1.0000
  O   O136      1.0  0.97280  0.92630  0.52350  1.0000
  O   O137      1.0  0.47560  0.55080  0.93780  1.0000
  O   O138      1.0  0.52440  0.55080  0.56220  1.0000
  O   O139      1.0  0.97560  0.05080  0.93780  1.0000
  O   O140      1.0  0.02440  0.05080  0.56220  1.0000
  O   O141      1.0  0.52440  0.44920  0.06220  1.0000
  O   O142      1.0  0.47560  0.44920  0.43780  1.0000
  O   O143      1.0  0.02440  0.94920  0.06220  1.0000
  O   O144      1.0  0.97560  0.94920  0.43780  1.0000
  C   C1        1.0  0.35960  0.97210  0.73840  1.0000
  C   C2        1.0  0.64040  0.97210  0.76160  1.0000
  C   C3        1.0  0.85960  0.47210  0.73840  1.0000
  C   C4        1.0  0.14040  0.47210  0.76160  1.0000
  C   C5        1.0  0.64040  0.02790  0.26160  1.0000
  C   C6        1.0  0.35960  0.02790  0.23840  1.0000
  C   C7        1.0  0.14040  0.52790  0.26160  1.0000
  C   C8        1.0  0.85960  0.52790  0.23840  1.0000
  H   H1        1.0  0.34340  0.97290  0.69780  1.0000
  H   H2        1.0  0.65660  0.97290  0.80220  1.0000
  H   H3        1.0  0.84340  0.47290  0.69780  1.0000
  H   H4        1.0  0.15660  0.47290  0.80220  1.0000
  H   H5        1.0  0.65660  0.02710  0.30220  1.0000
  H   H6        1.0  0.34340  0.02710  0.19780  1.0000
  H   H7        1.0  0.15660  0.52710  0.30220  1.0000
  H   H8        1.0  0.84340  0.52710  0.19780  1.0000
  C   C9        1.0  0.36770  0.97690  0.82390  1.0000
  C   C10       1.0  0.63230  0.97690  0.67610  1.0000
  C   C11       1.0  0.86770  0.47690  0.82390  1.0000
  C   C12       1.0  0.13230  0.47690  0.67610  1.0000
  C   C13       1.0  0.63230  0.02310  0.17610  1.0000
  C   C14       1.0  0.36770  0.02310  0.32390  1.0000
  C   C15       1.0  0.13230  0.52310  0.17610  1.0000
  C   C16       1.0  0.86770  0.52310  0.32390  1.0000
  H   H9        1.0  0.35890  0.98210  0.85650  1.0000
  H   H10       1.0  0.64110  0.98210  0.64350  1.0000
  H   H11       1.0  0.85890  0.48210  0.85650  1.0000
  H   H12       1.0  0.14110  0.48210  0.64350  1.0000
  H   H13       1.0  0.64110  0.01790  0.14350  1.0000
  H   H14       1.0  0.35890  0.01790  0.35650  1.0000
  H   H15       1.0  0.14110  0.51790  0.14350  1.0000
  H   H16       1.0  0.85890  0.51790  0.35650  1.0000
  C   C17       1.0  0.57240  0.09550  0.81410  1.0000
  C   C18       1.0  0.42760  0.09550  0.68590  1.0000
  C   C19       1.0  0.07240  0.59550  0.81410  1.0000
  C   C20       1.0  0.92760  0.59550  0.68590  1.0000
  C   C21       1.0  0.42760  0.90450  0.18590  1.0000
  C   C22       1.0  0.57240  0.90450  0.31410  1.0000
  C   C23       1.0  0.92760  0.40450  0.18590  1.0000
  C   C24       1.0  0.07240  0.40450  0.31410  1.0000
  H   H17       1.0  0.57620  0.11010  0.78040  1.0000
  H   H18       1.0  0.42380  0.11010  0.71960  1.0000
  H   H19       1.0  0.07620  0.61010  0.78040  1.0000
  H   H20       1.0  0.92380  0.61010  0.71960  1.0000
  H   H21       1.0  0.42380  0.88990  0.21960  1.0000
  H   H22       1.0  0.57620  0.88990  0.28040  1.0000
  H   H23       1.0  0.92380  0.38990  0.21960  1.0000
  H   H24       1.0  0.07620  0.38990  0.28040  1.0000
  C   C25       1.0  0.57990  0.09000  0.90070  1.0000
  C   C26       1.0  0.42010  0.09000  0.59930  1.0000
  C   C27       1.0  0.07990  0.59000  0.90070  1.0000
  C   C28       1.0  0.92010  0.59000  0.59930  1.0000
  C   C29       1.0  0.42010  0.91000  0.09930  1.0000
  C   C30       1.0  0.57990  0.91000  0.40070  1.0000
  C   C31       1.0  0.92010  0.41000  0.09930  1.0000
  C   C32       1.0  0.07990  0.41000  0.40070  1.0000
  H   H25       1.0  0.58990  0.10040  0.93970  1.0000
  H   H26       1.0  0.41010  0.10040  0.56030  1.0000
  H   H27       1.0  0.08990  0.60040  0.93970  1.0000
  H   H28       1.0  0.91010  0.60040  0.56030  1.0000
  H   H29       1.0  0.41010  0.89960  0.06030  1.0000
  H   H30       1.0  0.58990  0.89960  0.43970  1.0000
  H   H31       1.0  0.91010  0.39960  0.06030  1.0000
  H   H32       1.0  0.08990  0.39960  0.43970  1.0000
  C   C33       1.0  0.58570  0.82690  0.89880  1.0000
  C   C34       1.0  0.41430  0.82690  0.60120  1.0000
  C   C35       1.0  0.08570  0.32690  0.89880  1.0000
  C   C36       1.0  0.91430  0.32690  0.60120  1.0000
  C   C37       1.0  0.41430  0.17310  0.10120  1.0000
  C   C38       1.0  0.58570  0.17310  0.39880  1.0000
  C   C39       1.0  0.91430  0.67310  0.10120  1.0000
  C   C40       1.0  0.08570  0.67310  0.39880  1.0000
  H   H33       1.0  0.59440  0.81420  0.93710  1.0000
  H   H34       1.0  0.40560  0.81420  0.56290  1.0000
  H   H35       1.0  0.09440  0.31420  0.93710  1.0000
  H   H36       1.0  0.90560  0.31420  0.56290  1.0000
  H   H37       1.0  0.40560  0.18580  0.06290  1.0000
  H   H38       1.0  0.59440  0.18580  0.43710  1.0000
  H   H39       1.0  0.90560  0.68580  0.06290  1.0000
  H   H40       1.0  0.09440  0.68580  0.43710  1.0000
  C   C41       1.0  0.58450  0.82910  0.81490  1.0000
  C   C42       1.0  0.41550  0.82910  0.68510  1.0000
  C   C43       1.0  0.08450  0.32910  0.81490  1.0000
  C   C44       1.0  0.91550  0.32910  0.68510  1.0000
  C   C45       1.0  0.41550  0.17090  0.18510  1.0000
  C   C46       1.0  0.58450  0.17090  0.31490  1.0000
  C   C47       1.0  0.91550  0.67090  0.18510  1.0000
  C   C48       1.0  0.08450  0.67090  0.31490  1.0000
  H   H41       1.0  0.59230  0.81850  0.78240  1.0000
  H   H42       1.0  0.40770  0.81850  0.71760  1.0000
  H   H43       1.0  0.09230  0.31850  0.78240  1.0000
  H   H44       1.0  0.90770  0.31850  0.71760  1.0000
  H   H45       1.0  0.40770  0.18150  0.21760  1.0000
  H   H46       1.0  0.59230  0.18150  0.28240  1.0000
  H   H47       1.0  0.90770  0.68150  0.21760  1.0000
  H   H48       1.0  0.09230  0.68150  0.28240  1.0000
  C   C49       1.0  0.36020  0.47170  0.74090  1.0000
  C   C50       1.0  0.63980  0.47170  0.75910  1.0000
  C   C51       1.0  0.86020  0.97170  0.74090  1.0000
  C   C52       1.0  0.13980  0.97170  0.75910  1.0000
  C   C53       1.0  0.63980  0.52830  0.25910  1.0000
  C   C54       1.0  0.36020  0.52830  0.24090  1.0000
  C   C55       1.0  0.13980  0.02830  0.25910  1.0000
  C   C56       1.0  0.86020  0.02830  0.24090  1.0000
  H   H49       1.0  0.34320  0.47250  0.70030  1.0000
  H   H50       1.0  0.65680  0.47250  0.79970  1.0000
  H   H51       1.0  0.84320  0.97250  0.70030  1.0000
  H   H52       1.0  0.15680  0.97250  0.79970  1.0000
  H   H53       1.0  0.65680  0.52750  0.29970  1.0000
  H   H54       1.0  0.34320  0.52750  0.20030  1.0000
  H   H55       1.0  0.15680  0.02750  0.29970  1.0000
  H   H56       1.0  0.84320  0.02750  0.20030  1.0000
  C   C57       1.0  0.37070  0.47830  0.82810  1.0000
  C   C58       1.0  0.62930  0.47830  0.67190  1.0000
  C   C59       1.0  0.87070  0.97830  0.82810  1.0000
  C   C60       1.0  0.12930  0.97830  0.67190  1.0000
  C   C61       1.0  0.62930  0.52170  0.17190  1.0000
  C   C62       1.0  0.37070  0.52170  0.32810  1.0000
  C   C63       1.0  0.12930  0.02170  0.17190  1.0000
  C   C64       1.0  0.87070  0.02170  0.32810  1.0000
  H   H57       1.0  0.36280  0.48520  0.86100  1.0000
  H   H58       1.0  0.63720  0.48520  0.63900  1.0000
  H   H59       1.0  0.86280  0.98520  0.86100  1.0000
  H   H60       1.0  0.13720  0.98520  0.63900  1.0000
  H   H61       1.0  0.63720  0.51480  0.13900  1.0000
  H   H62       1.0  0.36280  0.51480  0.36100  1.0000
  H   H63       1.0  0.13720  0.01480  0.13900  1.0000
  H   H64       1.0  0.86280  0.01480  0.36100  1.0000
  C   C65       1.0  0.57510  0.59750  0.81160  1.0000
  C   C66       1.0  0.42490  0.59750  0.68840  1.0000
  C   C67       1.0  0.07510  0.09750  0.81160  1.0000
  C   C68       1.0  0.92490  0.09750  0.68840  1.0000
  C   C69       1.0  0.42490  0.40250  0.18840  1.0000
  C   C70       1.0  0.57510  0.40250  0.31160  1.0000
  C   C71       1.0  0.92490  0.90250  0.18840  1.0000
  C   C72       1.0  0.07510  0.90250  0.31160  1.0000
  H   H65       1.0  0.57730  0.61210  0.77710  1.0000
  H   H66       1.0  0.42270  0.61210  0.72290  1.0000
  H   H67       1.0  0.07730  0.11210  0.77710  1.0000
  H   H68       1.0  0.92270  0.11210  0.72290  1.0000
  H   H69       1.0  0.42270  0.38790  0.22290  1.0000
  H   H70       1.0  0.57730  0.38790  0.27710  1.0000
  H   H71       1.0  0.92270  0.88790  0.22290  1.0000
  H   H72       1.0  0.07730  0.88790  0.27710  1.0000
  C   C73       1.0  0.58590  0.59280  0.89760  1.0000
  C   C74       1.0  0.41410  0.59280  0.60240  1.0000
  C   C75       1.0  0.08590  0.09280  0.89760  1.0000
  C   C76       1.0  0.91410  0.09280  0.60240  1.0000
  C   C77       1.0  0.41410  0.40720  0.10240  1.0000
  C   C78       1.0  0.58590  0.40720  0.39760  1.0000
  C   C79       1.0  0.91410  0.90720  0.10240  1.0000
  C   C80       1.0  0.08590  0.90720  0.39760  1.0000
  H   H73       1.0  0.59690  0.60390  0.93670  1.0000
  H   H74       1.0  0.40310  0.60390  0.56330  1.0000
  H   H75       1.0  0.09690  0.10390  0.93670  1.0000
  H   H76       1.0  0.90310  0.10390  0.56330  1.0000
  H   H77       1.0  0.40310  0.39610  0.06330  1.0000
  H   H78       1.0  0.59690  0.39610  0.43670  1.0000
  H   H79       1.0  0.90310  0.89610  0.06330  1.0000
  H   H80       1.0  0.09690  0.89610  0.43670  1.0000
  C   C81       1.0  0.58200  0.32810  0.81630  1.0000
  C   C82       1.0  0.41800  0.32810  0.68370  1.0000
  C   C83       1.0  0.08200  0.82810  0.81630  1.0000
  C   C84       1.0  0.91800  0.82810  0.68370  1.0000
  C   C85       1.0  0.41800  0.67190  0.18370  1.0000
  C   C86       1.0  0.58200  0.67190  0.31630  1.0000
  C   C87       1.0  0.91800  0.17190  0.18370  1.0000
  C   C88       1.0  0.08200  0.17190  0.31630  1.0000
  H   H81       1.0  0.58910  0.31600  0.78370  1.0000
  H   H82       1.0  0.41090  0.31600  0.71630  1.0000
  H   H83       1.0  0.08910  0.81600  0.78370  1.0000
  H   H84       1.0  0.91090  0.81600  0.71630  1.0000
  H   H85       1.0  0.41090  0.68400  0.21630  1.0000
  H   H86       1.0  0.58910  0.68400  0.28370  1.0000
  H   H87       1.0  0.91090  0.18400  0.21630  1.0000
  H   H88       1.0  0.08910  0.18400  0.28370  1.0000
  C   C89       1.0  0.58470  0.32920  0.90100  1.0000
  C   C90       1.0  0.41530  0.32920  0.59900  1.0000
  C   C91       1.0  0.08470  0.82920  0.90100  1.0000
  C   C92       1.0  0.91530  0.82920  0.59900  1.0000
  C   C93       1.0  0.41530  0.67080  0.09900  1.0000
  C   C94       1.0  0.58470  0.67080  0.40100  1.0000
  C   C95       1.0  0.91530  0.17080  0.09900  1.0000
  C   C96       1.0  0.08470  0.17080  0.40100  1.0000
  H   H89       1.0  0.59390  0.31800  0.93970  1.0000
  H   H90       1.0  0.40610  0.31800  0.56030  1.0000
  H   H91       1.0  0.09390  0.81800  0.93970  1.0000
  H   H92       1.0  0.90610  0.81800  0.56030  1.0000
  H   H93       1.0  0.40610  0.68200  0.06030  1.0000
  H   H94       1.0  0.59390  0.68200  0.43970  1.0000
  H   H95       1.0  0.90610  0.18200  0.06030  1.0000
  H   H96       1.0  0.09390  0.18200  0.43970  1.0000
  C   C97       1.0  0.50060  0.87100  0.99240  1.0000
  C   C98       1.0  0.49940  0.87100  0.50760  1.0000
  C   C99       1.0  0.00060  0.37100  0.99240  1.0000
  C   C100      1.0  0.99940  0.37100  0.50760  1.0000
  C   C101      1.0  0.49940  0.12900  0.00760  1.0000
  C   C102      1.0  0.50060  0.12900  0.49240  1.0000
  C   C103      1.0  0.99940  0.62900  0.00760  1.0000
  C   C104      1.0  0.00060  0.62900  0.49240  1.0000
  C   C105      1.0  0.54120  0.92910  0.01210  1.0000
  C   C106      1.0  0.45880  0.92910  0.48790  1.0000
  C   C107      1.0  0.04120  0.42910  0.01210  1.0000
  C   C108      1.0  0.95880  0.42910  0.48790  1.0000
  C   C109      1.0  0.45880  0.07090  0.98790  1.0000
  C   C110      1.0  0.54120  0.07090  0.51210  1.0000
  C   C111      1.0  0.95880  0.57090  0.98790  1.0000
  C   C112      1.0  0.04120  0.57090  0.51210  1.0000
  C   C113      1.0  0.23590  0.11240  0.84570  1.0000
  C   C114      1.0  0.76410  0.11240  0.65430  1.0000
  C   C115      1.0  0.73590  0.61240  0.84570  1.0000
  C   C116      1.0  0.26410  0.61240  0.65430  1.0000
  C   C117      1.0  0.76410  0.88760  0.15430  1.0000
  C   C118      1.0  0.23590  0.88760  0.34570  1.0000
  C   C119      1.0  0.26410  0.38760  0.15430  1.0000
  C   C120      1.0  0.73590  0.38760  0.34570  1.0000
  C   C121      1.0  0.19590  0.15960  0.79290  1.0000
  C   C122      1.0  0.80410  0.15960  0.70710  1.0000
  C   C123      1.0  0.69590  0.65960  0.79290  1.0000
  C   C124      1.0  0.30410  0.65960  0.70710  1.0000
  C   C125      1.0  0.80410  0.84040  0.20710  1.0000
  C   C126      1.0  0.19590  0.84040  0.29290  1.0000
  C   C127      1.0  0.30410  0.34040  0.20710  1.0000
  C   C128      1.0  0.69590  0.34040  0.29290  1.0000
  C   C129      1.0  0.69310  0.15790  0.79460  1.0000
  C   C130      1.0  0.30690  0.15790  0.70540  1.0000
  C   C131      1.0  0.19310  0.65790  0.79460  1.0000
  C   C132      1.0  0.80690  0.65790  0.70540  1.0000
  C   C133      1.0  0.30690  0.84210  0.20540  1.0000
  C   C134      1.0  0.69310  0.84210  0.29460  1.0000
  C   C135      1.0  0.80690  0.34210  0.20540  1.0000
  C   C136      1.0  0.19310  0.34210  0.29460  1.0000
  C   C137      1.0  0.73480  0.11200  0.84820  1.0000
  C   C138      1.0  0.26520  0.11200  0.65180  1.0000
  C   C139      1.0  0.23480  0.61200  0.84820  1.0000
  C   C140      1.0  0.76520  0.61200  0.65180  1.0000
  C   C141      1.0  0.26520  0.88800  0.15180  1.0000
  C   C142      1.0  0.73480  0.88800  0.34820  1.0000
  C   C143      1.0  0.76520  0.38800  0.15180  1.0000
  C   C144      1.0  0.23480  0.38800  0.34820  1.0000
  C   C145      1.0  0.76850  0.77290  0.98690  1.0000
  C   C146      1.0  0.23150  0.77290  0.51310  1.0000
  C   C147      1.0  0.26850  0.27290  0.98690  1.0000
  C   C148      1.0  0.73150  0.27290  0.51310  1.0000
  C   C149      1.0  0.23150  0.22710  0.01310  1.0000
  C   C150      1.0  0.76850  0.22710  0.48690  1.0000
  C   C151      1.0  0.73150  0.72710  0.01310  1.0000
  C   C152      1.0  0.26850  0.72710  0.48690  1.0000
  C   C153      1.0  0.76740  0.27320  0.98590  1.0000
  C   C154      1.0  0.23260  0.27320  0.51410  1.0000
  C   C155      1.0  0.26740  0.77320  0.98590  1.0000
  C   C156      1.0  0.73260  0.77320  0.51410  1.0000
  C   C157      1.0  0.23260  0.72680  0.01410  1.0000
  C   C158      1.0  0.76740  0.72680  0.48590  1.0000
  C   C159      1.0  0.73260  0.22680  0.01410  1.0000
  C   C160      1.0  0.26740  0.22680  0.48590  1.0000
  C   C161      1.0  0.48480  0.53560  0.98810  1.0000
  C   C162      1.0  0.51520  0.53560  0.51190  1.0000
  C   C163      1.0  0.98480  0.03560  0.98810  1.0000
  C   C164      1.0  0.01520  0.03560  0.51190  1.0000
  C   C165      1.0  0.51520  0.46440  0.01190  1.0000
  C   C166      1.0  0.48480  0.46440  0.48810  1.0000
  C   C167      1.0  0.01520  0.96440  0.01190  1.0000
  C   C168      1.0  0.98480  0.96440  0.48810  1.0000
