data_image0
_chemical_formula_structural       U4O32C8H4C8H4C8H4C4H8C8H8C8H8C4
_chemical_formula_sum              "U4 O32 C48 H36"
_cell_length_a       11.5081
_cell_length_b       11.4273
_cell_length_c       13.2728
_cell_angle_alpha    90
_cell_angle_beta     91.889
_cell_angle_gamma    90

_space_group_name_H-M_alt    "P 1"
_space_group_IT_number       1

loop_
  _space_group_symop_operation_xyz
  'x, y, z'

loop_
  _atom_site_type_symbol
  _atom_site_label
  _atom_site_symmetry_multiplicity
  _atom_site_fract_x
  _atom_site_fract_y
  _atom_site_fract_z
  _atom_site_occupancy
  U   U1        1.0  0.51266  0.86579  0.77026  1.0000
  U   U2        1.0  0.98734  0.36579  0.72974  1.0000
  U   U3        1.0  0.48734  0.13421  0.22974  1.0000
  U   U4        1.0  0.01266  0.63421  0.27026  1.0000
  O   O1        1.0  0.61510  0.81490  0.68250  1.0000
  O   O2        1.0  0.88490  0.31490  0.81750  1.0000
  O   O3        1.0  0.38490  0.18510  0.31750  1.0000
  O   O4        1.0  0.11510  0.68510  0.18250  1.0000
  O   O5        1.0  0.41220  0.91880  0.85740  1.0000
  O   O6        1.0  0.08780  0.41880  0.64260  1.0000
  O   O7        1.0  0.58780  0.08120  0.14260  1.0000
  O   O8        1.0  0.91220  0.58120  0.35740  1.0000
  O   O9        1.0  0.37360  0.71740  0.70949  1.0000
  O   O10       1.0  0.12640  0.21740  0.79051  1.0000
  O   O11       1.0  0.62640  0.28260  0.29051  1.0000
  O   O12       1.0  0.87360  0.78260  0.20949  1.0000
  O   O13       1.0  0.49130  0.66620  0.83490  1.0000
  O   O14       1.0  0.00870  0.16620  0.66510  1.0000
  O   O15       1.0  0.50870  0.33380  0.16510  1.0000
  O   O16       1.0  0.99130  0.83380  0.33490  1.0000
  O   O17       1.0  0.84560  0.31960  0.59124  1.0000
  O   O18       1.0  0.65440  0.81960  0.90876  1.0000
  O   O19       1.0  0.15440  0.68040  0.40876  1.0000
  O   O20       1.0  0.34560  0.18040  0.09124  1.0000
  O   O21       1.0  0.83650  0.49340  0.65680  1.0000
  O   O22       1.0  0.66350  0.99340  0.84320  1.0000
  O   O23       1.0  0.16350  0.50660  0.34320  1.0000
  O   O24       1.0  0.33650  0.00660  0.15680  1.0000
  O   O25       1.0  0.51050  0.06540  0.70120  1.0000
  O   O26       1.0  0.98950  0.56540  0.79880  1.0000
  O   O27       1.0  0.48950  0.93460  0.29880  1.0000
  O   O28       1.0  0.01050  0.43460  0.20120  1.0000
  O   O29       1.0  0.39310  0.94210  0.62501  1.0000
  O   O30       1.0  0.10690  0.44210  0.87499  1.0000
  O   O31       1.0  0.60690  0.05790  0.37499  1.0000
  O   O32       1.0  0.89310  0.55790  0.12501  1.0000
  C   C1        1.0  0.42950  0.44090  0.69000  1.0000
  C   C2        1.0  0.07050  0.94090  0.81000  1.0000
  C   C3        1.0  0.57050  0.55910  0.31000  1.0000
  C   C4        1.0  0.92950  0.05910  0.19000  1.0000
  C   C5        1.0  0.53130  0.47850  0.64440  1.0000
  C   C6        1.0  0.96870  0.97850  0.85560  1.0000
  C   C7        1.0  0.46870  0.52150  0.35560  1.0000
  C   C8        1.0  0.03130  0.02150  0.14440  1.0000
  H   H1        1.0  0.56430  0.55230  0.66180  1.0000
  H   H2        1.0  0.93570  0.05230  0.83820  1.0000
  H   H3        1.0  0.43570  0.44770  0.33820  1.0000
  H   H4        1.0  0.06430  0.94770  0.16180  1.0000
  C   C9        1.0  0.58400  0.40750  0.57370  1.0000
  C   C10       1.0  0.91600  0.90750  0.92630  1.0000
  C   C11       1.0  0.41600  0.59250  0.42630  1.0000
  C   C12       1.0  0.08400  0.09250  0.07370  1.0000
  C   C13       1.0  0.53570  0.29930  0.54810  1.0000
  C   C14       1.0  0.96430  0.79930  0.95190  1.0000
  C   C15       1.0  0.46430  0.70070  0.45190  1.0000
  C   C16       1.0  0.03570  0.20070  0.04810  1.0000
  H   H5        1.0  0.57150  0.25140  0.49950  1.0000
  H   H6        1.0  0.92850  0.75140  0.00050  1.0000
  H   H7        1.0  0.42850  0.74860  0.50050  1.0000
  H   H8        1.0  0.07150  0.24860  0.99950  1.0000
  C   C17       1.0  0.43430  0.26090  0.59390  1.0000
  C   C18       1.0  0.06570  0.76090  0.90610  1.0000
  C   C19       1.0  0.56570  0.73910  0.40610  1.0000
  C   C20       1.0  0.93430  0.23910  0.09390  1.0000
  C   C21       1.0  0.38250  0.33230  0.66400  1.0000
  C   C22       1.0  0.11750  0.83230  0.83600  1.0000
  C   C23       1.0  0.61750  0.66770  0.33600  1.0000
  C   C24       1.0  0.88250  0.16770  0.16400  1.0000
  H   H9        1.0  0.31360  0.30660  0.69490  1.0000
  H   H10       1.0  0.18640  0.80660  0.80510  1.0000
  H   H11       1.0  0.68640  0.69340  0.30510  1.0000
  H   H12       1.0  0.81360  0.19340  0.19490  1.0000
  C   C25       1.0  0.36600  0.51610  0.76420  1.0000
  C   C26       1.0  0.13400  0.01610  0.73580  1.0000
  C   C27       1.0  0.63400  0.48390  0.23580  1.0000
  C   C28       1.0  0.86600  0.98390  0.26420  1.0000
  H   H13       1.0  0.28240  0.51790  0.74450  1.0000
  H   H14       1.0  0.21760  0.01790  0.75550  1.0000
  H   H15       1.0  0.71760  0.48210  0.25550  1.0000
  H   H16       1.0  0.78240  0.98210  0.24450  1.0000
  H   H17       1.0  0.37360  0.48010  0.83200  1.0000
  H   H18       1.0  0.12640  0.98010  0.66800  1.0000
  H   H19       1.0  0.62640  0.51990  0.16800  1.0000
  H   H20       1.0  0.87360  0.01990  0.33200  1.0000
  C   C29       1.0  0.41130  0.63970  0.76980  1.0000
  C   C30       1.0  0.08870  0.13970  0.73020  1.0000
  C   C31       1.0  0.58870  0.36030  0.23020  1.0000
  C   C32       1.0  0.91130  0.86030  0.26980  1.0000
  C   C33       1.0  0.69500  0.44810  0.52480  1.0000
  C   C34       1.0  0.80500  0.94810  0.97520  1.0000
  C   C35       1.0  0.30500  0.55190  0.47520  1.0000
  C   C36       1.0  0.19500  0.05190  0.02480  1.0000
  H   H21       1.0  0.70330  0.40810  0.45930  1.0000
  H   H22       1.0  0.79670  0.90810  0.04070  1.0000
  H   H23       1.0  0.29670  0.59190  0.54070  1.0000
  H   H24       1.0  0.20330  0.09190  0.95930  1.0000
  H   H25       1.0  0.69140  0.53350  0.51240  1.0000
  H   H26       1.0  0.80860  0.03350  0.98760  1.0000
  H   H27       1.0  0.30860  0.46650  0.48760  1.0000
  H   H28       1.0  0.19140  0.96650  0.01240  1.0000
  C   C37       1.0  0.79740  0.42000  0.59380  1.0000
  C   C38       1.0  0.70260  0.92000  0.90620  1.0000
  C   C39       1.0  0.20260  0.58000  0.40620  1.0000
  C   C40       1.0  0.29740  0.08000  0.09380  1.0000
  C   C41       1.0  0.38430  0.14200  0.56850  1.0000
  C   C42       1.0  0.11570  0.64200  0.93150  1.0000
  C   C43       1.0  0.61570  0.85800  0.43150  1.0000
  C   C44       1.0  0.88430  0.35800  0.06850  1.0000
  H   H29       1.0  0.29880  0.14510  0.57440  1.0000
  H   H30       1.0  0.20120  0.64510  0.92560  1.0000
  H   H31       1.0  0.70120  0.85490  0.42560  1.0000
  H   H32       1.0  0.79880  0.35490  0.07440  1.0000
  H   H33       1.0  0.40070  0.12340  0.49750  1.0000
  H   H34       1.0  0.09930  0.62340  0.00250  1.0000
  H   H35       1.0  0.59930  0.87660  0.50250  1.0000
  H   H36       1.0  0.90070  0.37660  0.99750  1.0000
  C   C45       1.0  0.43170  0.04570  0.63470  1.0000
  C   C46       1.0  0.06830  0.54570  0.86530  1.0000
  C   C47       1.0  0.56830  0.95430  0.36530  1.0000
  C   C48       1.0  0.93170  0.45430  0.13470  1.0000
