data_image0
_chemical_formula_structural       C48H16C16H16C16H16C32H16C16H48C16H48C16H16C16H48C16H48C48H16C16H16C16H16C32H16C16H48C16H48C16H16C16H16C48H16C16H16C16H16C16H16C16H16C16H16F8N32O144P32Zn32C16H16C16H48C16H48
_chemical_formula_sum              "C544 H672 F8 N32 O144 P32 Zn32"
_cell_length_a       27.581
_cell_length_b       27.581
_cell_length_c       43.468
_cell_angle_alpha    90
_cell_angle_beta     90
_cell_angle_gamma    90

_space_group_name_H-M_alt    "P 1"
_space_group_IT_number       1

loop_
  _space_group_symop_operation_xyz
  'x, y, z'

loop_
  _atom_site_type_symbol
  _atom_site_label
  _atom_site_symmetry_multiplicity
  _atom_site_fract_x
  _atom_site_fract_y
  _atom_site_fract_z
  _atom_site_occupancy
  C   C1        1.0  0.22140  0.23970  0.27654  1.0000
  C   C2        1.0  0.23970  0.77860  0.72346  1.0000
  C   C3        1.0  0.77860  0.76030  0.27654  1.0000
  C   C4        1.0  0.76030  0.22140  0.72346  1.0000
  C   C5        1.0  0.27860  0.23970  0.47346  1.0000
  C   C6        1.0  0.26030  0.77860  0.02654  1.0000
  C   C7        1.0  0.72140  0.76030  0.47346  1.0000
  C   C8        1.0  0.73970  0.22140  0.02654  1.0000
  C   C9        1.0  0.72140  0.73970  0.77654  1.0000
  C   C10       1.0  0.73970  0.27860  0.22346  1.0000
  C   C11       1.0  0.27860  0.26030  0.77654  1.0000
  C   C12       1.0  0.26030  0.72140  0.22346  1.0000
  C   C13       1.0  0.77860  0.73970  0.97346  1.0000
  C   C14       1.0  0.76030  0.27860  0.52654  1.0000
  C   C15       1.0  0.22140  0.26030  0.97346  1.0000
  C   C16       1.0  0.23970  0.72140  0.52654  1.0000
  C   C17       1.0  0.20020  0.25890  0.25041  1.0000
  C   C18       1.0  0.25890  0.79980  0.74959  1.0000
  C   C19       1.0  0.79980  0.74110  0.25041  1.0000
  C   C20       1.0  0.74110  0.20020  0.74959  1.0000
  C   C21       1.0  0.29980  0.25890  0.49959  1.0000
  C   C22       1.0  0.24110  0.79980  0.00041  1.0000
  C   C23       1.0  0.70020  0.74110  0.49959  1.0000
  C   C24       1.0  0.75890  0.20020  0.00041  1.0000
  C   C25       1.0  0.70020  0.75890  0.75041  1.0000
  C   C26       1.0  0.75890  0.29980  0.24959  1.0000
  C   C27       1.0  0.29980  0.24110  0.75041  1.0000
  C   C28       1.0  0.24110  0.70020  0.24959  1.0000
  C   C29       1.0  0.79980  0.75890  0.99959  1.0000
  C   C30       1.0  0.74110  0.29980  0.50041  1.0000
  C   C31       1.0  0.20020  0.24110  0.99959  1.0000
  C   C32       1.0  0.25890  0.70020  0.50041  1.0000
  C   C33       1.0  0.16150  0.23540  0.23670  1.0000
  C   C34       1.0  0.23540  0.83850  0.76330  1.0000
  C   C35       1.0  0.83850  0.76460  0.23670  1.0000
  C   C36       1.0  0.76460  0.16150  0.76330  1.0000
  C   C37       1.0  0.33850  0.23540  0.51330  1.0000
  C   C38       1.0  0.26460  0.83850  0.98670  1.0000
  C   C39       1.0  0.66150  0.76460  0.51330  1.0000
  C   C40       1.0  0.73540  0.16150  0.98670  1.0000
  C   C41       1.0  0.66150  0.73540  0.73670  1.0000
  C   C42       1.0  0.73540  0.33850  0.26330  1.0000
  C   C43       1.0  0.33850  0.26460  0.73670  1.0000
  C   C44       1.0  0.26460  0.66150  0.26330  1.0000
  C   C45       1.0  0.83850  0.73540  0.01330  1.0000
  C   C46       1.0  0.76460  0.33850  0.48670  1.0000
  C   C47       1.0  0.16150  0.26460  0.01330  1.0000
  C   C48       1.0  0.23540  0.66150  0.48670  1.0000
  H   H1        1.0  0.14690  0.24860  0.21880  1.0000
  H   H2        1.0  0.24860  0.85310  0.78120  1.0000
  H   H3        1.0  0.85310  0.75140  0.21880  1.0000
  H   H4        1.0  0.75140  0.14690  0.78120  1.0000
  H   H5        1.0  0.35310  0.24860  0.53120  1.0000
  H   H6        1.0  0.25140  0.85310  0.96880  1.0000
  H   H7        1.0  0.64690  0.75140  0.53120  1.0000
  H   H8        1.0  0.74860  0.14690  0.96880  1.0000
  H   H9        1.0  0.64690  0.74860  0.71880  1.0000
  H   H10       1.0  0.74860  0.35310  0.28120  1.0000
  H   H11       1.0  0.35310  0.25140  0.71880  1.0000
  H   H12       1.0  0.25140  0.64690  0.28120  1.0000
  H   H13       1.0  0.85310  0.74860  0.03120  1.0000
  H   H14       1.0  0.75140  0.35310  0.46880  1.0000
  H   H15       1.0  0.14690  0.25140  0.03120  1.0000
  H   H16       1.0  0.24860  0.64690  0.46880  1.0000
  C   C49       1.0  0.14400  0.19260  0.24910  1.0000
  C   C50       1.0  0.19260  0.85600  0.75090  1.0000
  C   C51       1.0  0.85600  0.80740  0.24910  1.0000
  C   C52       1.0  0.80740  0.14400  0.75090  1.0000
  C   C53       1.0  0.35600  0.19260  0.50090  1.0000
  C   C54       1.0  0.30740  0.85600  0.99910  1.0000
  C   C55       1.0  0.64400  0.80740  0.50090  1.0000
  C   C56       1.0  0.69260  0.14400  0.99910  1.0000
  C   C57       1.0  0.64400  0.69260  0.74910  1.0000
  C   C58       1.0  0.69260  0.35600  0.25090  1.0000
  C   C59       1.0  0.35600  0.30740  0.74910  1.0000
  C   C60       1.0  0.30740  0.64400  0.25090  1.0000
  C   C61       1.0  0.85600  0.69260  0.00090  1.0000
  C   C62       1.0  0.80740  0.35600  0.49910  1.0000
  C   C63       1.0  0.14400  0.30740  0.00090  1.0000
  C   C64       1.0  0.19260  0.64400  0.49910  1.0000
  H   H17       1.0  0.11750  0.17640  0.23970  1.0000
  H   H18       1.0  0.17640  0.88250  0.76030  1.0000
  H   H19       1.0  0.88250  0.82360  0.23970  1.0000
  H   H20       1.0  0.82360  0.11750  0.76030  1.0000
  H   H21       1.0  0.38250  0.17640  0.51030  1.0000
  H   H22       1.0  0.32360  0.88250  0.98970  1.0000
  H   H23       1.0  0.61750  0.82360  0.51030  1.0000
  H   H24       1.0  0.67640  0.11750  0.98970  1.0000
  H   H25       1.0  0.61750  0.67640  0.73970  1.0000
  H   H26       1.0  0.67640  0.38250  0.26030  1.0000
  H   H27       1.0  0.38250  0.32360  0.73970  1.0000
  H   H28       1.0  0.32360  0.61750  0.26030  1.0000
  H   H29       1.0  0.88250  0.67640  0.01030  1.0000
  H   H30       1.0  0.82360  0.38250  0.48970  1.0000
  H   H31       1.0  0.11750  0.32360  0.01030  1.0000
  H   H32       1.0  0.17640  0.61750  0.48970  1.0000
  C   C65       1.0  0.16530  0.17330  0.27520  1.0000
  C   C66       1.0  0.17330  0.83470  0.72480  1.0000
  C   C67       1.0  0.83470  0.82670  0.27520  1.0000
  C   C68       1.0  0.82670  0.16530  0.72480  1.0000
  C   C69       1.0  0.33470  0.17330  0.47480  1.0000
  C   C70       1.0  0.32670  0.83470  0.02520  1.0000
  C   C71       1.0  0.66530  0.82670  0.47480  1.0000
  C   C72       1.0  0.67330  0.16530  0.02520  1.0000
  C   C73       1.0  0.66530  0.67330  0.77520  1.0000
  C   C74       1.0  0.67330  0.33470  0.22480  1.0000
  C   C75       1.0  0.33470  0.32670  0.77520  1.0000
  C   C76       1.0  0.32670  0.66530  0.22480  1.0000
  C   C77       1.0  0.83470  0.67330  0.97480  1.0000
  C   C78       1.0  0.82670  0.33470  0.52520  1.0000
  C   C79       1.0  0.16530  0.32670  0.97480  1.0000
  C   C80       1.0  0.17330  0.66530  0.52520  1.0000
  H   H33       1.0  0.15330  0.14400  0.28370  1.0000
  H   H34       1.0  0.14400  0.84670  0.71630  1.0000
  H   H35       1.0  0.84670  0.85600  0.28370  1.0000
  H   H36       1.0  0.85600  0.15330  0.71630  1.0000
  H   H37       1.0  0.34670  0.14400  0.46630  1.0000
  H   H38       1.0  0.35600  0.84670  0.03370  1.0000
  H   H39       1.0  0.65330  0.85600  0.46630  1.0000
  H   H40       1.0  0.64400  0.15330  0.03370  1.0000
  H   H41       1.0  0.65330  0.64400  0.78370  1.0000
  H   H42       1.0  0.64400  0.34670  0.21630  1.0000
  H   H43       1.0  0.34670  0.35600  0.78370  1.0000
  H   H44       1.0  0.35600  0.65330  0.21630  1.0000
  H   H45       1.0  0.84670  0.64400  0.96630  1.0000
  H   H46       1.0  0.85600  0.34670  0.53370  1.0000
  H   H47       1.0  0.15330  0.35600  0.96630  1.0000
  H   H48       1.0  0.14400  0.65330  0.53370  1.0000
  C   C81       1.0  0.20400  0.19690  0.28900  1.0000
  C   C82       1.0  0.19690  0.79600  0.71100  1.0000
  C   C83       1.0  0.79600  0.80310  0.28900  1.0000
  C   C84       1.0  0.80310  0.20400  0.71100  1.0000
  C   C85       1.0  0.29600  0.19690  0.46100  1.0000
  C   C86       1.0  0.30310  0.79600  0.03900  1.0000
  C   C87       1.0  0.70400  0.80310  0.46100  1.0000
  C   C88       1.0  0.69690  0.20400  0.03900  1.0000
  C   C89       1.0  0.70400  0.69690  0.78900  1.0000
  C   C90       1.0  0.69690  0.29600  0.21100  1.0000
  C   C91       1.0  0.29600  0.30310  0.78900  1.0000
  C   C92       1.0  0.30310  0.70400  0.21100  1.0000
  C   C93       1.0  0.79600  0.69690  0.96100  1.0000
  C   C94       1.0  0.80310  0.29600  0.53900  1.0000
  C   C95       1.0  0.20400  0.30310  0.96100  1.0000
  C   C96       1.0  0.19690  0.70400  0.53900  1.0000
  C   C97       1.0  0.22730  0.16810  0.31750  1.0000
  C   C98       1.0  0.16810  0.77270  0.68250  1.0000
  C   C99       1.0  0.77270  0.83190  0.31750  1.0000
  C   C100      1.0  0.83190  0.22730  0.68250  1.0000
  C   C101      1.0  0.27270  0.16810  0.43250  1.0000
  C   C102      1.0  0.33190  0.77270  0.06750  1.0000
  C   C103      1.0  0.72730  0.83190  0.43250  1.0000
  C   C104      1.0  0.66810  0.22730  0.06750  1.0000
  C   C105      1.0  0.72730  0.66810  0.81750  1.0000
  C   C106      1.0  0.66810  0.27270  0.18250  1.0000
  C   C107      1.0  0.27270  0.33190  0.81750  1.0000
  C   C108      1.0  0.33190  0.72730  0.18250  1.0000
  C   C109      1.0  0.77270  0.66810  0.93250  1.0000
  C   C110      1.0  0.83190  0.27270  0.56750  1.0000
  C   C111      1.0  0.22730  0.33190  0.93250  1.0000
  C   C112      1.0  0.16810  0.72730  0.56750  1.0000
  H   H49       1.0  0.25620  0.18830  0.32290  1.0000
  H   H50       1.0  0.18830  0.74380  0.67710  1.0000
  H   H51       1.0  0.74380  0.81170  0.32290  1.0000
  H   H52       1.0  0.81170  0.25620  0.67710  1.0000
  H   H53       1.0  0.24380  0.18830  0.42710  1.0000
  H   H54       1.0  0.31170  0.74380  0.07290  1.0000
  H   H55       1.0  0.75620  0.81170  0.42710  1.0000
  H   H56       1.0  0.68830  0.25620  0.07290  1.0000
  H   H57       1.0  0.75620  0.68830  0.82290  1.0000
  H   H58       1.0  0.68830  0.24380  0.17710  1.0000
  H   H59       1.0  0.24380  0.31170  0.82290  1.0000
  H   H60       1.0  0.31170  0.75620  0.17710  1.0000
  H   H61       1.0  0.74380  0.68830  0.92710  1.0000
  H   H62       1.0  0.81170  0.24380  0.57290  1.0000
  H   H63       1.0  0.25620  0.31170  0.92710  1.0000
  H   H64       1.0  0.18830  0.75620  0.57290  1.0000
  C   C113      1.0  0.20460  0.15660  0.34920  1.0000
  C   C114      1.0  0.15660  0.79540  0.65080  1.0000
  C   C115      1.0  0.79540  0.84340  0.34920  1.0000
  C   C116      1.0  0.84340  0.20460  0.65080  1.0000
  C   C117      1.0  0.29540  0.15660  0.40080  1.0000
  C   C118      1.0  0.34340  0.79540  0.09920  1.0000
  C   C119      1.0  0.70460  0.84340  0.40080  1.0000
  C   C120      1.0  0.65660  0.20460  0.09920  1.0000
  C   C121      1.0  0.70460  0.65660  0.84920  1.0000
  C   C122      1.0  0.65660  0.29540  0.15080  1.0000
  C   C123      1.0  0.29540  0.34340  0.84920  1.0000
  C   C124      1.0  0.34340  0.70460  0.15080  1.0000
  C   C125      1.0  0.79540  0.65660  0.90080  1.0000
  C   C126      1.0  0.84340  0.29540  0.59920  1.0000
  C   C127      1.0  0.20460  0.34340  0.90080  1.0000
  C   C128      1.0  0.15660  0.70460  0.59920  1.0000
  H   H65       1.0  0.22880  0.14040  0.36220  1.0000
  H   H66       1.0  0.14040  0.77120  0.63780  1.0000
  H   H67       1.0  0.77120  0.85960  0.36220  1.0000
  H   H68       1.0  0.85960  0.22880  0.63780  1.0000
  H   H69       1.0  0.27120  0.14040  0.38780  1.0000
  H   H70       1.0  0.35960  0.77120  0.11220  1.0000
  H   H71       1.0  0.72880  0.85960  0.38780  1.0000
  H   H72       1.0  0.64040  0.22880  0.11220  1.0000
  H   H73       1.0  0.72880  0.64040  0.86220  1.0000
  H   H74       1.0  0.64040  0.27120  0.13780  1.0000
  H   H75       1.0  0.27120  0.35960  0.86220  1.0000
  H   H76       1.0  0.35960  0.72880  0.13780  1.0000
  H   H77       1.0  0.77120  0.64040  0.88780  1.0000
  H   H78       1.0  0.85960  0.27120  0.61220  1.0000
  H   H79       1.0  0.22880  0.35960  0.88780  1.0000
  H   H80       1.0  0.14040  0.72880  0.61220  1.0000
  H   H81       1.0  0.17660  0.13520  0.34640  1.0000
  H   H82       1.0  0.13520  0.82340  0.65360  1.0000
  H   H83       1.0  0.82340  0.86480  0.34640  1.0000
  H   H84       1.0  0.86480  0.17660  0.65360  1.0000
  H   H85       1.0  0.32340  0.13520  0.40360  1.0000
  H   H86       1.0  0.36480  0.82340  0.09640  1.0000
  H   H87       1.0  0.67660  0.86480  0.40360  1.0000
  H   H88       1.0  0.63520  0.17660  0.09640  1.0000
  H   H89       1.0  0.67660  0.63520  0.84640  1.0000
  H   H90       1.0  0.63520  0.32340  0.15360  1.0000
  H   H91       1.0  0.32340  0.36480  0.84640  1.0000
  H   H92       1.0  0.36480  0.67660  0.15360  1.0000
  H   H93       1.0  0.82340  0.63520  0.90360  1.0000
  H   H94       1.0  0.86480  0.32340  0.59640  1.0000
  H   H95       1.0  0.17660  0.36480  0.90360  1.0000
  H   H96       1.0  0.13520  0.67660  0.59640  1.0000
  H   H97       1.0  0.19420  0.18680  0.35900  1.0000
  H   H98       1.0  0.18680  0.80580  0.64100  1.0000
  H   H99       1.0  0.80580  0.81320  0.35900  1.0000
  H   H100      1.0  0.81320  0.19420  0.64100  1.0000
  H   H101      1.0  0.30580  0.18680  0.39100  1.0000
  H   H102      1.0  0.31320  0.80580  0.10900  1.0000
  H   H103      1.0  0.69420  0.81320  0.39100  1.0000
  H   H104      1.0  0.68680  0.19420  0.10900  1.0000
  H   H105      1.0  0.69420  0.68680  0.85900  1.0000
  H   H106      1.0  0.68680  0.30580  0.14100  1.0000
  H   H107      1.0  0.30580  0.31320  0.85900  1.0000
  H   H108      1.0  0.31320  0.69420  0.14100  1.0000
  H   H109      1.0  0.80580  0.68680  0.89100  1.0000
  H   H110      1.0  0.81320  0.30580  0.60900  1.0000
  H   H111      1.0  0.19420  0.31320  0.89100  1.0000
  H   H112      1.0  0.18680  0.69420  0.60900  1.0000
  C   C129      1.0  0.24990  0.12360  0.30200  1.0000
  C   C130      1.0  0.12360  0.75010  0.69800  1.0000
  C   C131      1.0  0.75010  0.87640  0.30200  1.0000
  C   C132      1.0  0.87640  0.24990  0.69800  1.0000
  C   C133      1.0  0.25010  0.12360  0.44800  1.0000
  C   C134      1.0  0.37640  0.75010  0.05200  1.0000
  C   C135      1.0  0.74990  0.87640  0.44800  1.0000
  C   C136      1.0  0.62360  0.24990  0.05200  1.0000
  C   C137      1.0  0.74990  0.62360  0.80200  1.0000
  C   C138      1.0  0.62360  0.25010  0.19800  1.0000
  C   C139      1.0  0.25010  0.37640  0.80200  1.0000
  C   C140      1.0  0.37640  0.74990  0.19800  1.0000
  C   C141      1.0  0.75010  0.62360  0.94800  1.0000
  C   C142      1.0  0.87640  0.25010  0.55200  1.0000
  C   C143      1.0  0.24990  0.37640  0.94800  1.0000
  C   C144      1.0  0.12360  0.74990  0.55200  1.0000
  H   H113      1.0  0.26820  0.10490  0.31730  1.0000
  H   H114      1.0  0.10490  0.73180  0.68270  1.0000
  H   H115      1.0  0.73180  0.89510  0.31730  1.0000
  H   H116      1.0  0.89510  0.26820  0.68270  1.0000
  H   H117      1.0  0.23180  0.10490  0.43270  1.0000
  H   H118      1.0  0.39510  0.73180  0.06730  1.0000
  H   H119      1.0  0.76820  0.89510  0.43270  1.0000
  H   H120      1.0  0.60490  0.26820  0.06730  1.0000
  H   H121      1.0  0.76820  0.60490  0.81730  1.0000
  H   H122      1.0  0.60490  0.23180  0.18270  1.0000
  H   H123      1.0  0.23180  0.39510  0.81730  1.0000
  H   H124      1.0  0.39510  0.76820  0.18270  1.0000
  H   H125      1.0  0.73180  0.60490  0.93270  1.0000
  H   H126      1.0  0.89510  0.23180  0.56730  1.0000
  H   H127      1.0  0.26820  0.39510  0.93270  1.0000
  H   H128      1.0  0.10490  0.76820  0.56730  1.0000
  H   H129      1.0  0.27180  0.13420  0.28550  1.0000
  H   H130      1.0  0.13420  0.72820  0.71450  1.0000
  H   H131      1.0  0.72820  0.86580  0.28550  1.0000
  H   H132      1.0  0.86580  0.27180  0.71450  1.0000
  H   H133      1.0  0.22820  0.13420  0.46450  1.0000
  H   H134      1.0  0.36580  0.72820  0.03550  1.0000
  H   H135      1.0  0.77180  0.86580  0.46450  1.0000
  H   H136      1.0  0.63420  0.27180  0.03550  1.0000
  H   H137      1.0  0.77180  0.63420  0.78550  1.0000
  H   H138      1.0  0.63420  0.22820  0.21450  1.0000
  H   H139      1.0  0.22820  0.36580  0.78550  1.0000
  H   H140      1.0  0.36580  0.77180  0.21450  1.0000
  H   H141      1.0  0.72820  0.63420  0.96450  1.0000
  H   H142      1.0  0.86580  0.22820  0.53550  1.0000
  H   H143      1.0  0.27180  0.36580  0.96450  1.0000
  H   H144      1.0  0.13420  0.77180  0.53550  1.0000
  H   H145      1.0  0.22420  0.10330  0.29330  1.0000
  H   H146      1.0  0.10330  0.77580  0.70670  1.0000
  H   H147      1.0  0.77580  0.89670  0.29330  1.0000
  H   H148      1.0  0.89670  0.22420  0.70670  1.0000
  H   H149      1.0  0.27580  0.10330  0.45670  1.0000
  H   H150      1.0  0.39670  0.77580  0.04330  1.0000
  H   H151      1.0  0.72420  0.89670  0.45670  1.0000
  H   H152      1.0  0.60330  0.22420  0.04330  1.0000
  H   H153      1.0  0.72420  0.60330  0.79330  1.0000
  H   H154      1.0  0.60330  0.27580  0.20670  1.0000
  H   H155      1.0  0.27580  0.39670  0.79330  1.0000
  H   H156      1.0  0.39670  0.72420  0.20670  1.0000
  H   H157      1.0  0.77580  0.60330  0.95670  1.0000
  H   H158      1.0  0.89670  0.27580  0.54330  1.0000
  H   H159      1.0  0.22420  0.39670  0.95670  1.0000
  H   H160      1.0  0.10330  0.72420  0.54330  1.0000
  C   C145      1.0  0.22100  0.30490  0.23680  1.0000
  C   C146      1.0  0.30490  0.77900  0.76320  1.0000
  C   C147      1.0  0.77900  0.69510  0.23680  1.0000
  C   C148      1.0  0.69510  0.22100  0.76320  1.0000
  C   C149      1.0  0.27900  0.30490  0.51320  1.0000
  C   C150      1.0  0.19510  0.77900  0.98680  1.0000
  C   C151      1.0  0.72100  0.69510  0.51320  1.0000
  C   C152      1.0  0.80490  0.22100  0.98680  1.0000
  C   C153      1.0  0.72100  0.80490  0.73680  1.0000
  C   C154      1.0  0.80490  0.27900  0.26320  1.0000
  C   C155      1.0  0.27900  0.19510  0.73680  1.0000
  C   C156      1.0  0.19510  0.72100  0.26320  1.0000
  C   C157      1.0  0.77900  0.80490  0.01320  1.0000
  C   C158      1.0  0.69510  0.27900  0.48680  1.0000
  C   C159      1.0  0.22100  0.19510  0.01320  1.0000
  C   C160      1.0  0.30490  0.72100  0.48680  1.0000
  H   H161      1.0  0.25430  0.31310  0.24430  1.0000
  H   H162      1.0  0.31310  0.74570  0.75570  1.0000
  H   H163      1.0  0.74570  0.68690  0.24430  1.0000
  H   H164      1.0  0.68690  0.25430  0.75570  1.0000
  H   H165      1.0  0.24570  0.31310  0.50570  1.0000
  H   H166      1.0  0.18690  0.74570  0.99430  1.0000
  H   H167      1.0  0.75430  0.68690  0.50570  1.0000
  H   H168      1.0  0.81310  0.25430  0.99430  1.0000
  H   H169      1.0  0.75430  0.81310  0.74430  1.0000
  H   H170      1.0  0.81310  0.24570  0.25570  1.0000
  H   H171      1.0  0.24570  0.18690  0.74430  1.0000
  H   H172      1.0  0.18690  0.75430  0.25570  1.0000
  H   H173      1.0  0.74570  0.81310  0.00570  1.0000
  H   H174      1.0  0.68690  0.24570  0.49430  1.0000
  H   H175      1.0  0.25430  0.18690  0.00570  1.0000
  H   H176      1.0  0.31310  0.75430  0.49430  1.0000
  C   C161      1.0  0.18400  0.34390  0.24230  1.0000
  C   C162      1.0  0.34390  0.81600  0.75770  1.0000
  C   C163      1.0  0.81600  0.65610  0.24230  1.0000
  C   C164      1.0  0.65610  0.18400  0.75770  1.0000
  C   C165      1.0  0.31600  0.34390  0.50770  1.0000
  C   C166      1.0  0.15610  0.81600  0.99230  1.0000
  C   C167      1.0  0.68400  0.65610  0.50770  1.0000
  C   C168      1.0  0.84390  0.18400  0.99230  1.0000
  C   C169      1.0  0.68400  0.84390  0.74230  1.0000
  C   C170      1.0  0.84390  0.31600  0.25770  1.0000
  C   C171      1.0  0.31600  0.15610  0.74230  1.0000
  C   C172      1.0  0.15610  0.68400  0.25770  1.0000
  C   C173      1.0  0.81600  0.84390  0.00770  1.0000
  C   C174      1.0  0.65610  0.31600  0.49230  1.0000
  C   C175      1.0  0.18400  0.15610  0.00770  1.0000
  C   C176      1.0  0.34390  0.68400  0.49230  1.0000
  H   H177      1.0  0.17780  0.34680  0.26440  1.0000
  H   H178      1.0  0.34680  0.82220  0.73560  1.0000
  H   H179      1.0  0.82220  0.65320  0.26440  1.0000
  H   H180      1.0  0.65320  0.17780  0.73560  1.0000
  H   H181      1.0  0.32220  0.34680  0.48560  1.0000
  H   H182      1.0  0.15320  0.82220  0.01440  1.0000
  H   H183      1.0  0.67780  0.65320  0.48560  1.0000
  H   H184      1.0  0.84680  0.17780  0.01440  1.0000
  H   H185      1.0  0.67780  0.84680  0.76440  1.0000
  H   H186      1.0  0.84680  0.32220  0.23560  1.0000
  H   H187      1.0  0.32220  0.15320  0.76440  1.0000
  H   H188      1.0  0.15320  0.67780  0.23560  1.0000
  H   H189      1.0  0.82220  0.84680  0.98560  1.0000
  H   H190      1.0  0.65320  0.32220  0.51440  1.0000
  H   H191      1.0  0.17780  0.15320  0.98560  1.0000
  H   H192      1.0  0.34680  0.67780  0.51440  1.0000
  H   H193      1.0  0.15380  0.33550  0.23170  1.0000
  H   H194      1.0  0.33550  0.84620  0.76830  1.0000
  H   H195      1.0  0.84620  0.66450  0.23170  1.0000
  H   H196      1.0  0.66450  0.15380  0.76830  1.0000
  H   H197      1.0  0.34620  0.33550  0.51830  1.0000
  H   H198      1.0  0.16450  0.84620  0.98170  1.0000
  H   H199      1.0  0.65380  0.66450  0.51830  1.0000
  H   H200      1.0  0.83550  0.15380  0.98170  1.0000
  H   H201      1.0  0.65380  0.83550  0.73170  1.0000
  H   H202      1.0  0.83550  0.34620  0.26830  1.0000
  H   H203      1.0  0.34620  0.16450  0.73170  1.0000
  H   H204      1.0  0.16450  0.65380  0.26830  1.0000
  H   H205      1.0  0.84620  0.83550  0.01830  1.0000
  H   H206      1.0  0.66450  0.34620  0.48170  1.0000
  H   H207      1.0  0.15380  0.16450  0.01830  1.0000
  H   H208      1.0  0.33550  0.65380  0.48170  1.0000
  H   H209      1.0  0.19620  0.37480  0.23440  1.0000
  H   H210      1.0  0.37480  0.80380  0.76560  1.0000
  H   H211      1.0  0.80380  0.62520  0.23440  1.0000
  H   H212      1.0  0.62520  0.19620  0.76560  1.0000
  H   H213      1.0  0.30380  0.37480  0.51560  1.0000
  H   H214      1.0  0.12520  0.80380  0.98440  1.0000
  H   H215      1.0  0.69620  0.62520  0.51560  1.0000
  H   H216      1.0  0.87480  0.19620  0.98440  1.0000
  H   H217      1.0  0.69620  0.87480  0.73440  1.0000
  H   H218      1.0  0.87480  0.30380  0.26560  1.0000
  H   H219      1.0  0.30380  0.12520  0.73440  1.0000
  H   H220      1.0  0.12520  0.69620  0.26560  1.0000
  H   H221      1.0  0.80380  0.87480  0.01560  1.0000
  H   H222      1.0  0.62520  0.30380  0.48440  1.0000
  H   H223      1.0  0.19620  0.12520  0.01560  1.0000
  H   H224      1.0  0.37480  0.69620  0.48440  1.0000
  C   C177      1.0  0.21750  0.29920  0.20170  1.0000
  C   C178      1.0  0.29920  0.78250  0.79830  1.0000
  C   C179      1.0  0.78250  0.70080  0.20170  1.0000
  C   C180      1.0  0.70080  0.21750  0.79830  1.0000
  C   C181      1.0  0.28250  0.29920  0.54830  1.0000
  C   C182      1.0  0.20080  0.78250  0.95170  1.0000
  C   C183      1.0  0.71750  0.70080  0.54830  1.0000
  C   C184      1.0  0.79920  0.21750  0.95170  1.0000
  C   C185      1.0  0.71750  0.79920  0.70170  1.0000
  C   C186      1.0  0.79920  0.28250  0.29830  1.0000
  C   C187      1.0  0.28250  0.20080  0.70170  1.0000
  C   C188      1.0  0.20080  0.71750  0.29830  1.0000
  C   C189      1.0  0.78250  0.79920  0.04830  1.0000
  C   C190      1.0  0.70080  0.28250  0.45170  1.0000
  C   C191      1.0  0.21750  0.20080  0.04830  1.0000
  C   C192      1.0  0.29920  0.71750  0.45170  1.0000
  H   H225      1.0  0.24120  0.27510  0.19470  1.0000
  H   H226      1.0  0.27510  0.75880  0.80530  1.0000
  H   H227      1.0  0.75880  0.72490  0.19470  1.0000
  H   H228      1.0  0.72490  0.24120  0.80530  1.0000
  H   H229      1.0  0.25880  0.27510  0.55530  1.0000
  H   H230      1.0  0.22490  0.75880  0.94470  1.0000
  H   H231      1.0  0.74120  0.72490  0.55530  1.0000
  H   H232      1.0  0.77510  0.24120  0.94470  1.0000
  H   H233      1.0  0.74120  0.77510  0.69470  1.0000
  H   H234      1.0  0.77510  0.25880  0.30530  1.0000
  H   H235      1.0  0.25880  0.22490  0.69470  1.0000
  H   H236      1.0  0.22490  0.74120  0.30530  1.0000
  H   H237      1.0  0.75880  0.77510  0.05530  1.0000
  H   H238      1.0  0.72490  0.25880  0.44470  1.0000
  H   H239      1.0  0.24120  0.22490  0.05530  1.0000
  H   H240      1.0  0.27510  0.74120  0.44470  1.0000
  H   H241      1.0  0.22420  0.33040  0.19180  1.0000
  H   H242      1.0  0.33040  0.77580  0.80820  1.0000
  H   H243      1.0  0.77580  0.66960  0.19180  1.0000
  H   H244      1.0  0.66960  0.22420  0.80820  1.0000
  H   H245      1.0  0.27580  0.33040  0.55820  1.0000
  H   H246      1.0  0.16960  0.77580  0.94180  1.0000
  H   H247      1.0  0.72420  0.66960  0.55820  1.0000
  H   H248      1.0  0.83040  0.22420  0.94180  1.0000
  H   H249      1.0  0.72420  0.83040  0.69180  1.0000
  H   H250      1.0  0.83040  0.27580  0.30820  1.0000
  H   H251      1.0  0.27580  0.16960  0.69180  1.0000
  H   H252      1.0  0.16960  0.72420  0.30820  1.0000
  H   H253      1.0  0.77580  0.83040  0.05820  1.0000
  H   H254      1.0  0.66960  0.27580  0.44180  1.0000
  H   H255      1.0  0.22420  0.16960  0.05820  1.0000
  H   H256      1.0  0.33040  0.72420  0.44180  1.0000
  H   H257      1.0  0.18480  0.28840  0.19620  1.0000
  H   H258      1.0  0.28840  0.81520  0.80380  1.0000
  H   H259      1.0  0.81520  0.71160  0.19620  1.0000
  H   H260      1.0  0.71160  0.18480  0.80380  1.0000
  H   H261      1.0  0.31520  0.28840  0.55380  1.0000
  H   H262      1.0  0.21160  0.81520  0.94620  1.0000
  H   H263      1.0  0.68480  0.71160  0.55380  1.0000
  H   H264      1.0  0.78840  0.18480  0.94620  1.0000
  H   H265      1.0  0.68480  0.78840  0.69620  1.0000
  H   H266      1.0  0.78840  0.31520  0.30380  1.0000
  H   H267      1.0  0.31520  0.21160  0.69620  1.0000
  H   H268      1.0  0.21160  0.68480  0.30380  1.0000
  H   H269      1.0  0.81520  0.78840  0.05380  1.0000
  H   H270      1.0  0.71160  0.31520  0.44620  1.0000
  H   H271      1.0  0.18480  0.21160  0.05380  1.0000
  H   H272      1.0  0.28840  0.68480  0.44620  1.0000
  C   C193      1.0  0.38570  0.49377  0.40065  1.0000
  C   C194      1.0  0.49377  0.61430  0.59935  1.0000
  C   C195      1.0  0.61430  0.50623  0.40065  1.0000
  C   C196      1.0  0.50623  0.38570  0.59935  1.0000
  C   C197      1.0  0.11430  0.49377  0.34935  1.0000
  C   C198      1.0  0.00623  0.61430  0.15065  1.0000
  C   C199      1.0  0.88570  0.50623  0.34935  1.0000
  C   C200      1.0  0.99377  0.38570  0.15065  1.0000
  C   C201      1.0  0.88570  0.99377  0.90065  1.0000
  C   C202      1.0  0.99377  0.11430  0.09935  1.0000
  C   C203      1.0  0.11430  0.00623  0.90065  1.0000
  C   C204      1.0  0.00623  0.88570  0.09935  1.0000
  C   C205      1.0  0.61430  0.99377  0.84935  1.0000
  C   C206      1.0  0.50623  0.11430  0.65065  1.0000
  C   C207      1.0  0.38570  0.00623  0.84935  1.0000
  C   C208      1.0  0.49377  0.88570  0.65065  1.0000
  C   C209      1.0  0.37180  0.53740  0.38898  1.0000
  C   C210      1.0  0.53740  0.62820  0.61102  1.0000
  C   C211      1.0  0.62820  0.46260  0.38898  1.0000
  C   C212      1.0  0.46260  0.37180  0.61102  1.0000
  C   C213      1.0  0.12820  0.53740  0.36102  1.0000
  C   C214      1.0  0.96260  0.62820  0.13898  1.0000
  C   C215      1.0  0.87180  0.46260  0.36102  1.0000
  C   C216      1.0  0.03740  0.37180  0.13898  1.0000
  C   C217      1.0  0.87180  0.03740  0.88898  1.0000
  C   C218      1.0  0.03740  0.12820  0.11102  1.0000
  C   C219      1.0  0.12820  0.96260  0.88898  1.0000
  C   C220      1.0  0.96260  0.87180  0.11102  1.0000
  C   C221      1.0  0.62820  0.03740  0.86102  1.0000
  C   C222      1.0  0.46260  0.12820  0.63898  1.0000
  C   C223      1.0  0.37180  0.96260  0.86102  1.0000
  C   C224      1.0  0.53740  0.87180  0.63898  1.0000
  C   C225      1.0  0.37240  0.57750  0.40712  1.0000
  C   C226      1.0  0.57750  0.62760  0.59288  1.0000
  C   C227      1.0  0.62760  0.42250  0.40712  1.0000
  C   C228      1.0  0.42250  0.37240  0.59288  1.0000
  C   C229      1.0  0.12760  0.57750  0.34288  1.0000
  C   C230      1.0  0.92250  0.62760  0.15712  1.0000
  C   C231      1.0  0.87240  0.42250  0.34288  1.0000
  C   C232      1.0  0.07750  0.37240  0.15712  1.0000
  C   C233      1.0  0.87240  0.07750  0.90712  1.0000
  C   C234      1.0  0.07750  0.12760  0.09288  1.0000
  C   C235      1.0  0.12760  0.92250  0.90712  1.0000
  C   C236      1.0  0.92250  0.87240  0.09288  1.0000
  C   C237      1.0  0.62760  0.07750  0.84288  1.0000
  C   C238      1.0  0.42250  0.12760  0.65712  1.0000
  C   C239      1.0  0.37240  0.92250  0.84288  1.0000
  C   C240      1.0  0.57750  0.87240  0.65712  1.0000
  H   H273      1.0  0.36270  0.60790  0.39900  1.0000
  H   H274      1.0  0.60790  0.63730  0.60100  1.0000
  H   H275      1.0  0.63730  0.39210  0.39900  1.0000
  H   H276      1.0  0.39210  0.36270  0.60100  1.0000
  H   H277      1.0  0.13730  0.60790  0.35100  1.0000
  H   H278      1.0  0.89210  0.63730  0.14900  1.0000
  H   H279      1.0  0.86270  0.39210  0.35100  1.0000
  H   H280      1.0  0.10790  0.36270  0.14900  1.0000
  H   H281      1.0  0.86270  0.10790  0.89900  1.0000
  H   H282      1.0  0.10790  0.13730  0.10100  1.0000
  H   H283      1.0  0.13730  0.89210  0.89900  1.0000
  H   H284      1.0  0.89210  0.86270  0.10100  1.0000
  H   H285      1.0  0.63730  0.10790  0.85100  1.0000
  H   H286      1.0  0.39210  0.13730  0.64900  1.0000
  H   H287      1.0  0.36270  0.89210  0.85100  1.0000
  H   H288      1.0  0.60790  0.86270  0.64900  1.0000
  C   C241      1.0  0.38690  0.57410  0.43694  1.0000
  C   C242      1.0  0.57410  0.61310  0.56306  1.0000
  C   C243      1.0  0.61310  0.42590  0.43694  1.0000
  C   C244      1.0  0.42590  0.38690  0.56306  1.0000
  C   C245      1.0  0.11310  0.57410  0.31306  1.0000
  C   C246      1.0  0.92590  0.61310  0.18694  1.0000
  C   C247      1.0  0.88690  0.42590  0.31306  1.0000
  C   C248      1.0  0.07410  0.38690  0.18694  1.0000
  C   C249      1.0  0.88690  0.07410  0.93694  1.0000
  C   C250      1.0  0.07410  0.11310  0.06306  1.0000
  C   C251      1.0  0.11310  0.92590  0.93694  1.0000
  C   C252      1.0  0.92590  0.88690  0.06306  1.0000
  C   C253      1.0  0.61310  0.07410  0.81306  1.0000
  C   C254      1.0  0.42590  0.11310  0.68694  1.0000
  C   C255      1.0  0.38690  0.92590  0.81306  1.0000
  C   C256      1.0  0.57410  0.88690  0.68694  1.0000
  H   H289      1.0  0.38740  0.60210  0.44960  1.0000
  H   H290      1.0  0.60210  0.61260  0.55040  1.0000
  H   H291      1.0  0.61260  0.39790  0.44960  1.0000
  H   H292      1.0  0.39790  0.38740  0.55040  1.0000
  H   H293      1.0  0.11260  0.60210  0.30040  1.0000
  H   H294      1.0  0.89790  0.61260  0.19960  1.0000
  H   H295      1.0  0.88740  0.39790  0.30040  1.0000
  H   H296      1.0  0.10210  0.38740  0.19960  1.0000
  H   H297      1.0  0.88740  0.10210  0.94960  1.0000
  H   H298      1.0  0.10210  0.11260  0.05040  1.0000
  H   H299      1.0  0.11260  0.89790  0.94960  1.0000
  H   H300      1.0  0.89790  0.88740  0.05040  1.0000
  H   H301      1.0  0.61260  0.10210  0.80040  1.0000
  H   H302      1.0  0.39790  0.11260  0.69960  1.0000
  H   H303      1.0  0.38740  0.89790  0.80040  1.0000
  H   H304      1.0  0.60210  0.88740  0.69960  1.0000
  C   C257      1.0  0.40090  0.53050  0.44862  1.0000
  C   C258      1.0  0.53050  0.59910  0.55138  1.0000
  C   C259      1.0  0.59910  0.46950  0.44862  1.0000
  C   C260      1.0  0.46950  0.40090  0.55138  1.0000
  C   C261      1.0  0.09910  0.53050  0.30138  1.0000
  C   C262      1.0  0.96950  0.59910  0.19862  1.0000
  C   C263      1.0  0.90090  0.46950  0.30138  1.0000
  C   C264      1.0  0.03050  0.40090  0.19862  1.0000
  C   C265      1.0  0.90090  0.03050  0.94862  1.0000
  C   C266      1.0  0.03050  0.09910  0.05138  1.0000
  C   C267      1.0  0.09910  0.96950  0.94862  1.0000
  C   C268      1.0  0.96950  0.90090  0.05138  1.0000
  C   C269      1.0  0.59910  0.03050  0.80138  1.0000
  C   C270      1.0  0.46950  0.09910  0.69862  1.0000
  C   C271      1.0  0.40090  0.96950  0.80138  1.0000
  C   C272      1.0  0.53050  0.90090  0.69862  1.0000
  H   H305      1.0  0.41100  0.52810  0.46940  1.0000
  H   H306      1.0  0.52810  0.58900  0.53060  1.0000
  H   H307      1.0  0.58900  0.47190  0.46940  1.0000
  H   H308      1.0  0.47190  0.41100  0.53060  1.0000
  H   H309      1.0  0.08900  0.52810  0.28060  1.0000
  H   H310      1.0  0.97190  0.58900  0.21940  1.0000
  H   H311      1.0  0.91100  0.47190  0.28060  1.0000
  H   H312      1.0  0.02810  0.41100  0.21940  1.0000
  H   H313      1.0  0.91100  0.02810  0.96940  1.0000
  H   H314      1.0  0.02810  0.08900  0.03060  1.0000
  H   H315      1.0  0.08900  0.97190  0.96940  1.0000
  H   H316      1.0  0.97190  0.91100  0.03060  1.0000
  H   H317      1.0  0.58900  0.02810  0.78060  1.0000
  H   H318      1.0  0.47190  0.08900  0.71940  1.0000
  H   H319      1.0  0.41100  0.97190  0.78060  1.0000
  H   H320      1.0  0.52810  0.91100  0.71940  1.0000
  C   C273      1.0  0.40030  0.49035  0.43047  1.0000
  C   C274      1.0  0.49035  0.59970  0.56953  1.0000
  C   C275      1.0  0.59970  0.50965  0.43047  1.0000
  C   C276      1.0  0.50965  0.40030  0.56953  1.0000
  C   C277      1.0  0.09970  0.49035  0.31953  1.0000
  C   C278      1.0  0.00965  0.59970  0.18047  1.0000
  C   C279      1.0  0.90030  0.50965  0.31953  1.0000
  C   C280      1.0  0.99035  0.40030  0.18047  1.0000
  C   C281      1.0  0.90030  0.99035  0.93047  1.0000
  C   C282      1.0  0.99035  0.09970  0.06953  1.0000
  C   C283      1.0  0.09970  0.00965  0.93047  1.0000
  C   C284      1.0  0.00965  0.90030  0.06953  1.0000
  C   C285      1.0  0.59970  0.99035  0.81953  1.0000
  C   C286      1.0  0.50965  0.09970  0.68047  1.0000
  C   C287      1.0  0.40030  0.00965  0.81953  1.0000
  C   C288      1.0  0.49035  0.90030  0.68047  1.0000
  C   C289      1.0  0.41580  0.44140  0.44270  1.0000
  C   C290      1.0  0.44140  0.58420  0.55730  1.0000
  C   C291      1.0  0.58420  0.55860  0.44270  1.0000
  C   C292      1.0  0.55860  0.41580  0.55730  1.0000
  C   C293      1.0  0.08420  0.44140  0.30730  1.0000
  C   C294      1.0  0.05860  0.58420  0.19270  1.0000
  C   C295      1.0  0.91580  0.55860  0.30730  1.0000
  C   C296      1.0  0.94140  0.41580  0.19270  1.0000
  C   C297      1.0  0.91580  0.94140  0.94270  1.0000
  C   C298      1.0  0.94140  0.08420  0.05730  1.0000
  C   C299      1.0  0.08420  0.05860  0.94270  1.0000
  C   C300      1.0  0.05860  0.91580  0.05730  1.0000
  C   C301      1.0  0.58420  0.94140  0.80730  1.0000
  C   C302      1.0  0.55860  0.08420  0.69270  1.0000
  C   C303      1.0  0.41580  0.05860  0.80730  1.0000
  C   C304      1.0  0.44140  0.91580  0.69270  1.0000
  H   H321      1.0  0.40830  0.41540  0.42740  1.0000
  H   H322      1.0  0.41540  0.59170  0.57260  1.0000
  H   H323      1.0  0.59170  0.58460  0.42740  1.0000
  H   H324      1.0  0.58460  0.40830  0.57260  1.0000
  H   H325      1.0  0.09170  0.41540  0.32260  1.0000
  H   H326      1.0  0.08460  0.59170  0.17740  1.0000
  H   H327      1.0  0.90830  0.58460  0.32260  1.0000
  H   H328      1.0  0.91540  0.40830  0.17740  1.0000
  H   H329      1.0  0.90830  0.91540  0.92740  1.0000
  H   H330      1.0  0.91540  0.09170  0.07260  1.0000
  H   H331      1.0  0.09170  0.08460  0.92740  1.0000
  H   H332      1.0  0.08460  0.90830  0.07260  1.0000
  H   H333      1.0  0.59170  0.91540  0.82260  1.0000
  H   H334      1.0  0.58460  0.09170  0.67740  1.0000
  H   H335      1.0  0.40830  0.08460  0.82260  1.0000
  H   H336      1.0  0.41540  0.90830  0.67740  1.0000
  C   C305      1.0  0.39430  0.42880  0.47410  1.0000
  C   C306      1.0  0.42880  0.60570  0.52590  1.0000
  C   C307      1.0  0.60570  0.57120  0.47410  1.0000
  C   C308      1.0  0.57120  0.39430  0.52590  1.0000
  C   C309      1.0  0.10570  0.42880  0.27590  1.0000
  C   C310      1.0  0.07120  0.60570  0.22410  1.0000
  C   C311      1.0  0.89430  0.57120  0.27590  1.0000
  C   C312      1.0  0.92880  0.39430  0.22410  1.0000
  C   C313      1.0  0.89430  0.92880  0.97410  1.0000
  C   C314      1.0  0.92880  0.10570  0.02590  1.0000
  C   C315      1.0  0.10570  0.07120  0.97410  1.0000
  C   C316      1.0  0.07120  0.89430  0.02590  1.0000
  C   C317      1.0  0.60570  0.92880  0.77590  1.0000
  C   C318      1.0  0.57120  0.10570  0.72410  1.0000
  C   C319      1.0  0.39430  0.07120  0.77590  1.0000
  C   C320      1.0  0.42880  0.89430  0.72410  1.0000
  H   H337      1.0  0.35890  0.42850  0.47260  1.0000
  H   H338      1.0  0.42850  0.64110  0.52740  1.0000
  H   H339      1.0  0.64110  0.57150  0.47260  1.0000
  H   H340      1.0  0.57150  0.35890  0.52740  1.0000
  H   H341      1.0  0.14110  0.42850  0.27740  1.0000
  H   H342      1.0  0.07150  0.64110  0.22260  1.0000
  H   H343      1.0  0.85890  0.57150  0.27740  1.0000
  H   H344      1.0  0.92850  0.35890  0.22260  1.0000
  H   H345      1.0  0.85890  0.92850  0.97260  1.0000
  H   H346      1.0  0.92850  0.14110  0.02740  1.0000
  H   H347      1.0  0.14110  0.07150  0.97260  1.0000
  H   H348      1.0  0.07150  0.85890  0.02740  1.0000
  H   H349      1.0  0.64110  0.92850  0.77740  1.0000
  H   H350      1.0  0.57150  0.14110  0.72260  1.0000
  H   H351      1.0  0.35890  0.07150  0.77740  1.0000
  H   H352      1.0  0.42850  0.85890  0.72260  1.0000
  H   H353      1.0  0.40450  0.45310  0.48920  1.0000
  H   H354      1.0  0.45310  0.59550  0.51080  1.0000
  H   H355      1.0  0.59550  0.54690  0.48920  1.0000
  H   H356      1.0  0.54690  0.40450  0.51080  1.0000
  H   H357      1.0  0.09550  0.45310  0.26080  1.0000
  H   H358      1.0  0.04690  0.59550  0.23920  1.0000
  H   H359      1.0  0.90450  0.54690  0.26080  1.0000
  H   H360      1.0  0.95310  0.40450  0.23920  1.0000
  H   H361      1.0  0.90450  0.95310  0.98920  1.0000
  H   H362      1.0  0.95310  0.09550  0.01080  1.0000
  H   H363      1.0  0.09550  0.04690  0.98920  1.0000
  H   H364      1.0  0.04690  0.90450  0.01080  1.0000
  H   H365      1.0  0.59550  0.95310  0.76080  1.0000
  H   H366      1.0  0.54690  0.09550  0.73920  1.0000
  H   H367      1.0  0.40450  0.04690  0.76080  1.0000
  H   H368      1.0  0.45310  0.90450  0.73920  1.0000
  H   H369      1.0  0.40590  0.39670  0.48050  1.0000
  H   H370      1.0  0.39670  0.59410  0.51950  1.0000
  H   H371      1.0  0.59410  0.60330  0.48050  1.0000
  H   H372      1.0  0.60330  0.40590  0.51950  1.0000
  H   H373      1.0  0.09410  0.39670  0.26950  1.0000
  H   H374      1.0  0.10330  0.59410  0.23050  1.0000
  H   H375      1.0  0.90590  0.60330  0.26950  1.0000
  H   H376      1.0  0.89670  0.40590  0.23050  1.0000
  H   H377      1.0  0.90590  0.89670  0.98050  1.0000
  H   H378      1.0  0.89670  0.09410  0.01950  1.0000
  H   H379      1.0  0.09410  0.10330  0.98050  1.0000
  H   H380      1.0  0.10330  0.90590  0.01950  1.0000
  H   H381      1.0  0.59410  0.89670  0.76950  1.0000
  H   H382      1.0  0.60330  0.09410  0.73050  1.0000
  H   H383      1.0  0.40590  0.10330  0.76950  1.0000
  H   H384      1.0  0.39670  0.90590  0.73050  1.0000
  C   C321      1.0  0.46700  0.43630  0.45420  1.0000
  C   C322      1.0  0.43630  0.53300  0.54580  1.0000
  C   C323      1.0  0.53300  0.56370  0.45420  1.0000
  C   C324      1.0  0.56370  0.46700  0.54580  1.0000
  C   C325      1.0  0.03300  0.43630  0.29580  1.0000
  C   C326      1.0  0.06370  0.53300  0.20420  1.0000
  C   C327      1.0  0.96700  0.56370  0.29580  1.0000
  C   C328      1.0  0.93630  0.46700  0.20420  1.0000
  C   C329      1.0  0.96700  0.93630  0.95420  1.0000
  C   C330      1.0  0.93630  0.03300  0.04580  1.0000
  C   C331      1.0  0.03300  0.06370  0.95420  1.0000
  C   C332      1.0  0.06370  0.96700  0.04580  1.0000
  C   C333      1.0  0.53300  0.93630  0.79580  1.0000
  C   C334      1.0  0.56370  0.03300  0.70420  1.0000
  C   C335      1.0  0.46700  0.06370  0.79580  1.0000
  C   C336      1.0  0.43630  0.96700  0.70420  1.0000
  H   H385      1.0  0.47230  0.40300  0.46120  1.0000
  H   H386      1.0  0.40300  0.52770  0.53880  1.0000
  H   H387      1.0  0.52770  0.59700  0.46120  1.0000
  H   H388      1.0  0.59700  0.47230  0.53880  1.0000
  H   H389      1.0  0.02770  0.40300  0.28880  1.0000
  H   H390      1.0  0.09700  0.52770  0.21120  1.0000
  H   H391      1.0  0.97230  0.59700  0.28880  1.0000
  H   H392      1.0  0.90300  0.47230  0.21120  1.0000
  H   H393      1.0  0.97230  0.90300  0.96120  1.0000
  H   H394      1.0  0.90300  0.02770  0.03880  1.0000
  H   H395      1.0  0.02770  0.09700  0.96120  1.0000
  H   H396      1.0  0.09700  0.97230  0.03880  1.0000
  H   H397      1.0  0.52770  0.90300  0.78880  1.0000
  H   H398      1.0  0.59700  0.02770  0.71120  1.0000
  H   H399      1.0  0.47230  0.09700  0.78880  1.0000
  H   H400      1.0  0.40300  0.97230  0.71120  1.0000
  H   H401      1.0  0.47230  0.45880  0.47130  1.0000
  H   H402      1.0  0.45880  0.52770  0.52870  1.0000
  H   H403      1.0  0.52770  0.54120  0.47130  1.0000
  H   H404      1.0  0.54120  0.47230  0.52870  1.0000
  H   H405      1.0  0.02770  0.45880  0.27870  1.0000
  H   H406      1.0  0.04120  0.52770  0.22130  1.0000
  H   H407      1.0  0.97230  0.54120  0.27870  1.0000
  H   H408      1.0  0.95880  0.47230  0.22130  1.0000
  H   H409      1.0  0.97230  0.95880  0.97130  1.0000
  H   H410      1.0  0.95880  0.02770  0.02870  1.0000
  H   H411      1.0  0.02770  0.04120  0.97130  1.0000
  H   H412      1.0  0.04120  0.97230  0.02870  1.0000
  H   H413      1.0  0.52770  0.95880  0.77870  1.0000
  H   H414      1.0  0.54120  0.02770  0.72130  1.0000
  H   H415      1.0  0.47230  0.04120  0.77870  1.0000
  H   H416      1.0  0.45880  0.97230  0.72130  1.0000
  H   H417      1.0  0.48970  0.44380  0.43750  1.0000
  H   H418      1.0  0.44380  0.51030  0.56250  1.0000
  H   H419      1.0  0.51030  0.55620  0.43750  1.0000
  H   H420      1.0  0.55620  0.48970  0.56250  1.0000
  H   H421      1.0  0.01030  0.44380  0.31250  1.0000
  H   H422      1.0  0.05620  0.51030  0.18750  1.0000
  H   H423      1.0  0.98970  0.55620  0.31250  1.0000
  H   H424      1.0  0.94380  0.48970  0.18750  1.0000
  H   H425      1.0  0.98970  0.94380  0.93750  1.0000
  H   H426      1.0  0.94380  0.01030  0.06250  1.0000
  H   H427      1.0  0.01030  0.05620  0.93750  1.0000
  H   H428      1.0  0.05620  0.98970  0.06250  1.0000
  H   H429      1.0  0.51030  0.94380  0.81250  1.0000
  H   H430      1.0  0.55620  0.01030  0.68750  1.0000
  H   H431      1.0  0.48970  0.05620  0.81250  1.0000
  H   H432      1.0  0.44380  0.98970  0.68750  1.0000
  C   C337      1.0  0.43160  0.22090  0.41250  1.0000
  C   C338      1.0  0.22090  0.56840  0.58750  1.0000
  C   C339      1.0  0.56840  0.77910  0.41250  1.0000
  C   C340      1.0  0.77910  0.43160  0.58750  1.0000
  C   C341      1.0  0.06840  0.22090  0.33750  1.0000
  C   C342      1.0  0.27910  0.56840  0.16250  1.0000
  C   C343      1.0  0.93160  0.77910  0.33750  1.0000
  C   C344      1.0  0.72090  0.43160  0.16250  1.0000
  C   C345      1.0  0.93160  0.72090  0.91250  1.0000
  C   C346      1.0  0.72090  0.06840  0.08750  1.0000
  C   C347      1.0  0.06840  0.27910  0.91250  1.0000
  C   C348      1.0  0.27910  0.93160  0.08750  1.0000
  C   C349      1.0  0.56840  0.72090  0.83750  1.0000
  C   C350      1.0  0.77910  0.06840  0.66250  1.0000
  C   C351      1.0  0.43160  0.27910  0.83750  1.0000
  C   C352      1.0  0.22090  0.93160  0.66250  1.0000
  H   H433      1.0  0.43240  0.19630  0.39730  1.0000
  H   H434      1.0  0.19630  0.56760  0.60270  1.0000
  H   H435      1.0  0.56760  0.80370  0.39730  1.0000
  H   H436      1.0  0.80370  0.43240  0.60270  1.0000
  H   H437      1.0  0.06760  0.19630  0.35270  1.0000
  H   H438      1.0  0.30370  0.56760  0.14730  1.0000
  H   H439      1.0  0.93240  0.80370  0.35270  1.0000
  H   H440      1.0  0.69630  0.43240  0.14730  1.0000
  H   H441      1.0  0.93240  0.69630  0.89730  1.0000
  H   H442      1.0  0.69630  0.06760  0.10270  1.0000
  H   H443      1.0  0.06760  0.30370  0.89730  1.0000
  H   H444      1.0  0.30370  0.93240  0.10270  1.0000
  H   H445      1.0  0.56760  0.69630  0.85270  1.0000
  H   H446      1.0  0.80370  0.06760  0.64730  1.0000
  H   H447      1.0  0.43240  0.30370  0.85270  1.0000
  H   H448      1.0  0.19630  0.93240  0.64730  1.0000
  C   C353      1.0  0.46100  0.21690  0.43770  1.0000
  C   C354      1.0  0.21690  0.53900  0.56230  1.0000
  C   C355      1.0  0.53900  0.78310  0.43770  1.0000
  C   C356      1.0  0.78310  0.46100  0.56230  1.0000
  C   C357      1.0  0.03900  0.21690  0.31230  1.0000
  C   C358      1.0  0.28310  0.53900  0.18770  1.0000
  C   C359      1.0  0.96100  0.78310  0.31230  1.0000
  C   C360      1.0  0.71690  0.46100  0.18770  1.0000
  C   C361      1.0  0.96100  0.71690  0.93770  1.0000
  C   C362      1.0  0.71690  0.03900  0.06230  1.0000
  C   C363      1.0  0.03900  0.28310  0.93770  1.0000
  C   C364      1.0  0.28310  0.96100  0.06230  1.0000
  C   C365      1.0  0.53900  0.71690  0.81230  1.0000
  C   C366      1.0  0.78310  0.03900  0.68770  1.0000
  C   C367      1.0  0.46100  0.28310  0.81230  1.0000
  C   C368      1.0  0.21690  0.96100  0.68770  1.0000
  H   H449      1.0  0.48360  0.19100  0.43940  1.0000
  H   H450      1.0  0.19100  0.51640  0.56060  1.0000
  H   H451      1.0  0.51640  0.80900  0.43940  1.0000
  H   H452      1.0  0.80900  0.48360  0.56060  1.0000
  H   H453      1.0  0.01640  0.19100  0.31060  1.0000
  H   H454      1.0  0.30900  0.51640  0.18940  1.0000
  H   H455      1.0  0.98360  0.80900  0.31060  1.0000
  H   H456      1.0  0.69100  0.48360  0.18940  1.0000
  H   H457      1.0  0.98360  0.69100  0.93940  1.0000
  H   H458      1.0  0.69100  0.01640  0.06060  1.0000
  H   H459      1.0  0.01640  0.30900  0.93940  1.0000
  H   H460      1.0  0.30900  0.98360  0.06060  1.0000
  H   H461      1.0  0.51640  0.69100  0.81060  1.0000
  H   H462      1.0  0.80900  0.01640  0.68940  1.0000
  H   H463      1.0  0.48360  0.30900  0.81060  1.0000
  H   H464      1.0  0.19100  0.98360  0.68940  1.0000
  C   C369      1.0  0.45710  0.25240  0.46139  1.0000
  C   C370      1.0  0.25240  0.54290  0.53861  1.0000
  C   C371      1.0  0.54290  0.74760  0.46139  1.0000
  C   C372      1.0  0.74760  0.45710  0.53861  1.0000
  C   C373      1.0  0.04290  0.25240  0.28861  1.0000
  C   C374      1.0  0.24760  0.54290  0.21139  1.0000
  C   C375      1.0  0.95710  0.74760  0.28861  1.0000
  C   C376      1.0  0.75240  0.45710  0.21139  1.0000
  C   C377      1.0  0.95710  0.75240  0.96139  1.0000
  C   C378      1.0  0.75240  0.04290  0.03861  1.0000
  C   C379      1.0  0.04290  0.24760  0.96139  1.0000
  C   C380      1.0  0.24760  0.95710  0.03861  1.0000
  C   C381      1.0  0.54290  0.75240  0.78861  1.0000
  C   C382      1.0  0.74760  0.04290  0.71139  1.0000
  C   C383      1.0  0.45710  0.24760  0.78861  1.0000
  C   C384      1.0  0.25240  0.95710  0.71139  1.0000
  C   C385      1.0  0.48900  0.24770  0.48963  1.0000
  C   C386      1.0  0.24770  0.51100  0.51037  1.0000
  C   C387      1.0  0.51100  0.75230  0.48963  1.0000
  C   C388      1.0  0.75230  0.48900  0.51037  1.0000
  C   C389      1.0  0.01100  0.24770  0.26037  1.0000
  C   C390      1.0  0.25230  0.51100  0.23963  1.0000
  C   C391      1.0  0.98900  0.75230  0.26037  1.0000
  C   C392      1.0  0.74770  0.48900  0.23963  1.0000
  C   C393      1.0  0.98900  0.74770  0.98963  1.0000
  C   C394      1.0  0.74770  0.01100  0.01037  1.0000
  C   C395      1.0  0.01100  0.25230  0.98963  1.0000
  C   C396      1.0  0.25230  0.98900  0.01037  1.0000
  C   C397      1.0  0.51100  0.74770  0.76037  1.0000
  C   C398      1.0  0.75230  0.01100  0.73963  1.0000
  C   C399      1.0  0.48900  0.25230  0.76037  1.0000
  C   C400      1.0  0.24770  0.98900  0.73963  1.0000
  C   C401      1.0  0.42510  0.28870  0.45782  1.0000
  C   C402      1.0  0.28870  0.57490  0.54218  1.0000
  C   C403      1.0  0.57490  0.71130  0.45782  1.0000
  C   C404      1.0  0.71130  0.42510  0.54218  1.0000
  C   C405      1.0  0.07490  0.28870  0.29218  1.0000
  C   C406      1.0  0.21130  0.57490  0.20782  1.0000
  C   C407      1.0  0.92510  0.71130  0.29218  1.0000
  C   C408      1.0  0.78870  0.42510  0.20782  1.0000
  C   C409      1.0  0.92510  0.78870  0.95782  1.0000
  C   C410      1.0  0.78870  0.07490  0.04218  1.0000
  C   C411      1.0  0.07490  0.21130  0.95782  1.0000
  C   C412      1.0  0.21130  0.92510  0.04218  1.0000
  C   C413      1.0  0.57490  0.78870  0.79218  1.0000
  C   C414      1.0  0.71130  0.07490  0.70782  1.0000
  C   C415      1.0  0.42510  0.21130  0.79218  1.0000
  C   C416      1.0  0.28870  0.92510  0.70782  1.0000
  H   H465      1.0  0.42130  0.31220  0.47360  1.0000
  H   H466      1.0  0.31220  0.57870  0.52640  1.0000
  H   H467      1.0  0.57870  0.68780  0.47360  1.0000
  H   H468      1.0  0.68780  0.42130  0.52640  1.0000
  H   H469      1.0  0.07870  0.31220  0.27640  1.0000
  H   H470      1.0  0.18780  0.57870  0.22360  1.0000
  H   H471      1.0  0.92130  0.68780  0.27640  1.0000
  H   H472      1.0  0.81220  0.42130  0.22360  1.0000
  H   H473      1.0  0.92130  0.81220  0.97360  1.0000
  H   H474      1.0  0.81220  0.07870  0.02640  1.0000
  H   H475      1.0  0.07870  0.18780  0.97360  1.0000
  H   H476      1.0  0.18780  0.92130  0.02640  1.0000
  H   H477      1.0  0.57870  0.81220  0.77640  1.0000
  H   H478      1.0  0.68780  0.07870  0.72360  1.0000
  H   H479      1.0  0.42130  0.18780  0.77640  1.0000
  H   H480      1.0  0.31220  0.92130  0.72360  1.0000
  C   C417      1.0  0.39770  0.29160  0.43120  1.0000
  C   C418      1.0  0.29160  0.60230  0.56880  1.0000
  C   C419      1.0  0.60230  0.70840  0.43120  1.0000
  C   C420      1.0  0.70840  0.39770  0.56880  1.0000
  C   C421      1.0  0.10230  0.29160  0.31880  1.0000
  C   C422      1.0  0.20840  0.60230  0.18120  1.0000
  C   C423      1.0  0.89770  0.70840  0.31880  1.0000
  C   C424      1.0  0.79160  0.39770  0.18120  1.0000
  C   C425      1.0  0.89770  0.79160  0.93120  1.0000
  C   C426      1.0  0.79160  0.10230  0.06880  1.0000
  C   C427      1.0  0.10230  0.20840  0.93120  1.0000
  C   C428      1.0  0.20840  0.89770  0.06880  1.0000
  C   C429      1.0  0.60230  0.79160  0.81880  1.0000
  C   C430      1.0  0.70840  0.10230  0.68120  1.0000
  C   C431      1.0  0.39770  0.20840  0.81880  1.0000
  C   C432      1.0  0.29160  0.89770  0.68120  1.0000
  H   H481      1.0  0.37550  0.31770  0.42860  1.0000
  H   H482      1.0  0.31770  0.62450  0.57140  1.0000
  H   H483      1.0  0.62450  0.68230  0.42860  1.0000
  H   H484      1.0  0.68230  0.37550  0.57140  1.0000
  H   H485      1.0  0.12450  0.31770  0.32140  1.0000
  H   H486      1.0  0.18230  0.62450  0.17860  1.0000
  H   H487      1.0  0.87550  0.68230  0.32140  1.0000
  H   H488      1.0  0.81770  0.37550  0.17860  1.0000
  H   H489      1.0  0.87550  0.81770  0.92860  1.0000
  H   H490      1.0  0.81770  0.12450  0.07140  1.0000
  H   H491      1.0  0.12450  0.18230  0.92860  1.0000
  H   H492      1.0  0.18230  0.87550  0.07140  1.0000
  H   H493      1.0  0.62450  0.81770  0.82140  1.0000
  H   H494      1.0  0.68230  0.12450  0.67860  1.0000
  H   H495      1.0  0.37550  0.18230  0.82140  1.0000
  H   H496      1.0  0.31770  0.87550  0.67860  1.0000
  C   C433      1.0  0.50640  0.26860  0.54157  1.0000
  C   C434      1.0  0.26860  0.49360  0.45843  1.0000
  C   C435      1.0  0.49360  0.73140  0.54157  1.0000
  C   C436      1.0  0.73140  0.50640  0.45843  1.0000
  C   C437      1.0  0.99360  0.26860  0.20843  1.0000
  C   C438      1.0  0.23140  0.49360  0.29157  1.0000
  C   C439      1.0  0.00640  0.73140  0.20843  1.0000
  C   C440      1.0  0.76860  0.50640  0.29157  1.0000
  C   C441      1.0  0.00640  0.76860  0.04157  1.0000
  C   C442      1.0  0.76860  0.99360  0.95843  1.0000
  C   C443      1.0  0.99360  0.23140  0.04157  1.0000
  C   C444      1.0  0.23140  0.00640  0.95843  1.0000
  C   C445      1.0  0.49360  0.76860  0.70843  1.0000
  C   C446      1.0  0.73140  0.99360  0.79157  1.0000
  C   C447      1.0  0.50640  0.23140  0.70843  1.0000
  C   C448      1.0  0.26860  0.00640  0.79157  1.0000
  H   H497      1.0  0.49700  0.28550  0.55970  1.0000
  H   H498      1.0  0.28550  0.50300  0.44030  1.0000
  H   H499      1.0  0.50300  0.71450  0.55970  1.0000
  H   H500      1.0  0.71450  0.49700  0.44030  1.0000
  H   H501      1.0  0.00300  0.28550  0.19030  1.0000
  H   H502      1.0  0.21450  0.50300  0.30970  1.0000
  H   H503      1.0  0.99700  0.71450  0.19030  1.0000
  H   H504      1.0  0.78550  0.49700  0.30970  1.0000
  H   H505      1.0  0.99700  0.78550  0.05970  1.0000
  H   H506      1.0  0.78550  0.00300  0.94030  1.0000
  H   H507      1.0  0.00300  0.21450  0.05970  1.0000
  H   H508      1.0  0.21450  0.99700  0.94030  1.0000
  H   H509      1.0  0.50300  0.78550  0.69030  1.0000
  H   H510      1.0  0.71450  0.00300  0.80970  1.0000
  H   H511      1.0  0.49700  0.21450  0.69030  1.0000
  H   H512      1.0  0.28550  0.99700  0.80970  1.0000
  C   C449      1.0  0.47570  0.26850  0.51670  1.0000
  C   C450      1.0  0.26850  0.52430  0.48330  1.0000
  C   C451      1.0  0.52430  0.73150  0.51670  1.0000
  C   C452      1.0  0.73150  0.47570  0.48330  1.0000
  C   C453      1.0  0.02430  0.26850  0.23330  1.0000
  C   C454      1.0  0.23150  0.52430  0.26670  1.0000
  C   C455      1.0  0.97570  0.73150  0.23330  1.0000
  C   C456      1.0  0.76850  0.47570  0.26670  1.0000
  C   C457      1.0  0.97570  0.76850  0.01670  1.0000
  C   C458      1.0  0.76850  0.02430  0.98330  1.0000
  C   C459      1.0  0.02430  0.23150  0.01670  1.0000
  C   C460      1.0  0.23150  0.97570  0.98330  1.0000
  C   C461      1.0  0.52430  0.76850  0.73330  1.0000
  C   C462      1.0  0.73150  0.02430  0.76670  1.0000
  C   C463      1.0  0.47570  0.23150  0.73330  1.0000
  C   C464      1.0  0.26850  0.97570  0.76670  1.0000
  H   H513      1.0  0.44470  0.28330  0.51840  1.0000
  H   H514      1.0  0.28330  0.55530  0.48160  1.0000
  H   H515      1.0  0.55530  0.71670  0.51840  1.0000
  H   H516      1.0  0.71670  0.44470  0.48160  1.0000
  H   H517      1.0  0.05530  0.28330  0.23160  1.0000
  H   H518      1.0  0.21670  0.55530  0.26840  1.0000
  H   H519      1.0  0.94470  0.71670  0.23160  1.0000
  H   H520      1.0  0.78330  0.44470  0.26840  1.0000
  H   H521      1.0  0.94470  0.78330  0.01840  1.0000
  H   H522      1.0  0.78330  0.05530  0.98160  1.0000
  H   H523      1.0  0.05530  0.21670  0.01840  1.0000
  H   H524      1.0  0.21670  0.94470  0.98160  1.0000
  H   H525      1.0  0.55530  0.78330  0.73160  1.0000
  H   H526      1.0  0.71670  0.05530  0.76840  1.0000
  H   H527      1.0  0.44470  0.21670  0.73160  1.0000
  H   H528      1.0  0.28330  0.94470  0.76840  1.0000
  C   C465      1.0  0.53170  0.22340  0.48880  1.0000
  C   C466      1.0  0.22340  0.46830  0.51120  1.0000
  C   C467      1.0  0.46830  0.77660  0.48880  1.0000
  C   C468      1.0  0.77660  0.53170  0.51120  1.0000
  C   C469      1.0  0.96830  0.22340  0.26120  1.0000
  C   C470      1.0  0.27660  0.46830  0.23880  1.0000
  C   C471      1.0  0.03170  0.77660  0.26120  1.0000
  C   C472      1.0  0.72340  0.53170  0.23880  1.0000
  C   C473      1.0  0.03170  0.72340  0.98880  1.0000
  C   C474      1.0  0.72340  0.96830  0.01120  1.0000
  C   C475      1.0  0.96830  0.27660  0.98880  1.0000
  C   C476      1.0  0.27660  0.03170  0.01120  1.0000
  C   C477      1.0  0.46830  0.72340  0.76120  1.0000
  C   C478      1.0  0.77660  0.96830  0.73880  1.0000
  C   C479      1.0  0.53170  0.27660  0.76120  1.0000
  C   C480      1.0  0.22340  0.03170  0.73880  1.0000
  H   H529      1.0  0.54140  0.20640  0.47080  1.0000
  H   H530      1.0  0.20640  0.45860  0.52920  1.0000
  H   H531      1.0  0.45860  0.79360  0.47080  1.0000
  H   H532      1.0  0.79360  0.54140  0.52920  1.0000
  H   H533      1.0  0.95860  0.20640  0.27920  1.0000
  H   H534      1.0  0.29360  0.45860  0.22080  1.0000
  H   H535      1.0  0.04140  0.79360  0.27920  1.0000
  H   H536      1.0  0.70640  0.54140  0.22080  1.0000
  H   H537      1.0  0.04140  0.70640  0.97080  1.0000
  H   H538      1.0  0.70640  0.95860  0.02920  1.0000
  H   H539      1.0  0.95860  0.29360  0.97080  1.0000
  H   H540      1.0  0.29360  0.04140  0.02920  1.0000
  H   H541      1.0  0.45860  0.70640  0.77920  1.0000
  H   H542      1.0  0.79360  0.95860  0.72080  1.0000
  H   H543      1.0  0.54140  0.29360  0.77920  1.0000
  H   H544      1.0  0.20640  0.04140  0.72080  1.0000
  C   C481      1.0  0.56160  0.22370  0.51506  1.0000
  C   C482      1.0  0.22370  0.43840  0.48494  1.0000
  C   C483      1.0  0.43840  0.77630  0.51506  1.0000
  C   C484      1.0  0.77630  0.56160  0.48494  1.0000
  C   C485      1.0  0.93840  0.22370  0.23494  1.0000
  C   C486      1.0  0.27630  0.43840  0.26506  1.0000
  C   C487      1.0  0.06160  0.77630  0.23494  1.0000
  C   C488      1.0  0.72370  0.56160  0.26506  1.0000
  C   C489      1.0  0.06160  0.72370  0.01506  1.0000
  C   C490      1.0  0.72370  0.93840  0.98494  1.0000
  C   C491      1.0  0.93840  0.27630  0.01506  1.0000
  C   C492      1.0  0.27630  0.06160  0.98494  1.0000
  C   C493      1.0  0.43840  0.72370  0.73494  1.0000
  C   C494      1.0  0.77630  0.93840  0.76506  1.0000
  C   C495      1.0  0.56160  0.27630  0.73494  1.0000
  C   C496      1.0  0.22370  0.06160  0.76506  1.0000
  H   H545      1.0  0.59200  0.20760  0.51420  1.0000
  H   H546      1.0  0.20760  0.40800  0.48580  1.0000
  H   H547      1.0  0.40800  0.79240  0.51420  1.0000
  H   H548      1.0  0.79240  0.59200  0.48580  1.0000
  H   H549      1.0  0.90800  0.20760  0.23580  1.0000
  H   H550      1.0  0.29240  0.40800  0.26420  1.0000
  H   H551      1.0  0.09200  0.79240  0.23580  1.0000
  H   H552      1.0  0.70760  0.59200  0.26420  1.0000
  H   H553      1.0  0.09200  0.70760  0.01420  1.0000
  H   H554      1.0  0.70760  0.90800  0.98580  1.0000
  H   H555      1.0  0.90800  0.29240  0.01420  1.0000
  H   H556      1.0  0.29240  0.09200  0.98580  1.0000
  H   H557      1.0  0.40800  0.70760  0.73580  1.0000
  H   H558      1.0  0.79240  0.90800  0.76420  1.0000
  H   H559      1.0  0.59200  0.29240  0.73580  1.0000
  H   H560      1.0  0.20760  0.09200  0.76420  1.0000
  F   F1        1.0  0.25000  0.35635  0.37500  1.0000
  F   F2        1.0  0.35635  0.75000  0.62500  1.0000
  F   F3        1.0  0.75000  0.64365  0.37500  1.0000
  F   F4        1.0  0.64365  0.25000  0.62500  1.0000
  F   F5        1.0  0.14365  0.75000  0.12500  1.0000
  F   F6        1.0  0.85635  0.25000  0.12500  1.0000
  F   F7        1.0  0.75000  0.85635  0.87500  1.0000
  F   F8        1.0  0.25000  0.14365  0.87500  1.0000
  N   N1        1.0  0.40220  0.25840  0.40904  1.0000
  N   N2        1.0  0.25840  0.59780  0.59096  1.0000
  N   N3        1.0  0.59780  0.74160  0.40904  1.0000
  N   N4        1.0  0.74160  0.40220  0.59096  1.0000
  N   N5        1.0  0.09780  0.25840  0.34096  1.0000
  N   N6        1.0  0.24160  0.59780  0.15904  1.0000
  N   N7        1.0  0.90220  0.74160  0.34096  1.0000
  N   N8        1.0  0.75840  0.40220  0.15904  1.0000
  N   N9        1.0  0.90220  0.75840  0.90904  1.0000
  N   N10       1.0  0.75840  0.09780  0.09096  1.0000
  N   N11       1.0  0.09780  0.24160  0.90904  1.0000
  N   N12       1.0  0.24160  0.90220  0.09096  1.0000
  N   N13       1.0  0.59780  0.75840  0.84096  1.0000
  N   N14       1.0  0.74160  0.09780  0.65904  1.0000
  N   N15       1.0  0.40220  0.24160  0.84096  1.0000
  N   N16       1.0  0.25840  0.90220  0.65904  1.0000
  N   N17       1.0  0.54860  0.24590  0.54115  1.0000
  N   N18       1.0  0.24590  0.45140  0.45885  1.0000
  N   N19       1.0  0.45140  0.75410  0.54115  1.0000
  N   N20       1.0  0.75410  0.54860  0.45885  1.0000
  N   N21       1.0  0.95140  0.24590  0.20885  1.0000
  N   N22       1.0  0.25410  0.45140  0.29115  1.0000
  N   N23       1.0  0.04860  0.75410  0.20885  1.0000
  N   N24       1.0  0.74590  0.54860  0.29115  1.0000
  N   N25       1.0  0.04860  0.74590  0.04115  1.0000
  N   N26       1.0  0.74590  0.95140  0.95885  1.0000
  N   N27       1.0  0.95140  0.25410  0.04115  1.0000
  N   N28       1.0  0.25410  0.04860  0.95885  1.0000
  N   N29       1.0  0.45140  0.74590  0.70885  1.0000
  N   N30       1.0  0.75410  0.95140  0.79115  1.0000
  N   N31       1.0  0.54860  0.25410  0.70885  1.0000
  N   N32       1.0  0.24590  0.04860  0.79115  1.0000
  O   O1        1.0  0.38500  0.45330  0.38200  1.0000
  O   O2        1.0  0.45330  0.61500  0.61800  1.0000
  O   O3        1.0  0.61500  0.54670  0.38200  1.0000
  O   O4        1.0  0.54670  0.38500  0.61800  1.0000
  O   O5        1.0  0.11500  0.45330  0.36800  1.0000
  O   O6        1.0  0.04670  0.61500  0.13200  1.0000
  O   O7        1.0  0.88500  0.54670  0.36800  1.0000
  O   O8        1.0  0.95330  0.38500  0.13200  1.0000
  O   O9        1.0  0.88500  0.95330  0.88200  1.0000
  O   O10       1.0  0.95330  0.11500  0.11800  1.0000
  O   O11       1.0  0.11500  0.04670  0.88200  1.0000
  O   O12       1.0  0.04670  0.88500  0.11800  1.0000
  O   O13       1.0  0.61500  0.95330  0.86800  1.0000
  O   O14       1.0  0.54670  0.11500  0.63200  1.0000
  O   O15       1.0  0.38500  0.04670  0.86800  1.0000
  O   O16       1.0  0.45330  0.88500  0.63200  1.0000
  O   O17       1.0  0.35572  0.36703  0.38072  1.0000
  O   O18       1.0  0.36703  0.64428  0.61928  1.0000
  O   O19       1.0  0.64428  0.63297  0.38072  1.0000
  O   O20       1.0  0.63297  0.35572  0.61928  1.0000
  O   O21       1.0  0.14428  0.36703  0.36928  1.0000
  O   O22       1.0  0.13297  0.64428  0.13072  1.0000
  O   O23       1.0  0.85572  0.63297  0.36928  1.0000
  O   O24       1.0  0.86703  0.35572  0.13072  1.0000
  O   O25       1.0  0.85572  0.86703  0.88072  1.0000
  O   O26       1.0  0.86703  0.14428  0.11928  1.0000
  O   O27       1.0  0.14428  0.13297  0.88072  1.0000
  O   O28       1.0  0.13297  0.85572  0.11928  1.0000
  O   O29       1.0  0.64428  0.86703  0.86928  1.0000
  O   O30       1.0  0.63297  0.14428  0.63072  1.0000
  O   O31       1.0  0.35572  0.13297  0.86928  1.0000
  O   O32       1.0  0.36703  0.85572  0.63072  1.0000
  O   O33       1.0  0.31630  0.42930  0.34766  1.0000
  O   O34       1.0  0.42930  0.68370  0.65234  1.0000
  O   O35       1.0  0.68370  0.57070  0.34766  1.0000
  O   O36       1.0  0.57070  0.31630  0.65234  1.0000
  O   O37       1.0  0.18370  0.42930  0.40234  1.0000
  O   O38       1.0  0.07070  0.68370  0.09766  1.0000
  O   O39       1.0  0.81630  0.57070  0.40234  1.0000
  O   O40       1.0  0.92930  0.31630  0.09766  1.0000
  O   O41       1.0  0.81630  0.92930  0.84766  1.0000
  O   O42       1.0  0.92930  0.18370  0.15234  1.0000
  O   O43       1.0  0.18370  0.07070  0.84766  1.0000
  O   O44       1.0  0.07070  0.81630  0.15234  1.0000
  O   O45       1.0  0.68370  0.92930  0.90234  1.0000
  O   O46       1.0  0.57070  0.18370  0.59766  1.0000
  O   O47       1.0  0.31630  0.07070  0.90234  1.0000
  O   O48       1.0  0.42930  0.81630  0.59766  1.0000
  O   O49       1.0  0.30470  0.43270  0.40489  1.0000
  O   O50       1.0  0.43270  0.69530  0.59511  1.0000
  O   O51       1.0  0.69530  0.56730  0.40489  1.0000
  O   O52       1.0  0.56730  0.30470  0.59511  1.0000
  O   O53       1.0  0.19530  0.43270  0.34511  1.0000
  O   O54       1.0  0.06730  0.69530  0.15489  1.0000
  O   O55       1.0  0.80470  0.56730  0.34511  1.0000
  O   O56       1.0  0.93270  0.30470  0.15489  1.0000
  O   O57       1.0  0.80470  0.93270  0.90489  1.0000
  O   O58       1.0  0.93270  0.19530  0.09511  1.0000
  O   O59       1.0  0.19530  0.06730  0.90489  1.0000
  O   O60       1.0  0.06730  0.80470  0.09511  1.0000
  O   O61       1.0  0.69530  0.93270  0.84511  1.0000
  O   O62       1.0  0.56730  0.19530  0.65489  1.0000
  O   O63       1.0  0.30470  0.06730  0.84511  1.0000
  O   O64       1.0  0.43270  0.80470  0.65489  1.0000
  O   O65       1.0  0.26290  0.26010  0.28883  1.0000
  O   O66       1.0  0.26010  0.73710  0.71117  1.0000
  O   O67       1.0  0.73710  0.73990  0.28883  1.0000
  O   O68       1.0  0.73990  0.26290  0.71117  1.0000
  O   O69       1.0  0.23710  0.26010  0.46117  1.0000
  O   O70       1.0  0.23990  0.73710  0.03883  1.0000
  O   O71       1.0  0.76290  0.73990  0.46117  1.0000
  O   O72       1.0  0.76010  0.26290  0.03883  1.0000
  O   O73       1.0  0.76290  0.76010  0.78883  1.0000
  O   O74       1.0  0.76010  0.23710  0.21117  1.0000
  O   O75       1.0  0.23710  0.23990  0.78883  1.0000
  O   O76       1.0  0.23990  0.76290  0.21117  1.0000
  O   O77       1.0  0.73710  0.76010  0.96117  1.0000
  O   O78       1.0  0.73990  0.23710  0.53883  1.0000
  O   O79       1.0  0.26290  0.23990  0.96117  1.0000
  O   O80       1.0  0.26010  0.76290  0.53883  1.0000
  O   O81       1.0  0.30130  0.28113  0.33846  1.0000
  O   O82       1.0  0.28113  0.69870  0.66154  1.0000
  O   O83       1.0  0.69870  0.71887  0.33846  1.0000
  O   O84       1.0  0.71887  0.30130  0.66154  1.0000
  O   O85       1.0  0.19870  0.28113  0.41154  1.0000
  O   O86       1.0  0.21887  0.69870  0.08846  1.0000
  O   O87       1.0  0.80130  0.71887  0.41154  1.0000
  O   O88       1.0  0.78113  0.30130  0.08846  1.0000
  O   O89       1.0  0.80130  0.78113  0.83846  1.0000
  O   O90       1.0  0.78113  0.19870  0.16154  1.0000
  O   O91       1.0  0.19870  0.21887  0.83846  1.0000
  O   O92       1.0  0.21887  0.80130  0.16154  1.0000
  O   O93       1.0  0.69870  0.78113  0.91154  1.0000
  O   O94       1.0  0.71887  0.19870  0.58846  1.0000
  O   O95       1.0  0.30130  0.21887  0.91154  1.0000
  O   O96       1.0  0.28113  0.80130  0.58846  1.0000
  O   O97       1.0  0.26320  0.34626  0.30674  1.0000
  O   O98       1.0  0.34626  0.73680  0.69326  1.0000
  O   O99       1.0  0.73680  0.65374  0.30674  1.0000
  O   O100      1.0  0.65374  0.26320  0.69326  1.0000
  O   O101      1.0  0.23680  0.34626  0.44326  1.0000
  O   O102      1.0  0.15374  0.73680  0.05674  1.0000
  O   O103      1.0  0.76320  0.65374  0.44326  1.0000
  O   O104      1.0  0.84626  0.26320  0.05674  1.0000
  O   O105      1.0  0.76320  0.84626  0.80674  1.0000
  O   O106      1.0  0.84626  0.23680  0.19326  1.0000
  O   O107      1.0  0.23680  0.15374  0.80674  1.0000
  O   O108      1.0  0.15374  0.76320  0.19326  1.0000
  O   O109      1.0  0.73680  0.84626  0.94326  1.0000
  O   O110      1.0  0.65374  0.23680  0.55674  1.0000
  O   O111      1.0  0.26320  0.15374  0.94326  1.0000
  O   O112      1.0  0.34626  0.76320  0.55674  1.0000
  O   O113      1.0  0.21050  0.28500  0.33312  1.0000
  O   O114      1.0  0.28500  0.78950  0.66688  1.0000
  O   O115      1.0  0.78950  0.71500  0.33312  1.0000
  O   O116      1.0  0.71500  0.21050  0.66688  1.0000
  O   O117      1.0  0.28950  0.28500  0.41688  1.0000
  O   O118      1.0  0.21500  0.78950  0.08312  1.0000
  O   O119      1.0  0.71050  0.71500  0.41688  1.0000
  O   O120      1.0  0.78500  0.21050  0.08312  1.0000
  O   O121      1.0  0.71050  0.78500  0.83312  1.0000
  O   O122      1.0  0.78500  0.28950  0.16688  1.0000
  O   O123      1.0  0.28950  0.21500  0.83312  1.0000
  O   O124      1.0  0.21500  0.71050  0.16688  1.0000
  O   O125      1.0  0.78950  0.78500  0.91688  1.0000
  O   O126      1.0  0.71500  0.28950  0.58312  1.0000
  O   O127      1.0  0.21050  0.21500  0.91688  1.0000
  O   O128      1.0  0.28500  0.71050  0.58312  1.0000
  O   O129      1.0  0.37640  0.26350  0.38316  1.0000
  O   O130      1.0  0.26350  0.62360  0.61684  1.0000
  O   O131      1.0  0.62360  0.73650  0.38316  1.0000
  O   O132      1.0  0.73650  0.37640  0.61684  1.0000
  O   O133      1.0  0.12360  0.26350  0.36684  1.0000
  O   O134      1.0  0.23650  0.62360  0.13316  1.0000
  O   O135      1.0  0.87640  0.73650  0.36684  1.0000
  O   O136      1.0  0.76350  0.37640  0.13316  1.0000
  O   O137      1.0  0.87640  0.76350  0.88316  1.0000
  O   O138      1.0  0.76350  0.12360  0.11684  1.0000
  O   O139      1.0  0.12360  0.23650  0.88316  1.0000
  O   O140      1.0  0.23650  0.87640  0.11684  1.0000
  O   O141      1.0  0.62360  0.76350  0.86684  1.0000
  O   O142      1.0  0.73650  0.12360  0.63316  1.0000
  O   O143      1.0  0.37640  0.23650  0.86684  1.0000
  O   O144      1.0  0.26350  0.87640  0.63316  1.0000
  P   P1        1.0  0.33592  0.41791  0.37871  1.0000
  P   P2        1.0  0.41791  0.66408  0.62129  1.0000
  P   P3        1.0  0.66408  0.58209  0.37871  1.0000
  P   P4        1.0  0.58209  0.33592  0.62129  1.0000
  P   P5        1.0  0.16408  0.41791  0.37129  1.0000
  P   P6        1.0  0.08209  0.66408  0.12871  1.0000
  P   P7        1.0  0.83592  0.58209  0.37129  1.0000
  P   P8        1.0  0.91791  0.33592  0.12871  1.0000
  P   P9        1.0  0.83592  0.91791  0.87871  1.0000
  P   P10       1.0  0.91791  0.16408  0.12129  1.0000
  P   P11       1.0  0.16408  0.08209  0.87871  1.0000
  P   P12       1.0  0.08209  0.83592  0.12129  1.0000
  P   P13       1.0  0.66408  0.91791  0.87129  1.0000
  P   P14       1.0  0.58209  0.16408  0.62871  1.0000
  P   P15       1.0  0.33592  0.08209  0.87129  1.0000
  P   P16       1.0  0.41791  0.83592  0.62871  1.0000
  P   P17       1.0  0.25889  0.29618  0.31924  1.0000
  P   P18       1.0  0.29618  0.74111  0.68076  1.0000
  P   P19       1.0  0.74111  0.70382  0.31924  1.0000
  P   P20       1.0  0.70382  0.25889  0.68076  1.0000
  P   P21       1.0  0.24111  0.29618  0.43076  1.0000
  P   P22       1.0  0.20382  0.74111  0.06924  1.0000
  P   P23       1.0  0.75889  0.70382  0.43076  1.0000
  P   P24       1.0  0.79618  0.25889  0.06924  1.0000
  P   P25       1.0  0.75889  0.79618  0.81924  1.0000
  P   P26       1.0  0.79618  0.24111  0.18076  1.0000
  P   P27       1.0  0.24111  0.20382  0.81924  1.0000
  P   P28       1.0  0.20382  0.75889  0.18076  1.0000
  P   P29       1.0  0.74111  0.79618  0.93076  1.0000
  P   P30       1.0  0.70382  0.24111  0.56924  1.0000
  P   P31       1.0  0.25889  0.20382  0.93076  1.0000
  P   P32       1.0  0.29618  0.75889  0.56924  1.0000
  Zn  Zn1       1.0  0.31648  0.30863  0.37807  1.0000
  Zn  Zn2       1.0  0.30863  0.68352  0.62193  1.0000
  Zn  Zn3       1.0  0.68352  0.69137  0.37807  1.0000
  Zn  Zn4       1.0  0.69137  0.31648  0.62193  1.0000
  Zn  Zn5       1.0  0.18352  0.30863  0.37193  1.0000
  Zn  Zn6       1.0  0.19137  0.68352  0.12807  1.0000
  Zn  Zn7       1.0  0.81648  0.69137  0.37193  1.0000
  Zn  Zn8       1.0  0.80863  0.31648  0.12807  1.0000
  Zn  Zn9       1.0  0.81648  0.80863  0.87807  1.0000
  Zn  Zn10      1.0  0.80863  0.18352  0.12193  1.0000
  Zn  Zn11      1.0  0.18352  0.19137  0.87807  1.0000
  Zn  Zn12      1.0  0.19137  0.81648  0.12193  1.0000
  Zn  Zn13      1.0  0.68352  0.80863  0.87193  1.0000
  Zn  Zn14      1.0  0.69137  0.18352  0.62807  1.0000
  Zn  Zn15      1.0  0.31648  0.19137  0.87193  1.0000
  Zn  Zn16      1.0  0.30863  0.81648  0.62807  1.0000
  Zn  Zn17      1.0  0.25624  0.40563  0.33049  1.0000
  Zn  Zn18      1.0  0.40563  0.74376  0.66951  1.0000
  Zn  Zn19      1.0  0.74376  0.59437  0.33049  1.0000
  Zn  Zn20      1.0  0.59437  0.25624  0.66951  1.0000
  Zn  Zn21      1.0  0.24376  0.40563  0.41951  1.0000
  Zn  Zn22      1.0  0.09437  0.74376  0.08049  1.0000
  Zn  Zn23      1.0  0.75624  0.59437  0.41951  1.0000
  Zn  Zn24      1.0  0.90563  0.25624  0.08049  1.0000
  Zn  Zn25      1.0  0.75624  0.90563  0.83050  1.0000
  Zn  Zn26      1.0  0.90563  0.24376  0.16951  1.0000
  Zn  Zn27      1.0  0.24376  0.09437  0.83050  1.0000
  Zn  Zn28      1.0  0.09437  0.75624  0.16951  1.0000
  Zn  Zn29      1.0  0.74376  0.90563  0.91951  1.0000
  Zn  Zn30      1.0  0.59437  0.24376  0.58050  1.0000
  Zn  Zn31      1.0  0.25624  0.09437  0.91951  1.0000
  Zn  Zn32      1.0  0.40563  0.75624  0.58050  1.0000
  C   C497      1.0  0.35650  0.54280  0.35550  1.0000
  C   C498      1.0  0.54280  0.64350  0.64450  1.0000
  C   C499      1.0  0.64350  0.45720  0.35550  1.0000
  C   C500      1.0  0.45720  0.35650  0.64450  1.0000
  C   C501      1.0  0.14350  0.54280  0.39450  1.0000
  C   C502      1.0  0.95720  0.64350  0.10550  1.0000
  C   C503      1.0  0.85650  0.45720  0.39450  1.0000
  C   C504      1.0  0.04280  0.35650  0.10550  1.0000
  C   C505      1.0  0.85650  0.04280  0.85550  1.0000
  C   C506      1.0  0.04280  0.14350  0.14450  1.0000
  C   C507      1.0  0.14350  0.95720  0.85550  1.0000
  C   C508      1.0  0.95720  0.85650  0.14450  1.0000
  C   C509      1.0  0.64350  0.04280  0.89450  1.0000
  C   C510      1.0  0.45720  0.14350  0.60550  1.0000
  C   C511      1.0  0.35650  0.95720  0.89450  1.0000
  C   C512      1.0  0.54280  0.85650  0.60550  1.0000
  H   H561      1.0  0.35910  0.51070  0.34500  1.0000
  H   H562      1.0  0.51070  0.64090  0.65500  1.0000
  H   H563      1.0  0.64090  0.48930  0.34500  1.0000
  H   H564      1.0  0.48930  0.35910  0.65500  1.0000
  H   H565      1.0  0.14090  0.51070  0.40500  1.0000
  H   H566      1.0  0.98930  0.64090  0.09500  1.0000
  H   H567      1.0  0.85910  0.48930  0.40500  1.0000
  H   H568      1.0  0.01070  0.35910  0.09500  1.0000
  H   H569      1.0  0.85910  0.01070  0.84500  1.0000
  H   H570      1.0  0.01070  0.14090  0.15500  1.0000
  H   H571      1.0  0.14090  0.98930  0.84500  1.0000
  H   H572      1.0  0.98930  0.85910  0.15500  1.0000
  H   H573      1.0  0.64090  0.01070  0.90500  1.0000
  H   H574      1.0  0.48930  0.14090  0.59500  1.0000
  H   H575      1.0  0.35910  0.98930  0.90500  1.0000
  H   H576      1.0  0.51070  0.85910  0.59500  1.0000
  C   C513      1.0  0.30310  0.55880  0.35600  1.0000
  C   C514      1.0  0.55880  0.69690  0.64400  1.0000
  C   C515      1.0  0.69690  0.44120  0.35600  1.0000
  C   C516      1.0  0.44120  0.30310  0.64400  1.0000
  C   C517      1.0  0.19690  0.55880  0.39400  1.0000
  C   C518      1.0  0.94120  0.69690  0.10600  1.0000
  C   C519      1.0  0.80310  0.44120  0.39400  1.0000
  C   C520      1.0  0.05880  0.30310  0.10600  1.0000
  C   C521      1.0  0.80310  0.05880  0.85600  1.0000
  C   C522      1.0  0.05880  0.19690  0.14400  1.0000
  C   C523      1.0  0.19690  0.94120  0.85600  1.0000
  C   C524      1.0  0.94120  0.80310  0.14400  1.0000
  C   C525      1.0  0.69690  0.05880  0.89400  1.0000
  C   C526      1.0  0.44120  0.19690  0.60600  1.0000
  C   C527      1.0  0.30310  0.94120  0.89400  1.0000
  C   C528      1.0  0.55880  0.80310  0.60600  1.0000
  H   H577      1.0  0.29150  0.56280  0.33480  1.0000
  H   H578      1.0  0.56280  0.70850  0.66520  1.0000
  H   H579      1.0  0.70850  0.43720  0.33480  1.0000
  H   H580      1.0  0.43720  0.29150  0.66520  1.0000
  H   H581      1.0  0.20850  0.56280  0.41520  1.0000
  H   H582      1.0  0.93720  0.70850  0.08480  1.0000
  H   H583      1.0  0.79150  0.43720  0.41520  1.0000
  H   H584      1.0  0.06280  0.29150  0.08480  1.0000
  H   H585      1.0  0.79150  0.06280  0.83480  1.0000
  H   H586      1.0  0.06280  0.20850  0.16520  1.0000
  H   H587      1.0  0.20850  0.93720  0.83480  1.0000
  H   H588      1.0  0.93720  0.79150  0.16520  1.0000
  H   H589      1.0  0.70850  0.06280  0.91520  1.0000
  H   H590      1.0  0.43720  0.20850  0.58480  1.0000
  H   H591      1.0  0.29150  0.93720  0.91520  1.0000
  H   H592      1.0  0.56280  0.79150  0.58480  1.0000
  H   H593      1.0  0.30020  0.58970  0.36690  1.0000
  H   H594      1.0  0.58970  0.69980  0.63310  1.0000
  H   H595      1.0  0.69980  0.41030  0.36690  1.0000
  H   H596      1.0  0.41030  0.30020  0.63310  1.0000
  H   H597      1.0  0.19980  0.58970  0.38310  1.0000
  H   H598      1.0  0.91030  0.69980  0.11690  1.0000
  H   H599      1.0  0.80020  0.41030  0.38310  1.0000
  H   H600      1.0  0.08970  0.30020  0.11690  1.0000
  H   H601      1.0  0.80020  0.08970  0.86690  1.0000
  H   H602      1.0  0.08970  0.19980  0.13310  1.0000
  H   H603      1.0  0.19980  0.91030  0.86690  1.0000
  H   H604      1.0  0.91030  0.80020  0.13310  1.0000
  H   H605      1.0  0.69980  0.08970  0.88310  1.0000
  H   H606      1.0  0.41030  0.19980  0.61690  1.0000
  H   H607      1.0  0.30020  0.91030  0.88310  1.0000
  H   H608      1.0  0.58970  0.80020  0.61690  1.0000
  H   H609      1.0  0.28360  0.53410  0.36640  1.0000
  H   H610      1.0  0.53410  0.71640  0.63360  1.0000
  H   H611      1.0  0.71640  0.46590  0.36640  1.0000
  H   H612      1.0  0.46590  0.28360  0.63360  1.0000
  H   H613      1.0  0.21640  0.53410  0.38360  1.0000
  H   H614      1.0  0.96590  0.71640  0.11640  1.0000
  H   H615      1.0  0.78360  0.46590  0.38360  1.0000
  H   H616      1.0  0.03410  0.28360  0.11640  1.0000
  H   H617      1.0  0.78360  0.03410  0.86640  1.0000
  H   H618      1.0  0.03410  0.21640  0.13360  1.0000
  H   H619      1.0  0.21640  0.96590  0.86640  1.0000
  H   H620      1.0  0.96590  0.78360  0.13360  1.0000
  H   H621      1.0  0.71640  0.03410  0.88360  1.0000
  H   H622      1.0  0.46590  0.21640  0.61640  1.0000
  H   H623      1.0  0.28360  0.96590  0.88360  1.0000
  H   H624      1.0  0.53410  0.78360  0.61640  1.0000
  C   C529      1.0  0.39310  0.57910  0.34040  1.0000
  C   C530      1.0  0.57910  0.60690  0.65960  1.0000
  C   C531      1.0  0.60690  0.42090  0.34040  1.0000
  C   C532      1.0  0.42090  0.39310  0.65960  1.0000
  C   C533      1.0  0.10690  0.57910  0.40960  1.0000
  C   C534      1.0  0.92090  0.60690  0.09040  1.0000
  C   C535      1.0  0.89310  0.42090  0.40960  1.0000
  C   C536      1.0  0.07910  0.39310  0.09040  1.0000
  C   C537      1.0  0.89310  0.07910  0.84040  1.0000
  C   C538      1.0  0.07910  0.10690  0.15960  1.0000
  C   C539      1.0  0.10690  0.92090  0.84040  1.0000
  C   C540      1.0  0.92090  0.89310  0.15960  1.0000
  C   C541      1.0  0.60690  0.07910  0.90960  1.0000
  C   C542      1.0  0.42090  0.10690  0.59040  1.0000
  C   C543      1.0  0.39310  0.92090  0.90960  1.0000
  C   C544      1.0  0.57910  0.89310  0.59040  1.0000
  H   H625      1.0  0.42620  0.56680  0.34300  1.0000
  H   H626      1.0  0.56680  0.57380  0.65700  1.0000
  H   H627      1.0  0.57380  0.43320  0.34300  1.0000
  H   H628      1.0  0.43320  0.42620  0.65700  1.0000
  H   H629      1.0  0.07380  0.56680  0.40700  1.0000
  H   H630      1.0  0.93320  0.57380  0.09300  1.0000
  H   H631      1.0  0.92620  0.43320  0.40700  1.0000
  H   H632      1.0  0.06680  0.42620  0.09300  1.0000
  H   H633      1.0  0.92620  0.06680  0.84300  1.0000
  H   H634      1.0  0.06680  0.07380  0.15700  1.0000
  H   H635      1.0  0.07380  0.93320  0.84300  1.0000
  H   H636      1.0  0.93320  0.92620  0.15700  1.0000
  H   H637      1.0  0.57380  0.06680  0.90700  1.0000
  H   H638      1.0  0.43320  0.07380  0.59300  1.0000
  H   H639      1.0  0.42620  0.93320  0.90700  1.0000
  H   H640      1.0  0.56680  0.92620  0.59300  1.0000
  H   H641      1.0  0.39030  0.61080  0.35050  1.0000
  H   H642      1.0  0.61080  0.60970  0.64950  1.0000
  H   H643      1.0  0.60970  0.38920  0.35050  1.0000
  H   H644      1.0  0.38920  0.39030  0.64950  1.0000
  H   H645      1.0  0.10970  0.61080  0.39950  1.0000
  H   H646      1.0  0.88920  0.60970  0.10050  1.0000
  H   H647      1.0  0.89030  0.38920  0.39950  1.0000
  H   H648      1.0  0.11080  0.39030  0.10050  1.0000
  H   H649      1.0  0.89030  0.11080  0.85050  1.0000
  H   H650      1.0  0.11080  0.10970  0.14950  1.0000
  H   H651      1.0  0.10970  0.88920  0.85050  1.0000
  H   H652      1.0  0.88920  0.89030  0.14950  1.0000
  H   H653      1.0  0.60970  0.11080  0.89950  1.0000
  H   H654      1.0  0.38920  0.10970  0.60050  1.0000
  H   H655      1.0  0.39030  0.88920  0.89950  1.0000
  H   H656      1.0  0.61080  0.89030  0.60050  1.0000
  H   H657      1.0  0.38570  0.58240  0.31850  1.0000
  H   H658      1.0  0.58240  0.61430  0.68150  1.0000
  H   H659      1.0  0.61430  0.41760  0.31850  1.0000
  H   H660      1.0  0.41760  0.38570  0.68150  1.0000
  H   H661      1.0  0.11430  0.58240  0.43150  1.0000
  H   H662      1.0  0.91760  0.61430  0.06850  1.0000
  H   H663      1.0  0.88570  0.41760  0.43150  1.0000
  H   H664      1.0  0.08240  0.38570  0.06850  1.0000
  H   H665      1.0  0.88570  0.08240  0.81850  1.0000
  H   H666      1.0  0.08240  0.11430  0.18150  1.0000
  H   H667      1.0  0.11430  0.91760  0.81850  1.0000
  H   H668      1.0  0.91760  0.88570  0.18150  1.0000
  H   H669      1.0  0.61430  0.08240  0.93150  1.0000
  H   H670      1.0  0.41760  0.11430  0.56850  1.0000
  H   H671      1.0  0.38570  0.91760  0.93150  1.0000
  H   H672      1.0  0.58240  0.88570  0.56850  1.0000
