data_image0
_chemical_formula_structural       Ti4C8H8C24O24C16H8C8H8O8
_chemical_formula_sum              "Ti4 C56 H24 O32"
_cell_length_a       13.3677
_cell_length_b       16.8635
_cell_length_c       10.7622
_cell_angle_alpha    90
_cell_angle_beta     90
_cell_angle_gamma    90

_space_group_name_H-M_alt    "P 1"
_space_group_IT_number       1

loop_
  _space_group_symop_operation_xyz
  'x, y, z'

loop_
  _atom_site_type_symbol
  _atom_site_label
  _atom_site_symmetry_multiplicity
  _atom_site_fract_x
  _atom_site_fract_y
  _atom_site_fract_z
  _atom_site_occupancy
  Ti  Ti1       1.0  0.50000  0.30538  0.25000  1.0000
  Ti  Ti2       1.0  0.00000  0.19462  0.75000  1.0000
  Ti  Ti3       1.0  0.50000  0.69462  0.75000  1.0000
  Ti  Ti4       1.0  0.00000  0.80538  0.25000  1.0000
  C   C1        1.0  0.58940  0.50750  0.06320  1.0000
  C   C2        1.0  0.91060  0.99250  0.56320  1.0000
  C   C3        1.0  0.41060  0.50750  0.43680  1.0000
  C   C4        1.0  0.08940  0.99250  0.93680  1.0000
  C   C5        1.0  0.41060  0.49250  0.93680  1.0000
  C   C6        1.0  0.08940  0.00750  0.43680  1.0000
  C   C7        1.0  0.58940  0.49250  0.56320  1.0000
  C   C8        1.0  0.91060  0.00750  0.06320  1.0000
  H   H1        1.0  0.64930  0.51310  0.10620  1.0000
  H   H2        1.0  0.85070  0.98690  0.60620  1.0000
  H   H3        1.0  0.35070  0.51310  0.39380  1.0000
  H   H4        1.0  0.14930  0.98690  0.89380  1.0000
  H   H5        1.0  0.35070  0.48690  0.89380  1.0000
  H   H6        1.0  0.14930  0.01310  0.39380  1.0000
  H   H7        1.0  0.64930  0.48690  0.60620  1.0000
  H   H8        1.0  0.85070  0.01310  0.10620  1.0000
  C   C9        1.0  0.53420  0.43860  0.07680  1.0000
  C   C10       1.0  0.96580  0.06140  0.57680  1.0000
  C   C11       1.0  0.46580  0.43860  0.42320  1.0000
  C   C12       1.0  0.03420  0.06140  0.92320  1.0000
  C   C13       1.0  0.46580  0.56140  0.92320  1.0000
  C   C14       1.0  0.03420  0.93860  0.42320  1.0000
  C   C15       1.0  0.53420  0.56140  0.57680  1.0000
  C   C16       1.0  0.96580  0.93860  0.07680  1.0000
  C   C17       1.0  0.44390  0.43050  0.01540  1.0000
  C   C18       1.0  0.05610  0.06950  0.51540  1.0000
  C   C19       1.0  0.55610  0.43050  0.48460  1.0000
  C   C20       1.0  0.94390  0.06950  0.98460  1.0000
  C   C21       1.0  0.55610  0.56950  0.98460  1.0000
  C   C22       1.0  0.94390  0.93050  0.48460  1.0000
  C   C23       1.0  0.44390  0.56950  0.51540  1.0000
  C   C24       1.0  0.05610  0.93050  0.01540  1.0000
  C   C25       1.0  0.37810  0.35880  0.03000  1.0000
  C   C26       1.0  0.12190  0.14120  0.53000  1.0000
  C   C27       1.0  0.62190  0.35880  0.47000  1.0000
  C   C28       1.0  0.87810  0.14120  0.97000  1.0000
  C   C29       1.0  0.62190  0.64120  0.97000  1.0000
  C   C30       1.0  0.87810  0.85880  0.47000  1.0000
  C   C31       1.0  0.37810  0.64120  0.53000  1.0000
  C   C32       1.0  0.12190  0.85880  0.03000  1.0000
  O   O1        1.0  0.57200  0.37980  0.14950  1.0000
  O   O2        1.0  0.92800  0.12020  0.64950  1.0000
  O   O3        1.0  0.42800  0.37980  0.35050  1.0000
  O   O4        1.0  0.07200  0.12020  0.85050  1.0000
  O   O5        1.0  0.42800  0.62020  0.85050  1.0000
  O   O6        1.0  0.07200  0.87980  0.35050  1.0000
  O   O7        1.0  0.57200  0.62020  0.64950  1.0000
  O   O8        1.0  0.92800  0.87980  0.14950  1.0000
  O   O9        1.0  0.39530  0.31080  0.12010  1.0000
  O   O10       1.0  0.10470  0.18920  0.62010  1.0000
  O   O11       1.0  0.60470  0.31080  0.37990  1.0000
  O   O12       1.0  0.89530  0.18920  0.87990  1.0000
  O   O13       1.0  0.60470  0.68920  0.87990  1.0000
  O   O14       1.0  0.89530  0.81080  0.37990  1.0000
  O   O15       1.0  0.39530  0.68920  0.62010  1.0000
  O   O16       1.0  0.10470  0.81080  0.12010  1.0000
  O   O17       1.0  0.30750  0.34760  0.95460  1.0000
  O   O18       1.0  0.19250  0.15240  0.45460  1.0000
  O   O19       1.0  0.69250  0.34760  0.54540  1.0000
  O   O20       1.0  0.80750  0.15240  0.04540  1.0000
  O   O21       1.0  0.69250  0.65240  0.04540  1.0000
  O   O22       1.0  0.80750  0.84760  0.54540  1.0000
  O   O23       1.0  0.30750  0.65240  0.45460  1.0000
  O   O24       1.0  0.19250  0.84760  0.95460  1.0000
  C   C33       1.0  0.53910  0.14710  0.20850  1.0000
  C   C34       1.0  0.96090  0.35290  0.70850  1.0000
  C   C35       1.0  0.46090  0.14710  0.29150  1.0000
  C   C36       1.0  0.03910  0.35290  0.79150  1.0000
  C   C37       1.0  0.46090  0.85290  0.79150  1.0000
  C   C38       1.0  0.03910  0.64710  0.29150  1.0000
  C   C39       1.0  0.53910  0.85290  0.70850  1.0000
  C   C40       1.0  0.96090  0.64710  0.20850  1.0000
  C   C41       1.0  0.58090  0.07750  0.16580  1.0000
  C   C42       1.0  0.91910  0.42250  0.66580  1.0000
  C   C43       1.0  0.41910  0.07750  0.33420  1.0000
  C   C44       1.0  0.08090  0.42250  0.83420  1.0000
  C   C45       1.0  0.41910  0.92250  0.83420  1.0000
  C   C46       1.0  0.08090  0.57750  0.33420  1.0000
  C   C47       1.0  0.58090  0.92250  0.66580  1.0000
  C   C48       1.0  0.91910  0.57750  0.16580  1.0000
  H   H9        1.0  0.63480  0.07730  0.11130  1.0000
  H   H10       1.0  0.86520  0.42270  0.61130  1.0000
  H   H11       1.0  0.36520  0.07730  0.38870  1.0000
  H   H12       1.0  0.13480  0.42270  0.88870  1.0000
  H   H13       1.0  0.36520  0.92270  0.88870  1.0000
  H   H14       1.0  0.13480  0.57730  0.38870  1.0000
  H   H15       1.0  0.63480  0.92270  0.61130  1.0000
  H   H16       1.0  0.86520  0.57730  0.11130  1.0000
  C   C49       1.0  0.53730  0.00710  0.20920  1.0000
  C   C50       1.0  0.96270  0.49290  0.70920  1.0000
  C   C51       1.0  0.46270  0.00710  0.29080  1.0000
  C   C52       1.0  0.03730  0.49290  0.79080  1.0000
  C   C53       1.0  0.46270  0.99290  0.79080  1.0000
  C   C54       1.0  0.03730  0.50710  0.29080  1.0000
  C   C55       1.0  0.53730  0.99290  0.70920  1.0000
  C   C56       1.0  0.96270  0.50710  0.20920  1.0000
  H   H17       1.0  0.56130  0.95890  0.17990  1.0000
  H   H18       1.0  0.93870  0.54110  0.67990  1.0000
  H   H19       1.0  0.43870  0.95890  0.32010  1.0000
  H   H20       1.0  0.06130  0.54110  0.82010  1.0000
  H   H21       1.0  0.43870  0.04110  0.82010  1.0000
  H   H22       1.0  0.06130  0.45890  0.32010  1.0000
  H   H23       1.0  0.56130  0.04110  0.67990  1.0000
  H   H24       1.0  0.93870  0.45890  0.17990  1.0000
  O   O25       1.0  0.57180  0.21840  0.17520  1.0000
  O   O26       1.0  0.92820  0.28160  0.67520  1.0000
  O   O27       1.0  0.42820  0.21840  0.32480  1.0000
  O   O28       1.0  0.07180  0.28160  0.82480  1.0000
  O   O29       1.0  0.42820  0.78160  0.82480  1.0000
  O   O30       1.0  0.07180  0.71840  0.32480  1.0000
  O   O31       1.0  0.57180  0.78160  0.67520  1.0000
  O   O32       1.0  0.92820  0.71840  0.17520  1.0000
