data_image0
_chemical_formula_structural       C8H4C4H4C8H4C4H4C8H4C4H4C8H4C4H4C8H4C4H4C8H4C4H4C8H4C4H4C8H4C4H4S16Cd4
_chemical_formula_sum              "C96 H64 S16 Cd4"
_cell_length_a       9.1429
_cell_length_b       19.388
_cell_length_c       21.699
_cell_angle_alpha    90
_cell_angle_beta     90
_cell_angle_gamma    90

_space_group_name_H-M_alt    "P 1"
_space_group_IT_number       1

loop_
  _space_group_symop_operation_xyz
  'x, y, z'

loop_
  _atom_site_type_symbol
  _atom_site_label
  _atom_site_symmetry_multiplicity
  _atom_site_fract_x
  _atom_site_fract_y
  _atom_site_fract_z
  _atom_site_occupancy
  C   C1        1.0  0.02990  0.50190  0.33440  1.0000
  C   C2        1.0  0.97010  0.49810  0.83440  1.0000
  C   C3        1.0  0.97010  0.00190  0.33440  1.0000
  C   C4        1.0  0.02990  0.99810  0.83440  1.0000
  C   C5        1.0  0.90640  0.46070  0.32650  1.0000
  C   C6        1.0  0.09360  0.53930  0.82650  1.0000
  C   C7        1.0  0.09360  0.96070  0.32650  1.0000
  C   C8        1.0  0.90640  0.03930  0.82650  1.0000
  H   H1        1.0  0.84070  0.45600  0.35900  1.0000
  H   H2        1.0  0.15930  0.54400  0.85900  1.0000
  H   H3        1.0  0.15930  0.95600  0.35900  1.0000
  H   H4        1.0  0.84070  0.04400  0.85900  1.0000
  C   C9        1.0  0.87900  0.42700  0.27260  1.0000
  C   C10       1.0  0.12100  0.57300  0.77260  1.0000
  C   C11       1.0  0.12100  0.92700  0.27260  1.0000
  C   C12       1.0  0.87900  0.07300  0.77260  1.0000
  H   H5        1.0  0.79600  0.39950  0.26980  1.0000
  H   H6        1.0  0.20400  0.60050  0.76980  1.0000
  H   H7        1.0  0.20400  0.89950  0.26980  1.0000
  H   H8        1.0  0.79600  0.10050  0.76980  1.0000
  C   C13       1.0  0.96980  0.43220  0.22200  1.0000
  C   C14       1.0  0.03020  0.56780  0.72200  1.0000
  C   C15       1.0  0.03020  0.93220  0.22200  1.0000
  C   C16       1.0  0.96980  0.06780  0.72200  1.0000
  C   C17       1.0  0.09530  0.47200  0.22900  1.0000
  C   C18       1.0  0.90470  0.52800  0.72900  1.0000
  C   C19       1.0  0.90470  0.97200  0.22900  1.0000
  C   C20       1.0  0.09530  0.02800  0.72900  1.0000
  H   H9        1.0  0.16000  0.47620  0.19620  1.0000
  H   H10       1.0  0.84000  0.52380  0.69620  1.0000
  H   H11       1.0  0.84000  0.97620  0.19620  1.0000
  H   H12       1.0  0.16000  0.02380  0.69620  1.0000
  C   C21       1.0  0.12650  0.50640  0.28510  1.0000
  C   C22       1.0  0.87350  0.49360  0.78510  1.0000
  C   C23       1.0  0.87350  0.00640  0.28510  1.0000
  C   C24       1.0  0.12650  0.99360  0.78510  1.0000
  H   H13       1.0  0.21180  0.53220  0.28900  1.0000
  H   H14       1.0  0.78820  0.46780  0.78900  1.0000
  H   H15       1.0  0.78820  0.03220  0.28900  1.0000
  H   H16       1.0  0.21180  0.96780  0.78900  1.0000
  C   C25       1.0  0.88380  0.32350  0.05070  1.0000
  C   C26       1.0  0.11620  0.67650  0.55070  1.0000
  C   C27       1.0  0.11620  0.82350  0.05070  1.0000
  C   C28       1.0  0.88380  0.17650  0.55070  1.0000
  C   C29       1.0  0.83230  0.30040  0.10770  1.0000
  C   C30       1.0  0.16770  0.69960  0.60770  1.0000
  C   C31       1.0  0.16770  0.80040  0.10770  1.0000
  C   C32       1.0  0.83230  0.19960  0.60770  1.0000
  H   H17       1.0  0.77780  0.25990  0.10890  1.0000
  H   H18       1.0  0.22220  0.74010  0.60890  1.0000
  H   H19       1.0  0.22220  0.75990  0.10890  1.0000
  H   H20       1.0  0.77780  0.24010  0.60890  1.0000
  C   C33       1.0  0.85850  0.33470  0.16200  1.0000
  C   C34       1.0  0.14150  0.66530  0.66200  1.0000
  C   C35       1.0  0.14150  0.83470  0.16200  1.0000
  C   C36       1.0  0.85850  0.16530  0.66200  1.0000
  H   H21       1.0  0.82190  0.31680  0.19870  1.0000
  H   H22       1.0  0.17810  0.68320  0.69870  1.0000
  H   H23       1.0  0.17810  0.81680  0.19870  1.0000
  H   H24       1.0  0.82190  0.18320  0.69870  1.0000
  C   C37       1.0  0.93790  0.39530  0.16340  1.0000
  C   C38       1.0  0.06210  0.60470  0.66340  1.0000
  C   C39       1.0  0.06210  0.89530  0.16340  1.0000
  C   C40       1.0  0.93790  0.10470  0.66340  1.0000
  C   C41       1.0  0.99240  0.41810  0.10660  1.0000
  C   C42       1.0  0.00760  0.58190  0.60660  1.0000
  C   C43       1.0  0.00760  0.91810  0.10660  1.0000
  C   C44       1.0  0.99240  0.08190  0.60660  1.0000
  H   H25       1.0  0.04890  0.45800  0.10530  1.0000
  H   H26       1.0  0.95110  0.54200  0.60530  1.0000
  H   H27       1.0  0.95110  0.95800  0.10530  1.0000
  H   H28       1.0  0.04890  0.04200  0.60530  1.0000
  C   C45       1.0  0.96470  0.38320  0.05260  1.0000
  C   C46       1.0  0.03530  0.61680  0.55260  1.0000
  C   C47       1.0  0.03530  0.88320  0.05260  1.0000
  C   C48       1.0  0.96470  0.11680  0.55260  1.0000
  H   H29       1.0  0.00230  0.40060  0.01600  1.0000
  H   H30       1.0  0.99770  0.59940  0.51600  1.0000
  H   H31       1.0  0.99770  0.90060  0.01600  1.0000
  H   H32       1.0  0.00230  0.09940  0.51600  1.0000
  C   C49       1.0  0.47040  0.44300  0.98640  1.0000
  C   C50       1.0  0.52960  0.55700  0.48640  1.0000
  C   C51       1.0  0.52960  0.94300  0.98640  1.0000
  C   C52       1.0  0.47040  0.05700  0.48640  1.0000
  C   C53       1.0  0.33560  0.47530  0.99620  1.0000
  C   C54       1.0  0.66440  0.52470  0.49620  1.0000
  C   C55       1.0  0.66440  0.97530  0.99620  1.0000
  C   C56       1.0  0.33560  0.02470  0.49620  1.0000
  H   H33       1.0  0.25940  0.46880  0.96840  1.0000
  H   H34       1.0  0.74060  0.53120  0.46840  1.0000
  H   H35       1.0  0.74060  0.96880  0.96840  1.0000
  H   H36       1.0  0.25940  0.03120  0.46840  1.0000
  C   C57       1.0  0.31550  0.51690  0.04690  1.0000
  C   C58       1.0  0.68450  0.48310  0.54690  1.0000
  C   C59       1.0  0.68450  0.01690  0.04690  1.0000
  C   C60       1.0  0.31550  0.98310  0.54690  1.0000
  H   H37       1.0  0.22490  0.53790  0.05200  1.0000
  H   H38       1.0  0.77510  0.46210  0.55200  1.0000
  H   H39       1.0  0.77510  0.03790  0.05200  1.0000
  H   H40       1.0  0.22490  0.96210  0.55200  1.0000
  C   C61       1.0  0.42330  0.52930  0.09090  1.0000
  C   C62       1.0  0.57670  0.47070  0.59090  1.0000
  C   C63       1.0  0.57670  0.02930  0.09090  1.0000
  C   C64       1.0  0.42330  0.97070  0.59090  1.0000
  C   C65       1.0  0.55650  0.49540  0.08100  1.0000
  C   C66       1.0  0.44350  0.50460  0.58100  1.0000
  C   C67       1.0  0.44350  0.99540  0.08100  1.0000
  C   C68       1.0  0.55650  0.00460  0.58100  1.0000
  H   H41       1.0  0.63090  0.50070  0.10990  1.0000
  H   H42       1.0  0.36910  0.49930  0.60990  1.0000
  H   H43       1.0  0.36910  0.00070  0.10990  1.0000
  H   H44       1.0  0.63090  0.99930  0.60990  1.0000
  C   C69       1.0  0.58140  0.45460  0.03030  1.0000
  C   C70       1.0  0.41860  0.54540  0.53030  1.0000
  C   C71       1.0  0.41860  0.95460  0.03030  1.0000
  C   C72       1.0  0.58140  0.04540  0.53030  1.0000
  H   H45       1.0  0.67270  0.43430  0.02480  1.0000
  H   H46       1.0  0.32730  0.56570  0.52480  1.0000
  H   H47       1.0  0.32730  0.93430  0.02480  1.0000
  H   H48       1.0  0.67270  0.06570  0.52480  1.0000
  C   C73       1.0  0.32960  0.65840  0.24820  1.0000
  C   C74       1.0  0.67040  0.34160  0.74820  1.0000
  C   C75       1.0  0.67040  0.15840  0.24820  1.0000
  C   C76       1.0  0.32960  0.84160  0.74820  1.0000
  C   C77       1.0  0.44740  0.61390  0.24840  1.0000
  C   C78       1.0  0.55260  0.38610  0.74840  1.0000
  C   C79       1.0  0.55260  0.11390  0.24840  1.0000
  C   C80       1.0  0.44740  0.88610  0.74840  1.0000
  H   H49       1.0  0.50730  0.61210  0.28300  1.0000
  H   H50       1.0  0.49270  0.38790  0.78300  1.0000
  H   H51       1.0  0.49270  0.11210  0.28300  1.0000
  H   H52       1.0  0.50730  0.88790  0.78300  1.0000
  C   C81       1.0  0.47880  0.57160  0.19850  1.0000
  C   C82       1.0  0.52120  0.42840  0.69850  1.0000
  C   C83       1.0  0.52120  0.07160  0.19850  1.0000
  C   C84       1.0  0.47880  0.92840  0.69850  1.0000
  H   H53       1.0  0.55750  0.54130  0.20060  1.0000
  H   H54       1.0  0.44250  0.45870  0.70060  1.0000
  H   H55       1.0  0.44250  0.04130  0.20060  1.0000
  H   H56       1.0  0.55750  0.95870  0.70060  1.0000
  C   C85       1.0  0.39450  0.57400  0.14540  1.0000
  C   C86       1.0  0.60550  0.42600  0.64540  1.0000
  C   C87       1.0  0.60550  0.07400  0.14540  1.0000
  C   C88       1.0  0.39450  0.92600  0.64540  1.0000
  C   C89       1.0  0.27570  0.62020  0.14480  1.0000
  C   C90       1.0  0.72430  0.37980  0.64480  1.0000
  C   C91       1.0  0.72430  0.12020  0.14480  1.0000
  C   C92       1.0  0.27570  0.87980  0.64480  1.0000
  H   H57       1.0  0.21820  0.62440  0.10960  1.0000
  H   H58       1.0  0.78180  0.37560  0.60960  1.0000
  H   H59       1.0  0.78180  0.12440  0.10960  1.0000
  H   H60       1.0  0.21820  0.87560  0.60960  1.0000
  C   C93       1.0  0.24470  0.65880  0.19520  1.0000
  C   C94       1.0  0.75530  0.34120  0.69520  1.0000
  C   C95       1.0  0.75530  0.15880  0.19520  1.0000
  C   C96       1.0  0.24470  0.84120  0.69520  1.0000
  H   H61       1.0  0.16220  0.68680  0.19430  1.0000
  H   H62       1.0  0.83780  0.31320  0.69430  1.0000
  H   H63       1.0  0.83780  0.18680  0.19430  1.0000
  H   H64       1.0  0.16220  0.81320  0.69430  1.0000
  S   S1        1.0  0.06095  0.53919  0.40707  1.0000
  S   S2        1.0  0.93905  0.46081  0.90707  1.0000
  S   S3        1.0  0.93905  0.03919  0.40707  1.0000
  S   S4        1.0  0.06095  0.96081  0.90707  1.0000
  S   S5        1.0  0.84314  0.27580  0.98314  1.0000
  S   S6        1.0  0.15686  0.72420  0.48314  1.0000
  S   S7        1.0  0.15686  0.77580  0.98314  1.0000
  S   S8        1.0  0.84314  0.22420  0.48314  1.0000
  S   S9        1.0  0.49233  0.39155  0.92106  1.0000
  S   S10       1.0  0.50767  0.60845  0.42106  1.0000
  S   S11       1.0  0.50767  0.89155  0.92106  1.0000
  S   S12       1.0  0.49233  0.10845  0.42106  1.0000
  S   S13       1.0  0.27985  0.71319  0.30954  1.0000
  S   S14       1.0  0.72015  0.28681  0.80954  1.0000
  S   S15       1.0  0.72015  0.21319  0.30954  1.0000
  S   S16       1.0  0.27985  0.78681  0.80954  1.0000
  Cd  Cd1       1.0  0.24180  0.63697  0.40217  1.0000
  Cd  Cd2       1.0  0.75820  0.36303  0.90217  1.0000
  Cd  Cd3       1.0  0.75820  0.13697  0.40217  1.0000
  Cd  Cd4       1.0  0.24180  0.86303  0.90217  1.0000
