data_image0
_chemical_formula_structural       Mn4O24C4H4C4H4C4H4
_chemical_formula_sum              "Mn4 O24 C12 H12"
_cell_length_a       8.554
_cell_length_b       9.207
_cell_length_c       12.387
_cell_angle_alpha    90
_cell_angle_beta     94.432
_cell_angle_gamma    90

_space_group_name_H-M_alt    "P 1"
_space_group_IT_number       1

loop_
  _space_group_symop_operation_xyz
  'x, y, z'

loop_
  _atom_site_type_symbol
  _atom_site_label
  _atom_site_symmetry_multiplicity
  _atom_site_fract_x
  _atom_site_fract_y
  _atom_site_fract_z
  _atom_site_occupancy
  Mn  Mn1       1.0  0.00000  0.50000  0.00000  1.0000
  Mn  Mn2       1.0  0.50000  0.00000  0.50000  1.0000
  Mn  Mn3       1.0  0.50000  0.00000  0.00000  1.0000
  Mn  Mn4       1.0  0.00000  0.50000  0.50000  1.0000
  O   O1        1.0  0.18980  0.63369  0.94732  1.0000
  O   O2        1.0  0.31020  0.13369  0.55268  1.0000
  O   O3        1.0  0.81020  0.36631  0.05268  1.0000
  O   O4        1.0  0.68980  0.86631  0.44732  1.0000
  O   O5        1.0  0.12468  0.30585  0.95221  1.0000
  O   O6        1.0  0.37532  0.80585  0.54779  1.0000
  O   O7        1.0  0.87532  0.69415  0.04779  1.0000
  O   O8        1.0  0.62468  0.19415  0.45221  1.0000
  O   O9        1.0  0.88989  0.50321  0.83469  1.0000
  O   O10       1.0  0.61011  0.00321  0.66531  1.0000
  O   O11       1.0  0.11011  0.49679  0.16531  1.0000
  O   O12       1.0  0.38989  0.99679  0.33469  1.0000
  O   O13       1.0  0.35834  0.81458  0.94649  1.0000
  O   O14       1.0  0.14166  0.31458  0.55351  1.0000
  O   O15       1.0  0.64166  0.18542  0.05351  1.0000
  O   O16       1.0  0.85834  0.68542  0.44649  1.0000
  O   O17       1.0  0.30006  0.13350  0.93569  1.0000
  O   O18       1.0  0.19994  0.63350  0.56431  1.0000
  O   O19       1.0  0.69994  0.86650  0.06431  1.0000
  O   O20       1.0  0.80006  0.36650  0.43569  1.0000
  O   O21       1.0  0.89687  0.49939  0.65622  1.0000
  O   O22       1.0  0.60313  0.99939  0.84378  1.0000
  O   O23       1.0  0.10313  0.50061  0.34378  1.0000
  O   O24       1.0  0.39687  0.00061  0.15622  1.0000
  C   C1        1.0  0.95450  0.51470  0.74950  1.0000
  C   C2        1.0  0.54550  0.01470  0.75050  1.0000
  C   C3        1.0  0.04550  0.48530  0.25050  1.0000
  C   C4        1.0  0.45450  0.98530  0.24950  1.0000
  H   H1        1.0  0.06058  0.53798  0.75679  1.0000
  H   H2        1.0  0.43942  0.03798  0.74321  1.0000
  H   H3        1.0  0.93942  0.46202  0.24321  1.0000
  H   H4        1.0  0.56058  0.96202  0.25679  1.0000
  C   C5        1.0  0.27180  0.72980  0.99019  1.0000
  C   C6        1.0  0.22820  0.22980  0.50981  1.0000
  C   C7        1.0  0.72820  0.27020  0.00981  1.0000
  C   C8        1.0  0.77180  0.77020  0.49019  1.0000
  H   H5        1.0  0.26820  0.73988  0.06466  1.0000
  H   H6        1.0  0.23180  0.23988  0.43534  1.0000
  H   H7        1.0  0.73180  0.26012  0.93534  1.0000
  H   H8        1.0  0.76820  0.76012  0.56466  1.0000
  C   C9        1.0  0.25040  0.24730  0.97748  1.0000
  C   C10       1.0  0.24960  0.74730  0.52252  1.0000
  C   C11       1.0  0.74960  0.75270  0.02252  1.0000
  C   C12       1.0  0.75040  0.25270  0.47748  1.0000
  H   H9        1.0  0.31485  0.29057  0.03225  1.0000
  H   H10       1.0  0.18515  0.79057  0.46775  1.0000
  H   H11       1.0  0.68515  0.70943  0.96775  1.0000
  H   H12       1.0  0.81485  0.20943  0.53225  1.0000
