data_image0
_chemical_formula_structural       Mn4O20C4H4O4C4H4C4H4
_chemical_formula_sum              "Mn4 O24 C12 H12"
_cell_length_a       8.345
_cell_length_b       12.124
_cell_length_c       9.387
_cell_angle_alpha    90
_cell_angle_beta     90.144
_cell_angle_gamma    90

_space_group_name_H-M_alt    "P 1"
_space_group_IT_number       1

loop_
  _space_group_symop_operation_xyz
  'x, y, z'

loop_
  _atom_site_type_symbol
  _atom_site_label
  _atom_site_symmetry_multiplicity
  _atom_site_fract_x
  _atom_site_fract_y
  _atom_site_fract_z
  _atom_site_occupancy
  Mn  Mn1       1.0  0.21794  0.75589  0.73447  1.0000
  Mn  Mn2       1.0  0.28206  0.25589  0.76553  1.0000
  Mn  Mn3       1.0  0.78206  0.24411  0.26553  1.0000
  Mn  Mn4       1.0  0.71794  0.74411  0.23447  1.0000
  O   O1        1.0  0.04580  0.81569  0.88970  1.0000
  O   O2        1.0  0.45420  0.31569  0.61030  1.0000
  O   O3        1.0  0.95420  0.18431  0.11030  1.0000
  O   O4        1.0  0.54580  0.68431  0.38970  1.0000
  O   O5        1.0  0.03660  0.82186  0.58690  1.0000
  O   O6        1.0  0.46340  0.32186  0.91310  1.0000
  O   O7        1.0  0.96340  0.17814  0.41310  1.0000
  O   O8        1.0  0.53660  0.67814  0.08690  1.0000
  O   O9        1.0  0.11120  0.59093  0.73150  1.0000
  O   O10       1.0  0.38880  0.09093  0.76850  1.0000
  O   O11       1.0  0.88880  0.40907  0.26850  1.0000
  O   O12       1.0  0.61120  0.90907  0.23150  1.0000
  O   O13       1.0  0.14800  0.40991  0.75240  1.0000
  O   O14       1.0  0.35200  0.90991  0.74760  1.0000
  O   O15       1.0  0.85200  0.59009  0.24760  1.0000
  O   O16       1.0  0.64800  0.09009  0.25240  1.0000
  O   O17       1.0  0.88750  0.81226  0.38930  1.0000
  O   O18       1.0  0.61250  0.31226  0.11070  1.0000
  O   O19       1.0  0.11250  0.18774  0.61070  1.0000
  O   O20       1.0  0.38750  0.68774  0.88930  1.0000
  C   C1        1.0  0.96500  0.76910  0.48920  1.0000
  C   C2        1.0  0.53500  0.26910  0.01080  1.0000
  C   C3        1.0  0.03500  0.23090  0.51080  1.0000
  C   C4        1.0  0.46500  0.73090  0.98920  1.0000
  H   H1        1.0  0.97026  0.69256  0.49193  1.0000
  H   H2        1.0  0.52974  0.19256  0.00807  1.0000
  H   H3        1.0  0.02974  0.30744  0.50807  1.0000
  H   H4        1.0  0.47026  0.80744  0.99193  1.0000
  O   O21       1.0  0.85320  0.79842  0.04870  1.0000
  O   O22       1.0  0.64680  0.29842  0.45130  1.0000
  O   O23       1.0  0.14680  0.20158  0.95130  1.0000
  O   O24       1.0  0.35320  0.70158  0.54870  1.0000
  C   C5        1.0  0.98100  0.76820  0.99220  1.0000
  C   C6        1.0  0.51900  0.26820  0.50780  1.0000
  C   C7        1.0  0.01900  0.23180  0.00780  1.0000
  C   C8        1.0  0.48100  0.73180  0.49220  1.0000
  H   H5        1.0  0.03137  0.70596  0.02913  1.0000
  H   H6        1.0  0.46863  0.20596  0.47087  1.0000
  H   H7        1.0  0.96863  0.29404  0.97087  1.0000
  H   H8        1.0  0.53137  0.79404  0.52913  1.0000
  C   C9        1.0  0.19640  0.50605  0.72750  1.0000
  C   C10       1.0  0.30360  0.00605  0.77250  1.0000
  C   C11       1.0  0.80360  0.49395  0.27250  1.0000
  C   C12       1.0  0.69640  0.99395  0.22750  1.0000
  H   H9        1.0  0.30388  0.51486  0.70431  1.0000
  H   H10       1.0  0.19612  0.01486  0.79569  1.0000
  H   H11       1.0  0.69612  0.48514  0.29569  1.0000
  H   H12       1.0  0.80388  0.98514  0.20431  1.0000
