data_image0
_chemical_formula_structural       Ag6C16H4C4H4C4H4C4H4N8H4N2H4N2H4N8H4N2H4N2H4O16
_chemical_formula_sum              "Ag6 C28 H40 N24 O16"
_cell_length_a       9.662
_cell_length_b       12.066
_cell_length_c       12.236
_cell_angle_alpha    90.161
_cell_angle_beta     109.294
_cell_angle_gamma    112.086

_space_group_name_H-M_alt    "P 1"
_space_group_IT_number       1

loop_
  _space_group_symop_operation_xyz
  'x, y, z'

loop_
  _atom_site_type_symbol
  _atom_site_label
  _atom_site_symmetry_multiplicity
  _atom_site_fract_x
  _atom_site_fract_y
  _atom_site_fract_z
  _atom_site_occupancy
  Ag  Ag1       1.0  0.41827  0.24828  0.25501  1.0000
  Ag  Ag2       1.0  0.58173  0.75172  0.74499  1.0000
  Ag  Ag3       1.0  0.47841  0.76092  0.47077  1.0000
  Ag  Ag4       1.0  0.52159  0.23908  0.52923  1.0000
  Ag  Ag5       1.0  0.79864  0.75526  0.10614  1.0000
  Ag  Ag6       1.0  0.20136  0.24474  0.89386  1.0000
  C   C1        1.0  0.16960  0.82090  0.27310  1.0000
  C   C2        1.0  0.83040  0.17910  0.72690  1.0000
  C   C3        1.0  0.15610  0.98950  0.20050  1.0000
  C   C4        1.0  0.84390  0.01050  0.79950  1.0000
  C   C5        1.0  0.39660  0.99020  0.31760  1.0000
  C   C6        1.0  0.60340  0.00980  0.68240  1.0000
  C   C7        1.0  0.42850  0.50450  0.31150  1.0000
  C   C8        1.0  0.57150  0.49550  0.68850  1.0000
  C   C9        1.0  0.55660  0.67870  0.25030  1.0000
  C   C10       1.0  0.44340  0.32130  0.74970  1.0000
  C   C11       1.0  0.56700  0.50570  0.19140  1.0000
  C   C12       1.0  0.43300  0.49430  0.80860  1.0000
  C   C13       1.0  0.79180  0.36850  0.42650  1.0000
  C   C14       1.0  0.20820  0.63150  0.57350  1.0000
  C   C15       1.0  0.95720  0.45850  0.44600  1.0000
  C   C16       1.0  0.04280  0.54150  0.55400  1.0000
  H   H1        1.0  0.02080  0.41420  0.44060  1.0000
  H   H2        1.0  0.97920  0.58580  0.55940  1.0000
  H   H3        1.0  0.95120  0.50590  0.38200  1.0000
  H   H4        1.0  0.04880  0.49410  0.61800  1.0000
  C   C17       1.0  0.83570  0.88510  0.54860  1.0000
  C   C18       1.0  0.16430  0.11490  0.45140  1.0000
  C   C19       1.0  0.99680  0.96980  0.54930  1.0000
  C   C20       1.0  0.00320  0.03020  0.45070  1.0000
  H   H5        1.0  0.06300  0.92410  0.55920  1.0000
  H   H6        1.0  0.93700  0.07590  0.44080  1.0000
  H   H7        1.0  0.04560  0.03080  0.61780  1.0000
  H   H8        1.0  0.95440  0.96920  0.38220  1.0000
  C   C21       1.0  0.91530  0.62440  0.96760  1.0000
  C   C22       1.0  0.08470  0.37560  0.03240  1.0000
  C   C23       1.0  0.99480  0.54130  0.95700  1.0000
  C   C24       1.0  0.00520  0.45870  0.04300  1.0000
  H   H9        1.0  0.93770  0.49350  0.87990  1.0000
  H   H10       1.0  0.06230  0.50650  0.12010  1.0000
  H   H11       1.0  0.10250  0.59070  0.96090  1.0000
  H   H12       1.0  0.89750  0.40930  0.03910  1.0000
  C   C25       1.0  0.36920  0.08770  0.98670  1.0000
  C   C26       1.0  0.63080  0.91230  0.01330  1.0000
  C   C27       1.0  0.46640  0.01760  0.03960  1.0000
  C   C28       1.0  0.53360  0.98240  0.96040  1.0000
  H   H13       1.0  0.39990  0.94530  0.06160  1.0000
  H   H14       1.0  0.60010  0.05470  0.93840  1.0000
  H   H15       1.0  0.55320  0.06580  0.11020  1.0000
  H   H16       1.0  0.44680  0.93420  0.88980  1.0000
  N   N1        1.0  0.07600  0.87240  0.20750  1.0000
  N   N2        1.0  0.92400  0.12760  0.79250  1.0000
  N   N3        1.0  0.32850  0.87290  0.32920  1.0000
  N   N4        1.0  0.67150  0.12710  0.67080  1.0000
  N   N5        1.0  0.31550  0.05220  0.25420  1.0000
  N   N6        1.0  0.68450  0.94780  0.74580  1.0000
  N   N7        1.0  0.55260  0.04620  0.37000  1.0000
  N   N8        1.0  0.44740  0.95380  0.63000  1.0000
  H   H17       1.0  0.60040  0.12060  0.36320  1.0000
  H   H18       1.0  0.39960  0.87940  0.63680  1.0000
  H   H19       1.0  0.60670  0.00840  0.41090  1.0000
  H   H20       1.0  0.39330  0.99160  0.58910  1.0000
  N   N9        1.0  0.07170  0.04610  0.13790  1.0000
  N   N10       1.0  0.92830  0.95390  0.86210  1.0000
  H   H21       1.0  0.96990  0.00850  0.10350  1.0000
  H   H22       1.0  0.03010  0.99150  0.89650  1.0000
  H   H23       1.0  0.11820  0.12070  0.13120  1.0000
  H   H24       1.0  0.88180  0.87930  0.86880  1.0000
  N   N11       1.0  0.09690  0.70380  0.28120  1.0000
  N   N12       1.0  0.90310  0.29620  0.71880  1.0000
  H   H25       1.0  0.99550  0.66590  0.24540  1.0000
  H   H26       1.0  0.00450  0.33410  0.75460  1.0000
  H   H27       1.0  0.15180  0.66660  0.32240  1.0000
  H   H28       1.0  0.84820  0.33340  0.67760  1.0000
  N   N13       1.0  0.46530  0.62390  0.31370  1.0000
  N   N14       1.0  0.53470  0.37610  0.68630  1.0000
  N   N15       1.0  0.61600  0.62550  0.19290  1.0000
  N   N16       1.0  0.38400  0.37450  0.80710  1.0000
  N   N17       1.0  0.47450  0.44130  0.25080  1.0000
  N   N18       1.0  0.52550  0.55870  0.74920  1.0000
  N   N19       1.0  0.33820  0.44810  0.37150  1.0000
  N   N20       1.0  0.66180  0.55190  0.62850  1.0000
  H   H29       1.0  0.30930  0.37140  0.37150  1.0000
  H   H30       1.0  0.69070  0.62860  0.62850  1.0000
  H   H31       1.0  0.30820  0.48800  0.41060  1.0000
  H   H32       1.0  0.69180  0.51200  0.58940  1.0000
  N   N21       1.0  0.58920  0.79520  0.24740  1.0000
  N   N22       1.0  0.41080  0.20480  0.75260  1.0000
  H   H33       1.0  0.64750  0.83490  0.20910  1.0000
  H   H34       1.0  0.35250  0.16510  0.79090  1.0000
  H   H35       1.0  0.55200  0.83130  0.28380  1.0000
  H   H36       1.0  0.44800  0.16870  0.71620  1.0000
  N   N23       1.0  0.61560  0.44780  0.13080  1.0000
  N   N24       1.0  0.38440  0.55220  0.86920  1.0000
  H   H37       1.0  0.67650  0.48690  0.09410  1.0000
  H   H38       1.0  0.32350  0.51310  0.90590  1.0000
  H   H39       1.0  0.58630  0.37080  0.12800  1.0000
  H   H40       1.0  0.41370  0.62920  0.87200  1.0000
  O   O1        1.0  0.72930  0.28510  0.34210  1.0000
  O   O2        1.0  0.27070  0.71490  0.65790  1.0000
  O   O3        1.0  0.72840  0.38120  0.49690  1.0000
  O   O4        1.0  0.27160  0.61880  0.50310  1.0000
  O   O5        1.0  0.82910  0.79240  0.59650  1.0000
  O   O6        1.0  0.17090  0.20760  0.40350  1.0000
  O   O7        1.0  0.71920  0.91170  0.50340  1.0000
  O   O8        1.0  0.28080  0.08830  0.49660  1.0000
  O   O9        1.0  0.82610  0.59490  0.02630  1.0000
  O   O10       1.0  0.17390  0.40510  0.97370  1.0000
  O   O11       1.0  0.94120  0.71530  0.91880  1.0000
  O   O12       1.0  0.05880  0.28470  0.08120  1.0000
  O   O13       1.0  0.25630  0.03970  0.89040  1.0000
  O   O14       1.0  0.74370  0.96030  0.10960  1.0000
  O   O15       1.0  0.39850  0.18880  0.03650  1.0000
  O   O16       1.0  0.60150  0.81120  0.96350  1.0000
