data_image0
_chemical_formula_structural       Bi8C12H4C4H4C20H4C4H4C20H4C4H4C20H4C4H4C8N32O64
_chemical_formula_sum              "Bi8 C96 H32 N32 O64"
_cell_length_a       14.3725
_cell_length_b       22.4499
_cell_length_c       11.5204
_cell_angle_alpha    90
_cell_angle_beta     91.1183
_cell_angle_gamma    90

_space_group_name_H-M_alt    "P 1"
_space_group_IT_number       1

loop_
  _space_group_symop_operation_xyz
  'x, y, z'

loop_
  _atom_site_type_symbol
  _atom_site_label
  _atom_site_symmetry_multiplicity
  _atom_site_fract_x
  _atom_site_fract_y
  _atom_site_fract_z
  _atom_site_occupancy
  Bi  Bi1       1.0  0.14503  0.26523  0.76365  1.0000
  Bi  Bi2       1.0  0.85497  0.76523  0.73635  1.0000
  Bi  Bi3       1.0  0.85497  0.73477  0.23635  1.0000
  Bi  Bi4       1.0  0.14503  0.23477  0.26365  1.0000
  Bi  Bi5       1.0  0.64151  0.24325  0.50864  1.0000
  Bi  Bi6       1.0  0.35849  0.74325  0.99136  1.0000
  Bi  Bi7       1.0  0.35849  0.75675  0.49136  1.0000
  Bi  Bi8       1.0  0.64151  0.25675  0.00864  1.0000
  C   C1        1.0  0.14270  0.41511  0.42880  1.0000
  C   C2        1.0  0.85730  0.91511  0.07120  1.0000
  C   C3        1.0  0.85730  0.58489  0.57120  1.0000
  C   C4        1.0  0.14270  0.08489  0.92880  1.0000
  C   C5        1.0  0.14990  0.42578  0.54790  1.0000
  C   C6        1.0  0.85010  0.92578  0.95210  1.0000
  C   C7        1.0  0.85010  0.57422  0.45210  1.0000
  C   C8        1.0  0.14990  0.07422  0.04790  1.0000
  C   C9        1.0  0.13690  0.52507  0.51670  1.0000
  C   C10       1.0  0.86310  0.02507  0.98330  1.0000
  C   C11       1.0  0.86310  0.47493  0.48330  1.0000
  C   C12       1.0  0.13690  0.97493  0.01670  1.0000
  H   H1        1.0  0.13400  0.56485  0.54451  1.0000
  H   H2        1.0  0.86600  0.06485  0.95549  1.0000
  H   H3        1.0  0.86600  0.43515  0.45549  1.0000
  H   H4        1.0  0.13400  0.93515  0.04451  1.0000
  C   C13       1.0  0.13080  0.51471  0.39750  1.0000
  C   C14       1.0  0.86920  0.01471  0.10250  1.0000
  C   C15       1.0  0.86920  0.48529  0.60250  1.0000
  C   C16       1.0  0.13080  0.98529  0.89750  1.0000
  H   H5        1.0  0.12465  0.54780  0.34659  1.0000
  H   H6        1.0  0.87535  0.04780  0.15341  1.0000
  H   H7        1.0  0.87535  0.45220  0.65341  1.0000
  H   H8        1.0  0.12465  0.95220  0.84659  1.0000
  C   C17       1.0  0.14950  0.35313  0.37550  1.0000
  C   C18       1.0  0.85050  0.85313  0.12450  1.0000
  C   C19       1.0  0.85050  0.64687  0.62450  1.0000
  C   C20       1.0  0.14950  0.14687  0.87550  1.0000
  C   C21       1.0  0.15880  0.37554  0.63390  1.0000
  C   C22       1.0  0.84120  0.87554  0.86610  1.0000
  C   C23       1.0  0.84120  0.62446  0.36610  1.0000
  C   C24       1.0  0.15880  0.12446  0.13390  1.0000
  C   C25       1.0  0.32700  0.23397  0.59950  1.0000
  C   C26       1.0  0.67300  0.73397  0.90050  1.0000
  C   C27       1.0  0.67300  0.76603  0.40050  1.0000
  C   C28       1.0  0.32700  0.26603  0.09950  1.0000
  C   C29       1.0  0.41770  0.22527  0.56220  1.0000
  C   C30       1.0  0.58230  0.72527  0.93780  1.0000
  C   C31       1.0  0.58230  0.77473  0.43780  1.0000
  C   C32       1.0  0.41770  0.27473  0.06220  1.0000
  C   C33       1.0  0.46660  0.30432  0.67600  1.0000
  C   C34       1.0  0.53340  0.80432  0.82400  1.0000
  C   C35       1.0  0.53340  0.69568  0.32400  1.0000
  C   C36       1.0  0.46660  0.19568  0.17600  1.0000
  H   H9        1.0  0.51381  0.33150  0.70007  1.0000
  H   H10       1.0  0.48619  0.83150  0.79993  1.0000
  H   H11       1.0  0.48619  0.66850  0.29993  1.0000
  H   H12       1.0  0.51381  0.16850  0.20007  1.0000
  C   C37       1.0  0.37770  0.30864  0.72160  1.0000
  C   C38       1.0  0.62230  0.80864  0.77840  1.0000
  C   C39       1.0  0.62230  0.69136  0.27840  1.0000
  C   C40       1.0  0.37770  0.19136  0.22160  1.0000
  H   H13       1.0  0.36590  0.33673  0.78124  1.0000
  H   H14       1.0  0.63410  0.83673  0.71876  1.0000
  H   H15       1.0  0.63410  0.66327  0.21876  1.0000
  H   H16       1.0  0.36590  0.16327  0.28124  1.0000
  C   C41       1.0  0.24030  0.20538  0.54630  1.0000
  C   C42       1.0  0.75970  0.70538  0.95370  1.0000
  C   C43       1.0  0.75970  0.79462  0.45370  1.0000
  C   C44       1.0  0.24030  0.29462  0.04630  1.0000
  C   C45       1.0  0.44880  0.17322  0.48710  1.0000
  C   C46       1.0  0.55120  0.67322  0.01290  1.0000
  C   C47       1.0  0.55120  0.82678  0.51290  1.0000
  C   C48       1.0  0.44880  0.32678  0.98710  1.0000
  C   C49       1.0  0.64110  0.07735  0.70690  1.0000
  C   C50       1.0  0.35890  0.57735  0.79310  1.0000
  C   C51       1.0  0.35890  0.92265  0.29310  1.0000
  C   C52       1.0  0.64110  0.42265  0.20690  1.0000
  C   C53       1.0  0.63460  0.08092  0.82730  1.0000
  C   C54       1.0  0.36540  0.58092  0.67270  1.0000
  C   C55       1.0  0.36540  0.91908  0.17270  1.0000
  C   C56       1.0  0.63460  0.41908  0.32730  1.0000
  C   C57       1.0  0.61440  0.98065  0.83600  1.0000
  C   C58       1.0  0.38560  0.48065  0.66400  1.0000
  C   C59       1.0  0.38560  0.01935  0.16400  1.0000
  C   C60       1.0  0.61440  0.51935  0.33600  1.0000
  H   H17       1.0  0.60596  0.94511  0.87927  1.0000
  H   H18       1.0  0.39404  0.44511  0.62073  1.0000
  H   H19       1.0  0.39404  0.05489  0.12073  1.0000
  H   H20       1.0  0.60596  0.55489  0.37927  1.0000
  C   C61       1.0  0.61910  0.97707  0.71500  1.0000
  C   C62       1.0  0.38090  0.47707  0.78500  1.0000
  C   C63       1.0  0.38090  0.02293  0.28500  1.0000
  C   C64       1.0  0.61910  0.52293  0.21500  1.0000
  H   H21       1.0  0.61209  0.93943  0.67816  1.0000
  H   H22       1.0  0.38791  0.43943  0.82184  1.0000
  H   H23       1.0  0.38791  0.06057  0.32184  1.0000
  H   H24       1.0  0.61209  0.56057  0.17816  1.0000
  C   C65       1.0  0.65500  0.13135  0.63090  1.0000
  C   C66       1.0  0.34500  0.63135  0.86910  1.0000
  C   C67       1.0  0.34500  0.86865  0.36910  1.0000
  C   C68       1.0  0.65500  0.36865  0.13090  1.0000
  C   C69       1.0  0.64420  0.13931  0.89290  1.0000
  C   C70       1.0  0.35580  0.63931  0.60710  1.0000
  C   C71       1.0  0.35580  0.86069  0.10710  1.0000
  C   C72       1.0  0.64420  0.36069  0.39290  1.0000
  C   C73       1.0  0.82740  0.27379  0.67540  1.0000
  C   C74       1.0  0.17260  0.77379  0.82460  1.0000
  C   C75       1.0  0.17260  0.72621  0.32460  1.0000
  C   C76       1.0  0.82740  0.22621  0.17540  1.0000
  C   C77       1.0  0.91900  0.28441  0.71230  1.0000
  C   C78       1.0  0.08100  0.78441  0.78770  1.0000
  C   C79       1.0  0.08100  0.71559  0.28770  1.0000
  C   C80       1.0  0.91900  0.21559  0.21230  1.0000
  C   C81       1.0  0.96860  0.20995  0.59010  1.0000
  C   C82       1.0  0.03140  0.70995  0.90990  1.0000
  C   C83       1.0  0.03140  0.79005  0.40990  1.0000
  C   C84       1.0  0.96860  0.29005  0.09010  1.0000
  H   H25       1.0  0.01665  0.18466  0.56348  1.0000
  H   H26       1.0  0.98335  0.68466  0.93652  1.0000
  H   H27       1.0  0.98335  0.81534  0.43652  1.0000
  H   H28       1.0  0.01665  0.31534  0.06348  1.0000
  C   C85       1.0  0.87880  0.20447  0.54450  1.0000
  C   C86       1.0  0.12120  0.70447  0.95550  1.0000
  C   C87       1.0  0.12120  0.79553  0.45550  1.0000
  C   C88       1.0  0.87880  0.29553  0.04450  1.0000
  H   H29       1.0  0.86714  0.17818  0.48122  1.0000
  H   H30       1.0  0.13286  0.67818  0.01878  1.0000
  H   H31       1.0  0.13286  0.82182  0.51878  1.0000
  H   H32       1.0  0.86714  0.32182  0.98122  1.0000
  C   C89       1.0  0.74020  0.29657  0.73280  1.0000
  C   C90       1.0  0.25980  0.79657  0.76720  1.0000
  C   C91       1.0  0.25980  0.70343  0.26720  1.0000
  C   C92       1.0  0.74020  0.20343  0.23280  1.0000
  C   C93       1.0  0.94820  0.33485  0.79320  1.0000
  C   C94       1.0  0.05180  0.83485  0.70680  1.0000
  C   C95       1.0  0.05180  0.66515  0.20680  1.0000
  C   C96       1.0  0.94820  0.16515  0.29320  1.0000
  N   N1        1.0  0.13340  0.46004  0.35230  1.0000
  N   N2        1.0  0.86660  0.96004  0.14770  1.0000
  N   N3        1.0  0.86660  0.53996  0.64770  1.0000
  N   N4        1.0  0.13340  0.03996  0.85230  1.0000
  N   N5        1.0  0.14660  0.48067  0.59260  1.0000
  N   N6        1.0  0.85340  0.98067  0.90740  1.0000
  N   N7        1.0  0.85340  0.51933  0.40740  1.0000
  N   N8        1.0  0.14660  0.01933  0.09260  1.0000
  N   N9        1.0  0.30950  0.27383  0.68240  1.0000
  N   N10       1.0  0.69050  0.77383  0.81760  1.0000
  N   N11       1.0  0.69050  0.72617  0.31760  1.0000
  N   N12       1.0  0.30950  0.22617  0.18240  1.0000
  N   N13       1.0  0.48530  0.26200  0.59870  1.0000
  N   N14       1.0  0.51470  0.76200  0.90130  1.0000
  N   N15       1.0  0.51470  0.73800  0.40130  1.0000
  N   N16       1.0  0.48530  0.23800  0.09870  1.0000
  N   N17       1.0  0.63320  0.02523  0.65030  1.0000
  N   N18       1.0  0.36680  0.52523  0.84970  1.0000
  N   N19       1.0  0.36680  0.97477  0.34970  1.0000
  N   N20       1.0  0.63320  0.47477  0.15030  1.0000
  N   N21       1.0  0.62150  0.03250  0.89270  1.0000
  N   N22       1.0  0.37850  0.53250  0.60730  1.0000
  N   N23       1.0  0.37850  0.96750  0.10730  1.0000
  N   N24       1.0  0.62150  0.46750  0.39270  1.0000
  N   N25       1.0  0.80870  0.23583  0.58860  1.0000
  N   N26       1.0  0.19130  0.73583  0.91140  1.0000
  N   N27       1.0  0.19130  0.76417  0.41140  1.0000
  N   N28       1.0  0.80870  0.26417  0.08860  1.0000
  N   N29       1.0  0.98700  0.25055  0.67100  1.0000
  N   N30       1.0  0.01300  0.75055  0.82900  1.0000
  N   N31       1.0  0.01300  0.74945  0.32900  1.0000
  N   N32       1.0  0.98700  0.24945  0.17100  1.0000
  O   O1        1.0  0.07493  0.32989  0.33690  1.0000
  O   O2        1.0  0.92507  0.82989  0.16310  1.0000
  O   O3        1.0  0.92507  0.67011  0.66310  1.0000
  O   O4        1.0  0.07493  0.17011  0.83690  1.0000
  O   O5        1.0  0.22784  0.32962  0.36930  1.0000
  O   O6        1.0  0.77216  0.82962  0.13070  1.0000
  O   O7        1.0  0.77216  0.67038  0.63070  1.0000
  O   O8        1.0  0.22784  0.17038  0.86930  1.0000
  O   O9        1.0  0.12804  0.32520  0.59980  1.0000
  O   O10       1.0  0.87196  0.82520  0.90020  1.0000
  O   O11       1.0  0.87196  0.67480  0.40020  1.0000
  O   O12       1.0  0.12804  0.17480  0.09980  1.0000
  O   O13       1.0  0.19346  0.38485  0.73180  1.0000
  O   O14       1.0  0.80654  0.88485  0.76820  1.0000
  O   O15       1.0  0.80654  0.61515  0.26820  1.0000
  O   O16       1.0  0.19346  0.11515  0.23180  1.0000
  O   O17       1.0  0.17147  0.19934  0.61260  1.0000
  O   O18       1.0  0.82853  0.69934  0.88740  1.0000
  O   O19       1.0  0.82853  0.80066  0.38740  1.0000
  O   O20       1.0  0.17147  0.30066  0.11260  1.0000
  O   O21       1.0  0.24145  0.19249  0.44160  1.0000
  O   O22       1.0  0.75855  0.69249  0.05840  1.0000
  O   O23       1.0  0.75855  0.80751  0.55840  1.0000
  O   O24       1.0  0.24145  0.30751  0.94160  1.0000
  O   O25       1.0  0.52040  0.18407  0.42600  1.0000
  O   O26       1.0  0.47960  0.68407  0.07400  1.0000
  O   O27       1.0  0.47960  0.81593  0.57400  1.0000
  O   O28       1.0  0.52040  0.31593  0.92600  1.0000
  O   O29       1.0  0.40667  0.12596  0.49300  1.0000
  O   O30       1.0  0.59333  0.62596  0.00700  1.0000
  O   O31       1.0  0.59333  0.87404  0.50700  1.0000
  O   O32       1.0  0.40667  0.37404  0.99300  1.0000
  O   O33       1.0  0.62340  0.18048  0.67030  1.0000
  O   O34       1.0  0.37660  0.68048  0.82970  1.0000
  O   O35       1.0  0.37660  0.81952  0.32970  1.0000
  O   O36       1.0  0.62340  0.31952  0.17030  1.0000
  O   O37       1.0  0.69239  0.12563  0.53590  1.0000
  O   O38       1.0  0.30761  0.62563  0.96410  1.0000
  O   O39       1.0  0.30761  0.87437  0.46410  1.0000
  O   O40       1.0  0.69239  0.37437  0.03590  1.0000
  O   O41       1.0  0.57033  0.16101  0.93420  1.0000
  O   O42       1.0  0.42967  0.66101  0.56580  1.0000
  O   O43       1.0  0.42967  0.83899  0.06580  1.0000
  O   O44       1.0  0.57033  0.33899  0.43420  1.0000
  O   O45       1.0  0.72282  0.16203  0.90590  1.0000
  O   O46       1.0  0.27718  0.66203  0.59410  1.0000
  O   O47       1.0  0.27718  0.83797  0.09410  1.0000
  O   O48       1.0  0.72282  0.33797  0.40590  1.0000
  O   O49       1.0  0.67120  0.30702  0.66500  1.0000
  O   O50       1.0  0.32880  0.80702  0.83500  1.0000
  O   O51       1.0  0.32880  0.69298  0.33500  1.0000
  O   O52       1.0  0.67120  0.19298  0.16500  1.0000
  O   O53       1.0  0.74086  0.29951  0.83930  1.0000
  O   O54       1.0  0.25914  0.79951  0.66070  1.0000
  O   O55       1.0  0.25914  0.70049  0.16070  1.0000
  O   O56       1.0  0.74086  0.20049  0.33930  1.0000
  O   O57       1.0  0.89617  0.37862  0.80000  1.0000
  O   O58       1.0  0.10383  0.87862  0.70000  1.0000
  O   O59       1.0  0.10383  0.62138  0.20000  1.0000
  O   O60       1.0  0.89617  0.12138  0.30000  1.0000
  O   O61       1.0  0.02536  0.32778  0.84580  1.0000
  O   O62       1.0  0.97464  0.82778  0.65420  1.0000
  O   O63       1.0  0.97464  0.67222  0.15420  1.0000
  O   O64       1.0  0.02536  0.17222  0.34580  1.0000
