data_image0
_chemical_formula_structural       Eu4O36N4C12H4C4H4C8H4C4H4C16H4C4H4C12H4C4H4C4H4C4H12C4H12
_chemical_formula_sum              "Eu4 O36 N4 C76 H60"
_cell_length_a       14.1635
_cell_length_b       12.1381
_cell_length_c       14.4528
_cell_angle_alpha    90
_cell_angle_beta     104.361
_cell_angle_gamma    90

_space_group_name_H-M_alt    "P 1"
_space_group_IT_number       1

loop_
  _space_group_symop_operation_xyz
  'x, y, z'

loop_
  _atom_site_type_symbol
  _atom_site_label
  _atom_site_symmetry_multiplicity
  _atom_site_fract_x
  _atom_site_fract_y
  _atom_site_fract_z
  _atom_site_occupancy
  Eu  Eu1       1.0  0.58824  0.44661  0.41149  1.0000
  Eu  Eu2       1.0  0.91176  0.94661  0.08851  1.0000
  Eu  Eu3       1.0  0.41176  0.55339  0.58851  1.0000
  Eu  Eu4       1.0  0.08824  0.05339  0.91149  1.0000
  O   O1        1.0  0.16020  0.09040  0.08142  1.0000
  O   O2        1.0  0.33980  0.59040  0.41858  1.0000
  O   O3        1.0  0.83980  0.90960  0.91858  1.0000
  O   O4        1.0  0.66020  0.40960  0.58142  1.0000
  O   O5        1.0  0.05180  0.05960  0.16787  1.0000
  O   O6        1.0  0.44820  0.55960  0.33213  1.0000
  O   O7        1.0  0.94820  0.94040  0.83213  1.0000
  O   O8        1.0  0.55180  0.44040  0.66787  1.0000
  O   O9        1.0  0.32410  0.37840  0.53380  1.0000
  O   O10       1.0  0.17590  0.87840  0.96620  1.0000
  O   O11       1.0  0.67590  0.62160  0.46620  1.0000
  O   O12       1.0  0.82410  0.12160  0.03380  1.0000
  O   O13       1.0  0.44669  0.38610  0.46597  1.0000
  O   O14       1.0  0.05331  0.88610  0.03403  1.0000
  O   O15       1.0  0.55331  0.61390  0.53403  1.0000
  O   O16       1.0  0.94669  0.11390  0.96597  1.0000
  O   O17       1.0  0.53850  0.37120  0.23894  1.0000
  O   O18       1.0  0.96150  0.87120  0.26106  1.0000
  O   O19       1.0  0.46150  0.62880  0.76106  1.0000
  O   O20       1.0  0.03850  0.12880  0.73894  1.0000
  O   O21       1.0  0.61500  0.53150  0.25567  1.0000
  O   O22       1.0  0.88500  0.03150  0.24433  1.0000
  O   O23       1.0  0.38500  0.46850  0.74433  1.0000
  O   O24       1.0  0.11500  0.96850  0.75567  1.0000
  O   O25       1.0  0.75204  0.39610  0.41070  1.0000
  O   O26       1.0  0.74796  0.89610  0.08930  1.0000
  O   O27       1.0  0.24796  0.60390  0.58930  1.0000
  O   O28       1.0  0.25204  0.10390  0.91070  1.0000
  O   O29       1.0  0.84560  0.30470  0.33550  1.0000
  O   O30       1.0  0.65440  0.80470  0.16450  1.0000
  O   O31       1.0  0.15440  0.69530  0.66450  1.0000
  O   O32       1.0  0.34560  0.19530  0.83550  1.0000
  O   O33       1.0  0.59850  0.23680  0.43180  1.0000
  O   O34       1.0  0.90150  0.73680  0.06820  1.0000
  O   O35       1.0  0.40150  0.76320  0.56820  1.0000
  O   O36       1.0  0.09850  0.26320  0.93180  1.0000
  N   N1        1.0  0.64460  0.11690  0.55480  1.0000
  N   N2        1.0  0.85540  0.61690  0.94520  1.0000
  N   N3        1.0  0.35540  0.88310  0.44520  1.0000
  N   N4        1.0  0.14460  0.38310  0.05480  1.0000
  C   C1        1.0  0.13010  0.09680  0.15640  1.0000
  C   C2        1.0  0.36990  0.59680  0.34360  1.0000
  C   C3        1.0  0.86990  0.90320  0.84360  1.0000
  C   C4        1.0  0.63010  0.40320  0.65640  1.0000
  C   C5        1.0  0.19460  0.15710  0.23960  1.0000
  C   C6        1.0  0.30540  0.65710  0.26040  1.0000
  C   C7        1.0  0.80540  0.84290  0.76040  1.0000
  C   C8        1.0  0.69460  0.34290  0.73960  1.0000
  C   C9        1.0  0.28490  0.19630  0.23410  1.0000
  C   C10       1.0  0.21510  0.69630  0.26590  1.0000
  C   C11       1.0  0.71510  0.80370  0.76590  1.0000
  C   C12       1.0  0.78490  0.30370  0.73410  1.0000
  H   H1        1.0  0.30782  0.18160  0.18038  1.0000
  H   H2        1.0  0.19218  0.68160  0.31962  1.0000
  H   H3        1.0  0.69218  0.81840  0.81962  1.0000
  H   H4        1.0  0.80782  0.31840  0.68038  1.0000
  C   C13       1.0  0.34150  0.25750  0.30910  1.0000
  C   C14       1.0  0.15850  0.75750  0.19090  1.0000
  C   C15       1.0  0.65850  0.74250  0.69090  1.0000
  C   C16       1.0  0.84150  0.24250  0.80910  1.0000
  H   H5        1.0  0.40221  0.28378  0.30549  1.0000
  H   H6        1.0  0.09779  0.78378  0.19451  1.0000
  H   H7        1.0  0.59779  0.71622  0.69451  1.0000
  H   H8        1.0  0.90221  0.21622  0.80549  1.0000
  C   C17       1.0  0.30710  0.27940  0.38920  1.0000
  C   C18       1.0  0.19290  0.77940  0.11080  1.0000
  C   C19       1.0  0.69290  0.72060  0.61080  1.0000
  C   C20       1.0  0.80710  0.22060  0.88920  1.0000
  C   C21       1.0  0.21710  0.23830  0.39470  1.0000
  C   C22       1.0  0.28290  0.73830  0.10530  1.0000
  C   C23       1.0  0.78290  0.76170  0.60530  1.0000
  C   C24       1.0  0.71710  0.26170  0.89470  1.0000
  H   H9        1.0  0.19436  0.25235  0.44864  1.0000
  H   H10       1.0  0.30564  0.75235  0.05136  1.0000
  H   H11       1.0  0.80564  0.74765  0.55136  1.0000
  H   H12       1.0  0.69436  0.24765  0.94864  1.0000
  C   C25       1.0  0.16130  0.17680  0.32090  1.0000
  C   C26       1.0  0.33870  0.67680  0.17910  1.0000
  C   C27       1.0  0.83870  0.82320  0.67910  1.0000
  C   C28       1.0  0.66130  0.32320  0.82090  1.0000
  H   H13       1.0  0.10151  0.14868  0.32539  1.0000
  H   H14       1.0  0.39849  0.64868  0.17461  1.0000
  H   H15       1.0  0.89849  0.85132  0.67461  1.0000
  H   H16       1.0  0.60151  0.35132  0.82539  1.0000
  C   C29       1.0  0.36290  0.35150  0.46800  1.0000
  C   C30       1.0  0.13710  0.85150  0.03200  1.0000
  C   C31       1.0  0.63710  0.64850  0.53200  1.0000
  C   C32       1.0  0.86290  0.14850  0.96800  1.0000
  C   C33       1.0  0.56380  0.46010  0.20420  1.0000
  C   C34       1.0  0.93620  0.96010  0.29580  1.0000
  C   C35       1.0  0.43620  0.53990  0.79580  1.0000
  C   C36       1.0  0.06380  0.03990  0.70420  1.0000
  C   C37       1.0  0.53030  0.48010  0.09840  1.0000
  C   C38       1.0  0.96970  0.98010  0.40160  1.0000
  C   C39       1.0  0.46970  0.51990  0.90160  1.0000
  C   C40       1.0  0.03030  0.01990  0.59840  1.0000
  C   C41       1.0  0.48270  0.39820  0.03640  1.0000
  C   C42       1.0  0.01730  0.89820  0.46360  1.0000
  C   C43       1.0  0.51730  0.60180  0.96360  1.0000
  C   C44       1.0  0.98270  0.10180  0.53640  1.0000
  H   H17       1.0  0.47105  0.32984  0.06040  1.0000
  H   H18       1.0  0.02895  0.82984  0.43960  1.0000
  H   H19       1.0  0.52895  0.67016  0.93960  1.0000
  H   H20       1.0  0.97105  0.17016  0.56040  1.0000
  C   C45       1.0  0.54730  0.58170  0.06090  1.0000
  C   C46       1.0  0.95270  0.08170  0.43910  1.0000
  C   C47       1.0  0.45270  0.41830  0.93910  1.0000
  C   C48       1.0  0.04730  0.91830  0.56090  1.0000
  H   H21       1.0  0.57920  0.63675  0.10162  1.0000
  H   H22       1.0  0.92080  0.13675  0.39838  1.0000
  H   H23       1.0  0.42080  0.36325  0.89838  1.0000
  H   H24       1.0  0.07920  0.86325  0.60162  1.0000
  C   C49       1.0  0.83300  0.37510  0.39490  1.0000
  C   C50       1.0  0.66700  0.87510  0.10510  1.0000
  C   C51       1.0  0.16700  0.62490  0.60510  1.0000
  C   C52       1.0  0.33300  0.12490  0.89490  1.0000
  C   C53       1.0  0.92040  0.43810  0.45070  1.0000
  C   C54       1.0  0.57960  0.93810  0.04930  1.0000
  C   C55       1.0  0.07960  0.56190  0.54930  1.0000
  C   C56       1.0  0.42040  0.06190  0.95070  1.0000
  C   C57       1.0  0.91200  0.50610  0.52570  1.0000
  C   C58       1.0  0.58800  0.00610  0.97430  1.0000
  C   C59       1.0  0.08800  0.49390  0.47430  1.0000
  C   C60       1.0  0.41200  0.99390  0.02570  1.0000
  H   H25       1.0  0.85325  0.50993  0.54323  1.0000
  H   H26       1.0  0.64675  0.00993  0.95677  1.0000
  H   H27       1.0  0.14675  0.49007  0.45677  1.0000
  H   H28       1.0  0.35325  0.99007  0.04323  1.0000
  C   C61       1.0  0.00900  0.43170  0.42560  1.0000
  C   C62       1.0  0.49100  0.93170  0.07440  1.0000
  C   C63       1.0  0.99100  0.56830  0.57440  1.0000
  C   C64       1.0  0.50900  0.06830  0.92560  1.0000
  H   H29       1.0  0.01530  0.38560  0.37604  1.0000
  H   H30       1.0  0.48470  0.88560  0.12396  1.0000
  H   H31       1.0  0.98470  0.61440  0.62396  1.0000
  H   H32       1.0  0.51530  0.11440  0.87604  1.0000
  C   C65       1.0  0.58230  0.18450  0.49970  1.0000
  C   C66       1.0  0.91770  0.68450  0.00030  1.0000
  C   C67       1.0  0.41770  0.81550  0.50030  1.0000
  C   C68       1.0  0.08230  0.31550  0.99970  1.0000
  H   H33       1.0  0.52178  0.19357  0.51289  1.0000
  H   H34       1.0  0.97822  0.69357  0.98711  1.0000
  H   H35       1.0  0.47822  0.80643  0.48711  1.0000
  H   H36       1.0  0.02178  0.30643  0.01289  1.0000
  C   C69       1.0  0.61980  0.05610  0.63290  1.0000
  C   C70       1.0  0.88020  0.55610  0.86710  1.0000
  C   C71       1.0  0.38020  0.94390  0.36710  1.0000
  C   C72       1.0  0.11980  0.44390  0.13290  1.0000
  H   H37       1.0  0.66268  0.07783  0.69248  1.0000
  H   H38       1.0  0.83732  0.57783  0.80752  1.0000
  H   H39       1.0  0.33732  0.92217  0.30752  1.0000
  H   H40       1.0  0.16268  0.42217  0.19248  1.0000
  H   H41       1.0  0.62669  0.97848  0.62344  1.0000
  H   H42       1.0  0.87331  0.47848  0.87656  1.0000
  H   H43       1.0  0.37331  0.02152  0.37656  1.0000
  H   H44       1.0  0.12669  0.52152  0.12344  1.0000
  H   H45       1.0  0.55365  0.07193  0.63393  1.0000
  H   H46       1.0  0.94635  0.57193  0.86607  1.0000
  H   H47       1.0  0.44635  0.92807  0.36607  1.0000
  H   H48       1.0  0.05365  0.42807  0.13393  1.0000
  C   C73       1.0  0.74270  0.10390  0.54430  1.0000
  C   C74       1.0  0.75730  0.60390  0.95570  1.0000
  C   C75       1.0  0.25730  0.89610  0.45570  1.0000
  C   C76       1.0  0.24270  0.39610  0.04430  1.0000
  H   H49       1.0  0.74869  0.03387  0.51550  1.0000
  H   H50       1.0  0.75131  0.53387  0.98450  1.0000
  H   H51       1.0  0.25131  0.96613  0.48450  1.0000
  H   H52       1.0  0.24869  0.46613  0.01550  1.0000
  H   H53       1.0  0.78776  0.10753  0.60601  1.0000
  H   H54       1.0  0.71224  0.60753  0.89399  1.0000
  H   H55       1.0  0.21224  0.89247  0.39399  1.0000
  H   H56       1.0  0.28776  0.39247  0.10601  1.0000
  H   H57       1.0  0.75691  0.16176  0.50453  1.0000
  H   H58       1.0  0.74309  0.66176  0.99547  1.0000
  H   H59       1.0  0.24309  0.83824  0.49547  1.0000
  H   H60       1.0  0.25691  0.33824  0.00453  1.0000
