data_image0
_chemical_formula_structural       Fe16O96C144H48
_chemical_formula_sum              "Fe16 O96 C144 H48"
_cell_length_a       22.1408
_cell_length_b       22.1408
_cell_length_c       22.1408
_cell_angle_alpha    90
_cell_angle_beta     90
_cell_angle_gamma    90

_space_group_name_H-M_alt    "P 1"
_space_group_IT_number       1

loop_
  _space_group_symop_operation_xyz
  'x, y, z'

loop_
  _atom_site_type_symbol
  _atom_site_label
  _atom_site_symmetry_multiplicity
  _atom_site_fract_x
  _atom_site_fract_y
  _atom_site_fract_z
  _atom_site_occupancy
  Fe  Fe1       1.0  0.87500  0.37500  0.12500  1.0000
  Fe  Fe2       1.0  0.87500  0.62500  0.37500  1.0000
  Fe  Fe3       1.0  0.62500  0.62500  0.62500  1.0000
  Fe  Fe4       1.0  0.62500  0.37500  0.87500  1.0000
  Fe  Fe5       1.0  0.37500  0.12500  0.87500  1.0000
  Fe  Fe6       1.0  0.12500  0.87500  0.37500  1.0000
  Fe  Fe7       1.0  0.37500  0.87500  0.62500  1.0000
  Fe  Fe8       1.0  0.12500  0.12500  0.12500  1.0000
  Fe  Fe9       1.0  0.12500  0.62500  0.87500  1.0000
  Fe  Fe10      1.0  0.12500  0.37500  0.62500  1.0000
  Fe  Fe11      1.0  0.37500  0.37500  0.37500  1.0000
  Fe  Fe12      1.0  0.37500  0.62500  0.12500  1.0000
  Fe  Fe13      1.0  0.62500  0.87500  0.12500  1.0000
  Fe  Fe14      1.0  0.87500  0.12500  0.62500  1.0000
  Fe  Fe15      1.0  0.62500  0.12500  0.37500  1.0000
  Fe  Fe16      1.0  0.87500  0.87500  0.87500  1.0000
  O   O1        1.0  0.88404  0.28434  0.12822  1.0000
  O   O2        1.0  0.88404  0.71566  0.37178  1.0000
  O   O3        1.0  0.61596  0.71566  0.62822  1.0000
  O   O4        1.0  0.61596  0.28434  0.87178  1.0000
  O   O5        1.0  0.96566  0.63404  0.37822  1.0000
  O   O6        1.0  0.53434  0.63404  0.62178  1.0000
  O   O7        1.0  0.53434  0.36596  0.87822  1.0000
  O   O8        1.0  0.96566  0.36596  0.12178  1.0000
  O   O9        1.0  0.28434  0.12822  0.88404  1.0000
  O   O10       1.0  0.21566  0.87178  0.38404  1.0000
  O   O11       1.0  0.28434  0.87178  0.61596  1.0000
  O   O12       1.0  0.21566  0.12822  0.11596  1.0000
  O   O13       1.0  0.12178  0.03434  0.13404  1.0000
  O   O14       1.0  0.12178  0.96566  0.36596  1.0000
  O   O15       1.0  0.37822  0.96566  0.63404  1.0000
  O   O16       1.0  0.37822  0.03434  0.86596  1.0000
  O   O17       1.0  0.12822  0.88404  0.28434  1.0000
  O   O18       1.0  0.87178  0.38404  0.21566  1.0000
  O   O19       1.0  0.87178  0.61596  0.28434  1.0000
  O   O20       1.0  0.12822  0.11596  0.21566  1.0000
  O   O21       1.0  0.36596  0.12178  0.96566  1.0000
  O   O22       1.0  0.36596  0.87822  0.53434  1.0000
  O   O23       1.0  0.63404  0.62178  0.53434  1.0000
  O   O24       1.0  0.13404  0.87822  0.46566  1.0000
  O   O25       1.0  0.38404  0.78434  0.62822  1.0000
  O   O26       1.0  0.38404  0.21566  0.87178  1.0000
  O   O27       1.0  0.11596  0.21566  0.12822  1.0000
  O   O28       1.0  0.11596  0.78434  0.37178  1.0000
  O   O29       1.0  0.46566  0.13404  0.87822  1.0000
  O   O30       1.0  0.03434  0.13404  0.12178  1.0000
  O   O31       1.0  0.03434  0.86596  0.37822  1.0000
  O   O32       1.0  0.46566  0.86596  0.62178  1.0000
  O   O33       1.0  0.78434  0.62822  0.38404  1.0000
  O   O34       1.0  0.71566  0.37178  0.88404  1.0000
  O   O35       1.0  0.78434  0.37178  0.11596  1.0000
  O   O36       1.0  0.71566  0.62822  0.61596  1.0000
  O   O37       1.0  0.62178  0.53434  0.63404  1.0000
  O   O38       1.0  0.62178  0.46566  0.86596  1.0000
  O   O39       1.0  0.87822  0.46566  0.13404  1.0000
  O   O40       1.0  0.87822  0.53434  0.36596  1.0000
  O   O41       1.0  0.62822  0.38404  0.78434  1.0000
  O   O42       1.0  0.37178  0.88404  0.71566  1.0000
  O   O43       1.0  0.37178  0.11596  0.78434  1.0000
  O   O44       1.0  0.62822  0.61596  0.71566  1.0000
  O   O45       1.0  0.86596  0.62178  0.46566  1.0000
  O   O46       1.0  0.86596  0.37822  0.03434  1.0000
  O   O47       1.0  0.13404  0.12178  0.03434  1.0000
  O   O48       1.0  0.63404  0.37822  0.96566  1.0000
  O   O49       1.0  0.11596  0.71566  0.87178  1.0000
  O   O50       1.0  0.11596  0.28434  0.62822  1.0000
  O   O51       1.0  0.38404  0.28434  0.37178  1.0000
  O   O52       1.0  0.38404  0.71566  0.12822  1.0000
  O   O53       1.0  0.03434  0.36596  0.62178  1.0000
  O   O54       1.0  0.46566  0.36596  0.37822  1.0000
  O   O55       1.0  0.46566  0.63404  0.12178  1.0000
  O   O56       1.0  0.03434  0.63404  0.87822  1.0000
  O   O57       1.0  0.71566  0.87178  0.11596  1.0000
  O   O58       1.0  0.78434  0.12822  0.61596  1.0000
  O   O59       1.0  0.71566  0.12822  0.38404  1.0000
  O   O60       1.0  0.78434  0.87178  0.88404  1.0000
  O   O61       1.0  0.87822  0.96566  0.86596  1.0000
  O   O62       1.0  0.87822  0.03434  0.63404  1.0000
  O   O63       1.0  0.62178  0.03434  0.36596  1.0000
  O   O64       1.0  0.62178  0.96566  0.13404  1.0000
  O   O65       1.0  0.87178  0.11596  0.71566  1.0000
  O   O66       1.0  0.12822  0.61596  0.78434  1.0000
  O   O67       1.0  0.12822  0.38404  0.71566  1.0000
  O   O68       1.0  0.87178  0.88404  0.78434  1.0000
  O   O69       1.0  0.63404  0.87822  0.03434  1.0000
  O   O70       1.0  0.63404  0.12178  0.46566  1.0000
  O   O71       1.0  0.36596  0.37822  0.46566  1.0000
  O   O72       1.0  0.86596  0.12178  0.53434  1.0000
  O   O73       1.0  0.61596  0.21566  0.37178  1.0000
  O   O74       1.0  0.61596  0.78434  0.12822  1.0000
  O   O75       1.0  0.88404  0.78434  0.87178  1.0000
  O   O76       1.0  0.88404  0.21566  0.62822  1.0000
  O   O77       1.0  0.53434  0.86596  0.12178  1.0000
  O   O78       1.0  0.96566  0.86596  0.87822  1.0000
  O   O79       1.0  0.96566  0.13404  0.62178  1.0000
  O   O80       1.0  0.53434  0.13404  0.37822  1.0000
  O   O81       1.0  0.21566  0.37178  0.61596  1.0000
  O   O82       1.0  0.28434  0.62822  0.11596  1.0000
  O   O83       1.0  0.21566  0.62822  0.88404  1.0000
  O   O84       1.0  0.28434  0.37178  0.38404  1.0000
  O   O85       1.0  0.37822  0.46566  0.36596  1.0000
  O   O86       1.0  0.37822  0.53434  0.13404  1.0000
  O   O87       1.0  0.12178  0.53434  0.86596  1.0000
  O   O88       1.0  0.12178  0.46566  0.63404  1.0000
  O   O89       1.0  0.37178  0.61596  0.21566  1.0000
  O   O90       1.0  0.62822  0.11596  0.28434  1.0000
  O   O91       1.0  0.62822  0.88404  0.21566  1.0000
  O   O92       1.0  0.37178  0.38404  0.28434  1.0000
  O   O93       1.0  0.13404  0.37822  0.53434  1.0000
  O   O94       1.0  0.13404  0.62178  0.96566  1.0000
  O   O95       1.0  0.86596  0.87822  0.96566  1.0000
  O   O96       1.0  0.36596  0.62178  0.03434  1.0000
  C   C1        1.0  0.93782  0.26524  0.12655  1.0000
  C   C2        1.0  0.93782  0.73476  0.37345  1.0000
  C   C3        1.0  0.56218  0.73476  0.62655  1.0000
  C   C4        1.0  0.56218  0.26524  0.87345  1.0000
  C   C5        1.0  0.98476  0.68782  0.37655  1.0000
  C   C6        1.0  0.51524  0.68782  0.62345  1.0000
  C   C7        1.0  0.51524  0.31218  0.87655  1.0000
  C   C8        1.0  0.98476  0.31218  0.12345  1.0000
  C   C9        1.0  0.26524  0.12655  0.93782  1.0000
  C   C10       1.0  0.23476  0.87345  0.43782  1.0000
  C   C11       1.0  0.26524  0.87345  0.56218  1.0000
  C   C12       1.0  0.23476  0.12655  0.06218  1.0000
  C   C13       1.0  0.12345  0.01524  0.18782  1.0000
  C   C14       1.0  0.12345  0.98476  0.31218  1.0000
  C   C15       1.0  0.37655  0.98476  0.68782  1.0000
  C   C16       1.0  0.37655  0.01524  0.81218  1.0000
  C   C17       1.0  0.12655  0.93782  0.26524  1.0000
  C   C18       1.0  0.87345  0.43782  0.23476  1.0000
  C   C19       1.0  0.87345  0.56218  0.26524  1.0000
  C   C20       1.0  0.12655  0.06218  0.23476  1.0000
  C   C21       1.0  0.31218  0.12345  0.98476  1.0000
  C   C22       1.0  0.31218  0.87655  0.51524  1.0000
  C   C23       1.0  0.68782  0.62345  0.51524  1.0000
  C   C24       1.0  0.18782  0.87655  0.48476  1.0000
  C   C25       1.0  0.43782  0.76524  0.62655  1.0000
  C   C26       1.0  0.43782  0.23476  0.87345  1.0000
  C   C27       1.0  0.06218  0.23476  0.12655  1.0000
  C   C28       1.0  0.06218  0.76524  0.37345  1.0000
  C   C29       1.0  0.48476  0.18782  0.87655  1.0000
  C   C30       1.0  0.01524  0.18782  0.12345  1.0000
  C   C31       1.0  0.01524  0.81218  0.37655  1.0000
  C   C32       1.0  0.48476  0.81218  0.62345  1.0000
  C   C33       1.0  0.76524  0.62655  0.43782  1.0000
  C   C34       1.0  0.73476  0.37345  0.93782  1.0000
  C   C35       1.0  0.76524  0.37345  0.06218  1.0000
  C   C36       1.0  0.73476  0.62655  0.56218  1.0000
  C   C37       1.0  0.62345  0.51524  0.68782  1.0000
  C   C38       1.0  0.62345  0.48476  0.81218  1.0000
  C   C39       1.0  0.87655  0.48476  0.18782  1.0000
  C   C40       1.0  0.87655  0.51524  0.31218  1.0000
  C   C41       1.0  0.62655  0.43782  0.76524  1.0000
  C   C42       1.0  0.37345  0.93782  0.73476  1.0000
  C   C43       1.0  0.37345  0.06218  0.76524  1.0000
  C   C44       1.0  0.62655  0.56218  0.73476  1.0000
  C   C45       1.0  0.81218  0.62345  0.48476  1.0000
  C   C46       1.0  0.81218  0.37655  0.01524  1.0000
  C   C47       1.0  0.18782  0.12345  0.01524  1.0000
  C   C48       1.0  0.68782  0.37655  0.98476  1.0000
  C   C49       1.0  0.06218  0.73476  0.87345  1.0000
  C   C50       1.0  0.06218  0.26524  0.62655  1.0000
  C   C51       1.0  0.43782  0.26524  0.37345  1.0000
  C   C52       1.0  0.43782  0.73476  0.12655  1.0000
  C   C53       1.0  0.01524  0.31218  0.62345  1.0000
  C   C54       1.0  0.48476  0.31218  0.37655  1.0000
  C   C55       1.0  0.48476  0.68782  0.12345  1.0000
  C   C56       1.0  0.01524  0.68782  0.87655  1.0000
  C   C57       1.0  0.73476  0.87345  0.06218  1.0000
  C   C58       1.0  0.76524  0.12655  0.56218  1.0000
  C   C59       1.0  0.73476  0.12655  0.43782  1.0000
  C   C60       1.0  0.76524  0.87345  0.93782  1.0000
  C   C61       1.0  0.87655  0.98476  0.81218  1.0000
  C   C62       1.0  0.87655  0.01524  0.68782  1.0000
  C   C63       1.0  0.62345  0.01524  0.31218  1.0000
  C   C64       1.0  0.62345  0.98476  0.18782  1.0000
  C   C65       1.0  0.87345  0.06218  0.73476  1.0000
  C   C66       1.0  0.12655  0.56218  0.76524  1.0000
  C   C67       1.0  0.12655  0.43782  0.73476  1.0000
  C   C68       1.0  0.87345  0.93782  0.76524  1.0000
  C   C69       1.0  0.68782  0.87655  0.01524  1.0000
  C   C70       1.0  0.68782  0.12345  0.48476  1.0000
  C   C71       1.0  0.31218  0.37655  0.48476  1.0000
  C   C72       1.0  0.81218  0.12345  0.51524  1.0000
  C   C73       1.0  0.56218  0.23476  0.37345  1.0000
  C   C74       1.0  0.56218  0.76524  0.12655  1.0000
  C   C75       1.0  0.93782  0.76524  0.87345  1.0000
  C   C76       1.0  0.93782  0.23476  0.62655  1.0000
  C   C77       1.0  0.51524  0.81218  0.12345  1.0000
  C   C78       1.0  0.98476  0.81218  0.87655  1.0000
  C   C79       1.0  0.98476  0.18782  0.62345  1.0000
  C   C80       1.0  0.51524  0.18782  0.37655  1.0000
  C   C81       1.0  0.23476  0.37345  0.56218  1.0000
  C   C82       1.0  0.26524  0.62655  0.06218  1.0000
  C   C83       1.0  0.23476  0.62655  0.93782  1.0000
  C   C84       1.0  0.26524  0.37345  0.43782  1.0000
  C   C85       1.0  0.37655  0.48476  0.31218  1.0000
  C   C86       1.0  0.37655  0.51524  0.18782  1.0000
  C   C87       1.0  0.12345  0.51524  0.81218  1.0000
  C   C88       1.0  0.12345  0.48476  0.68782  1.0000
  C   C89       1.0  0.37345  0.56218  0.23476  1.0000
  C   C90       1.0  0.62655  0.06218  0.26524  1.0000
  C   C91       1.0  0.62655  0.93782  0.23476  1.0000
  C   C92       1.0  0.37345  0.43782  0.26524  1.0000
  C   C93       1.0  0.18782  0.37655  0.51524  1.0000
  C   C94       1.0  0.18782  0.62345  0.98476  1.0000
  C   C95       1.0  0.81218  0.87655  0.98476  1.0000
  C   C96       1.0  0.31218  0.62345  0.01524  1.0000
  C   C97       1.0  0.95388  0.20388  0.12500  1.0000
  C   C98       1.0  0.95388  0.79612  0.37500  1.0000
  C   C99       1.0  0.54612  0.79612  0.62500  1.0000
  C   C100      1.0  0.54612  0.20388  0.87500  1.0000
  C   C101      1.0  0.04612  0.70388  0.37500  1.0000
  C   C102      1.0  0.45388  0.70388  0.62500  1.0000
  C   C103      1.0  0.45388  0.29612  0.87500  1.0000
  C   C104      1.0  0.04612  0.29612  0.12500  1.0000
  C   C105      1.0  0.20388  0.12500  0.95388  1.0000
  C   C106      1.0  0.29612  0.87500  0.45388  1.0000
  C   C107      1.0  0.20388  0.87500  0.54612  1.0000
  C   C108      1.0  0.29612  0.12500  0.04612  1.0000
  C   C109      1.0  0.12500  0.95388  0.20388  1.0000
  C   C110      1.0  0.12500  0.04612  0.29612  1.0000
  C   C111      1.0  0.37500  0.04612  0.70388  1.0000
  C   C112      1.0  0.37500  0.95388  0.79612  1.0000
  C   C113      1.0  0.87500  0.45388  0.29612  1.0000
  C   C114      1.0  0.87500  0.54612  0.20388  1.0000
  C   C115      1.0  0.70388  0.62500  0.45388  1.0000
  C   C116      1.0  0.79612  0.37500  0.95388  1.0000
  C   C117      1.0  0.70388  0.37500  0.04612  1.0000
  C   C118      1.0  0.79612  0.62500  0.54612  1.0000
  C   C119      1.0  0.62500  0.45388  0.70388  1.0000
  C   C120      1.0  0.62500  0.54612  0.79612  1.0000
  C   C121      1.0  0.04612  0.79612  0.87500  1.0000
  C   C122      1.0  0.04612  0.20388  0.62500  1.0000
  C   C123      1.0  0.45388  0.20388  0.37500  1.0000
  C   C124      1.0  0.45388  0.79612  0.12500  1.0000
  C   C125      1.0  0.95388  0.29612  0.62500  1.0000
  C   C126      1.0  0.54612  0.29612  0.37500  1.0000
  C   C127      1.0  0.54612  0.70388  0.12500  1.0000
  C   C128      1.0  0.95388  0.70388  0.87500  1.0000
  C   C129      1.0  0.79612  0.87500  0.04612  1.0000
  C   C130      1.0  0.70388  0.12500  0.54612  1.0000
  C   C131      1.0  0.79612  0.12500  0.45388  1.0000
  C   C132      1.0  0.70388  0.87500  0.95388  1.0000
  C   C133      1.0  0.87500  0.04612  0.79612  1.0000
  C   C134      1.0  0.87500  0.95388  0.70388  1.0000
  C   C135      1.0  0.62500  0.95388  0.29612  1.0000
  C   C136      1.0  0.62500  0.04612  0.20388  1.0000
  C   C137      1.0  0.12500  0.54612  0.70388  1.0000
  C   C138      1.0  0.12500  0.45388  0.79612  1.0000
  C   C139      1.0  0.29612  0.37500  0.54612  1.0000
  C   C140      1.0  0.20388  0.62500  0.04612  1.0000
  C   C141      1.0  0.29612  0.62500  0.95388  1.0000
  C   C142      1.0  0.20388  0.37500  0.45388  1.0000
  C   C143      1.0  0.37500  0.54612  0.29612  1.0000
  C   C144      1.0  0.37500  0.45388  0.20388  1.0000
  H   H1        1.0  0.92420  0.17420  0.12500  1.0000
  H   H2        1.0  0.92420  0.82580  0.37500  1.0000
  H   H3        1.0  0.57580  0.82580  0.62500  1.0000
  H   H4        1.0  0.57580  0.17420  0.87500  1.0000
  H   H5        1.0  0.07580  0.67420  0.37500  1.0000
  H   H6        1.0  0.42420  0.67420  0.62500  1.0000
  H   H7        1.0  0.42420  0.32580  0.87500  1.0000
  H   H8        1.0  0.07580  0.32580  0.12500  1.0000
  H   H9        1.0  0.17420  0.12500  0.92420  1.0000
  H   H10       1.0  0.32580  0.87500  0.42420  1.0000
  H   H11       1.0  0.17420  0.87500  0.57580  1.0000
  H   H12       1.0  0.32580  0.12500  0.07580  1.0000
  H   H13       1.0  0.12500  0.92420  0.17420  1.0000
  H   H14       1.0  0.12500  0.07580  0.32580  1.0000
  H   H15       1.0  0.37500  0.07580  0.67420  1.0000
  H   H16       1.0  0.37500  0.92420  0.82580  1.0000
  H   H17       1.0  0.87500  0.42420  0.32580  1.0000
  H   H18       1.0  0.87500  0.57580  0.17420  1.0000
  H   H19       1.0  0.67420  0.62500  0.42420  1.0000
  H   H20       1.0  0.82580  0.37500  0.92420  1.0000
  H   H21       1.0  0.67420  0.37500  0.07580  1.0000
  H   H22       1.0  0.82580  0.62500  0.57580  1.0000
  H   H23       1.0  0.62500  0.42420  0.67420  1.0000
  H   H24       1.0  0.62500  0.57580  0.82580  1.0000
  H   H25       1.0  0.07580  0.82580  0.87500  1.0000
  H   H26       1.0  0.07580  0.17420  0.62500  1.0000
  H   H27       1.0  0.42420  0.17420  0.37500  1.0000
  H   H28       1.0  0.42420  0.82580  0.12500  1.0000
  H   H29       1.0  0.92420  0.32580  0.62500  1.0000
  H   H30       1.0  0.57580  0.32580  0.37500  1.0000
  H   H31       1.0  0.57580  0.67420  0.12500  1.0000
  H   H32       1.0  0.92420  0.67420  0.87500  1.0000
  H   H33       1.0  0.82580  0.87500  0.07580  1.0000
  H   H34       1.0  0.67420  0.12500  0.57580  1.0000
  H   H35       1.0  0.82580  0.12500  0.42420  1.0000
  H   H36       1.0  0.67420  0.87500  0.92420  1.0000
  H   H37       1.0  0.87500  0.07580  0.82580  1.0000
  H   H38       1.0  0.87500  0.92420  0.67420  1.0000
  H   H39       1.0  0.62500  0.92420  0.32580  1.0000
  H   H40       1.0  0.62500  0.07580  0.17420  1.0000
  H   H41       1.0  0.12500  0.57580  0.67420  1.0000
  H   H42       1.0  0.12500  0.42420  0.82580  1.0000
  H   H43       1.0  0.32580  0.37500  0.57580  1.0000
  H   H44       1.0  0.17420  0.62500  0.07580  1.0000
  H   H45       1.0  0.32580  0.62500  0.92420  1.0000
  H   H46       1.0  0.17420  0.37500  0.42420  1.0000
  H   H47       1.0  0.37500  0.57580  0.32580  1.0000
  H   H48       1.0  0.37500  0.42420  0.17420  1.0000
