data_image0
_chemical_formula_structural       Zn16O96C144H48
_chemical_formula_sum              "Zn16 O96 C144 H48"
_cell_length_a       22.215
_cell_length_b       22.215
_cell_length_c       22.215
_cell_angle_alpha    90
_cell_angle_beta     90
_cell_angle_gamma    90

_space_group_name_H-M_alt    "P 1"
_space_group_IT_number       1

loop_
  _space_group_symop_operation_xyz
  'x, y, z'

loop_
  _atom_site_type_symbol
  _atom_site_label
  _atom_site_symmetry_multiplicity
  _atom_site_fract_x
  _atom_site_fract_y
  _atom_site_fract_z
  _atom_site_occupancy
  Zn  Zn1       1.0  0.12500  0.12500  0.12500  1.0000
  Zn  Zn2       1.0  0.37500  0.87500  0.62500  1.0000
  Zn  Zn3       1.0  0.87500  0.62500  0.37500  1.0000
  Zn  Zn4       1.0  0.62500  0.37500  0.87500  1.0000
  Zn  Zn5       1.0  0.87500  0.37500  0.12500  1.0000
  Zn  Zn6       1.0  0.62500  0.62500  0.62500  1.0000
  Zn  Zn7       1.0  0.37500  0.12500  0.87500  1.0000
  Zn  Zn8       1.0  0.12500  0.87500  0.37500  1.0000
  Zn  Zn9       1.0  0.87500  0.87500  0.87500  1.0000
  Zn  Zn10      1.0  0.62500  0.12500  0.37500  1.0000
  Zn  Zn11      1.0  0.12500  0.37500  0.62500  1.0000
  Zn  Zn12      1.0  0.37500  0.62500  0.12500  1.0000
  Zn  Zn13      1.0  0.12500  0.62500  0.87500  1.0000
  Zn  Zn14      1.0  0.37500  0.37500  0.37500  1.0000
  Zn  Zn15      1.0  0.62500  0.87500  0.12500  1.0000
  Zn  Zn16      1.0  0.87500  0.12500  0.62500  1.0000
  O   O1        1.0  0.13750  0.12330  0.03260  1.0000
  O   O2        1.0  0.36250  0.87670  0.53260  1.0000
  O   O3        1.0  0.86250  0.62330  0.46740  1.0000
  O   O4        1.0  0.63750  0.37670  0.96740  1.0000
  O   O5        1.0  0.03260  0.13750  0.12330  1.0000
  O   O6        1.0  0.53260  0.36250  0.87670  1.0000
  O   O7        1.0  0.46740  0.86250  0.62330  1.0000
  O   O8        1.0  0.96740  0.63750  0.37670  1.0000
  O   O9        1.0  0.12330  0.03260  0.13750  1.0000
  O   O10       1.0  0.87670  0.53260  0.36250  1.0000
  O   O11       1.0  0.62330  0.46740  0.86250  1.0000
  O   O12       1.0  0.37670  0.96740  0.63750  1.0000
  O   O13       1.0  0.87330  0.38750  0.21740  1.0000
  O   O14       1.0  0.62670  0.61250  0.71740  1.0000
  O   O15       1.0  0.37330  0.11250  0.78260  1.0000
  O   O16       1.0  0.12670  0.88750  0.28260  1.0000
  O   O17       1.0  0.88750  0.28260  0.12670  1.0000
  O   O18       1.0  0.11250  0.78260  0.37330  1.0000
  O   O19       1.0  0.61250  0.71740  0.62670  1.0000
  O   O20       1.0  0.38750  0.21740  0.87330  1.0000
  O   O21       1.0  0.78260  0.37330  0.11250  1.0000
  O   O22       1.0  0.28260  0.12670  0.88750  1.0000
  O   O23       1.0  0.21740  0.87330  0.38750  1.0000
  O   O24       1.0  0.71740  0.62670  0.61250  1.0000
  O   O25       1.0  0.63750  0.62330  0.53260  1.0000
  O   O26       1.0  0.86250  0.37670  0.03260  1.0000
  O   O27       1.0  0.36250  0.12330  0.96740  1.0000
  O   O28       1.0  0.13750  0.87670  0.46740  1.0000
  O   O29       1.0  0.53260  0.63750  0.62330  1.0000
  O   O30       1.0  0.03260  0.86250  0.37670  1.0000
  O   O31       1.0  0.96740  0.36250  0.12330  1.0000
  O   O32       1.0  0.46740  0.13750  0.87670  1.0000
  O   O33       1.0  0.62330  0.53260  0.63750  1.0000
  O   O34       1.0  0.37670  0.03260  0.86250  1.0000
  O   O35       1.0  0.12330  0.96740  0.36250  1.0000
  O   O36       1.0  0.87670  0.46740  0.13750  1.0000
  O   O37       1.0  0.37330  0.88750  0.71740  1.0000
  O   O38       1.0  0.12670  0.11250  0.21740  1.0000
  O   O39       1.0  0.87330  0.61250  0.28260  1.0000
  O   O40       1.0  0.62670  0.38750  0.78260  1.0000
  O   O41       1.0  0.38750  0.78260  0.62670  1.0000
  O   O42       1.0  0.61250  0.28260  0.87330  1.0000
  O   O43       1.0  0.11250  0.21740  0.12670  1.0000
  O   O44       1.0  0.88750  0.71740  0.37330  1.0000
  O   O45       1.0  0.28260  0.87330  0.61250  1.0000
  O   O46       1.0  0.78260  0.62670  0.38750  1.0000
  O   O47       1.0  0.71740  0.37330  0.88750  1.0000
  O   O48       1.0  0.21740  0.12670  0.11250  1.0000
  O   O49       1.0  0.86250  0.87670  0.96740  1.0000
  O   O50       1.0  0.63750  0.12330  0.46740  1.0000
  O   O51       1.0  0.13750  0.37670  0.53260  1.0000
  O   O52       1.0  0.36250  0.62330  0.03260  1.0000
  O   O53       1.0  0.96740  0.86250  0.87670  1.0000
  O   O54       1.0  0.46740  0.63750  0.12330  1.0000
  O   O55       1.0  0.53260  0.13750  0.37670  1.0000
  O   O56       1.0  0.03260  0.36250  0.62330  1.0000
  O   O57       1.0  0.87670  0.96740  0.86250  1.0000
  O   O58       1.0  0.12330  0.46740  0.63750  1.0000
  O   O59       1.0  0.37670  0.53260  0.13750  1.0000
  O   O60       1.0  0.62330  0.03260  0.36250  1.0000
  O   O61       1.0  0.12670  0.61250  0.78260  1.0000
  O   O62       1.0  0.37330  0.38750  0.28260  1.0000
  O   O63       1.0  0.62670  0.88750  0.21740  1.0000
  O   O64       1.0  0.87330  0.11250  0.71740  1.0000
  O   O65       1.0  0.11250  0.71740  0.87330  1.0000
  O   O66       1.0  0.88750  0.21740  0.62670  1.0000
  O   O67       1.0  0.38750  0.28260  0.37330  1.0000
  O   O68       1.0  0.61250  0.78260  0.12670  1.0000
  O   O69       1.0  0.21740  0.62670  0.88750  1.0000
  O   O70       1.0  0.71740  0.87330  0.11250  1.0000
  O   O71       1.0  0.78260  0.12670  0.61250  1.0000
  O   O72       1.0  0.28260  0.37330  0.38750  1.0000
  O   O73       1.0  0.36250  0.37670  0.46740  1.0000
  O   O74       1.0  0.13750  0.62330  0.96740  1.0000
  O   O75       1.0  0.63750  0.87670  0.03260  1.0000
  O   O76       1.0  0.86250  0.12330  0.53260  1.0000
  O   O77       1.0  0.46740  0.36250  0.37670  1.0000
  O   O78       1.0  0.96740  0.13750  0.62330  1.0000
  O   O79       1.0  0.03260  0.63750  0.87670  1.0000
  O   O80       1.0  0.53260  0.86250  0.12330  1.0000
  O   O81       1.0  0.37670  0.46740  0.36250  1.0000
  O   O82       1.0  0.62330  0.96740  0.13750  1.0000
  O   O83       1.0  0.87670  0.03260  0.63750  1.0000
  O   O84       1.0  0.12330  0.53260  0.86250  1.0000
  O   O85       1.0  0.62670  0.11250  0.28260  1.0000
  O   O86       1.0  0.87330  0.88750  0.78260  1.0000
  O   O87       1.0  0.12670  0.38750  0.71740  1.0000
  O   O88       1.0  0.37330  0.61250  0.21740  1.0000
  O   O89       1.0  0.61250  0.21740  0.37330  1.0000
  O   O90       1.0  0.38750  0.71740  0.12670  1.0000
  O   O91       1.0  0.88750  0.78260  0.87330  1.0000
  O   O92       1.0  0.11250  0.28260  0.62670  1.0000
  O   O93       1.0  0.71740  0.12670  0.38750  1.0000
  O   O94       1.0  0.21740  0.37330  0.61250  1.0000
  O   O95       1.0  0.28260  0.62670  0.11250  1.0000
  O   O96       1.0  0.78260  0.87330  0.88750  1.0000
  C   C1        1.0  0.18750  0.12300  0.01450  1.0000
  C   C2        1.0  0.31250  0.87700  0.51450  1.0000
  C   C3        1.0  0.81250  0.62300  0.48550  1.0000
  C   C4        1.0  0.68750  0.37700  0.98550  1.0000
  C   C5        1.0  0.01450  0.18750  0.12300  1.0000
  C   C6        1.0  0.51450  0.31250  0.87700  1.0000
  C   C7        1.0  0.48550  0.81250  0.62300  1.0000
  C   C8        1.0  0.98550  0.68750  0.37700  1.0000
  C   C9        1.0  0.12300  0.01450  0.18750  1.0000
  C   C10       1.0  0.87700  0.51450  0.31250  1.0000
  C   C11       1.0  0.62300  0.48550  0.81250  1.0000
  C   C12       1.0  0.37700  0.98550  0.68750  1.0000
  C   C13       1.0  0.87300  0.43750  0.23550  1.0000
  C   C14       1.0  0.62700  0.56250  0.73550  1.0000
  C   C15       1.0  0.37300  0.06250  0.76450  1.0000
  C   C16       1.0  0.12700  0.93750  0.26450  1.0000
  C   C17       1.0  0.93750  0.26450  0.12700  1.0000
  C   C18       1.0  0.06250  0.76450  0.37300  1.0000
  C   C19       1.0  0.56250  0.73550  0.62700  1.0000
  C   C20       1.0  0.43750  0.23550  0.87300  1.0000
  C   C21       1.0  0.76450  0.37300  0.06250  1.0000
  C   C22       1.0  0.26450  0.12700  0.93750  1.0000
  C   C23       1.0  0.23550  0.87300  0.43750  1.0000
  C   C24       1.0  0.73550  0.62700  0.56250  1.0000
  C   C25       1.0  0.68750  0.62300  0.51450  1.0000
  C   C26       1.0  0.81250  0.37700  0.01450  1.0000
  C   C27       1.0  0.31250  0.12300  0.98550  1.0000
  C   C28       1.0  0.18750  0.87700  0.48550  1.0000
  C   C29       1.0  0.51450  0.68750  0.62300  1.0000
  C   C30       1.0  0.01450  0.81250  0.37700  1.0000
  C   C31       1.0  0.98550  0.31250  0.12300  1.0000
  C   C32       1.0  0.48550  0.18750  0.87700  1.0000
  C   C33       1.0  0.62300  0.51450  0.68750  1.0000
  C   C34       1.0  0.37700  0.01450  0.81250  1.0000
  C   C35       1.0  0.12300  0.98550  0.31250  1.0000
  C   C36       1.0  0.87700  0.48550  0.18750  1.0000
  C   C37       1.0  0.37300  0.93750  0.73550  1.0000
  C   C38       1.0  0.12700  0.06250  0.23550  1.0000
  C   C39       1.0  0.87300  0.56250  0.26450  1.0000
  C   C40       1.0  0.62700  0.43750  0.76450  1.0000
  C   C41       1.0  0.43750  0.76450  0.62700  1.0000
  C   C42       1.0  0.56250  0.26450  0.87300  1.0000
  C   C43       1.0  0.06250  0.23550  0.12700  1.0000
  C   C44       1.0  0.93750  0.73550  0.37300  1.0000
  C   C45       1.0  0.26450  0.87300  0.56250  1.0000
  C   C46       1.0  0.76450  0.62700  0.43750  1.0000
  C   C47       1.0  0.73550  0.37300  0.93750  1.0000
  C   C48       1.0  0.23550  0.12700  0.06250  1.0000
  C   C49       1.0  0.81250  0.87700  0.98550  1.0000
  C   C50       1.0  0.68750  0.12300  0.48550  1.0000
  C   C51       1.0  0.18750  0.37700  0.51450  1.0000
  C   C52       1.0  0.31250  0.62300  0.01450  1.0000
  C   C53       1.0  0.98550  0.81250  0.87700  1.0000
  C   C54       1.0  0.48550  0.68750  0.12300  1.0000
  C   C55       1.0  0.51450  0.18750  0.37700  1.0000
  C   C56       1.0  0.01450  0.31250  0.62300  1.0000
  C   C57       1.0  0.87700  0.98550  0.81250  1.0000
  C   C58       1.0  0.12300  0.48550  0.68750  1.0000
  C   C59       1.0  0.37700  0.51450  0.18750  1.0000
  C   C60       1.0  0.62300  0.01450  0.31250  1.0000
  C   C61       1.0  0.12700  0.56250  0.76450  1.0000
  C   C62       1.0  0.37300  0.43750  0.26450  1.0000
  C   C63       1.0  0.62700  0.93750  0.23550  1.0000
  C   C64       1.0  0.87300  0.06250  0.73550  1.0000
  C   C65       1.0  0.06250  0.73550  0.87300  1.0000
  C   C66       1.0  0.93750  0.23550  0.62700  1.0000
  C   C67       1.0  0.43750  0.26450  0.37300  1.0000
  C   C68       1.0  0.56250  0.76450  0.12700  1.0000
  C   C69       1.0  0.23550  0.62700  0.93750  1.0000
  C   C70       1.0  0.73550  0.87300  0.06250  1.0000
  C   C71       1.0  0.76450  0.12700  0.56250  1.0000
  C   C72       1.0  0.26450  0.37300  0.43750  1.0000
  C   C73       1.0  0.31250  0.37700  0.48550  1.0000
  C   C74       1.0  0.18750  0.62300  0.98550  1.0000
  C   C75       1.0  0.68750  0.87700  0.01450  1.0000
  C   C76       1.0  0.81250  0.12300  0.51450  1.0000
  C   C77       1.0  0.48550  0.31250  0.37700  1.0000
  C   C78       1.0  0.98550  0.18750  0.62300  1.0000
  C   C79       1.0  0.01450  0.68750  0.87700  1.0000
  C   C80       1.0  0.51450  0.81250  0.12300  1.0000
  C   C81       1.0  0.37700  0.48550  0.31250  1.0000
  C   C82       1.0  0.62300  0.98550  0.18750  1.0000
  C   C83       1.0  0.87700  0.01450  0.68750  1.0000
  C   C84       1.0  0.12300  0.51450  0.81250  1.0000
  C   C85       1.0  0.62700  0.06250  0.26450  1.0000
  C   C86       1.0  0.87300  0.93750  0.76450  1.0000
  C   C87       1.0  0.12700  0.43750  0.73550  1.0000
  C   C88       1.0  0.37300  0.56250  0.23550  1.0000
  C   C89       1.0  0.56250  0.23550  0.37300  1.0000
  C   C90       1.0  0.43750  0.73550  0.12700  1.0000
  C   C91       1.0  0.93750  0.76450  0.87300  1.0000
  C   C92       1.0  0.06250  0.26450  0.62700  1.0000
  C   C93       1.0  0.73550  0.12700  0.43750  1.0000
  C   C94       1.0  0.23550  0.37300  0.56250  1.0000
  C   C95       1.0  0.26450  0.62700  0.06250  1.0000
  C   C96       1.0  0.76450  0.87300  0.93750  1.0000
  C   C97       1.0  0.20370  0.12500  0.95370  1.0000
  C   C98       1.0  0.29630  0.87500  0.45370  1.0000
  C   C99       1.0  0.79630  0.62500  0.54630  1.0000
  C   C100      1.0  0.70370  0.37500  0.04630  1.0000
  C   C101      1.0  0.95370  0.20370  0.12500  1.0000
  C   C102      1.0  0.45370  0.29630  0.87500  1.0000
  C   C103      1.0  0.54630  0.79630  0.62500  1.0000
  C   C104      1.0  0.04630  0.70370  0.37500  1.0000
  C   C105      1.0  0.12500  0.95370  0.20370  1.0000
  C   C106      1.0  0.87500  0.45370  0.29630  1.0000
  C   C107      1.0  0.62500  0.54630  0.79630  1.0000
  C   C108      1.0  0.37500  0.04630  0.70370  1.0000
  C   C109      1.0  0.70370  0.62500  0.45370  1.0000
  C   C110      1.0  0.79630  0.37500  0.95370  1.0000
  C   C111      1.0  0.29630  0.12500  0.04630  1.0000
  C   C112      1.0  0.20370  0.87500  0.54630  1.0000
  C   C113      1.0  0.45370  0.70370  0.62500  1.0000
  C   C114      1.0  0.95370  0.79630  0.37500  1.0000
  C   C115      1.0  0.04630  0.29630  0.12500  1.0000
  C   C116      1.0  0.54630  0.20370  0.87500  1.0000
  C   C117      1.0  0.62500  0.45370  0.70370  1.0000
  C   C118      1.0  0.37500  0.95370  0.79630  1.0000
  C   C119      1.0  0.12500  0.04630  0.29630  1.0000
  C   C120      1.0  0.87500  0.54630  0.20370  1.0000
  C   C121      1.0  0.79630  0.87500  0.04630  1.0000
  C   C122      1.0  0.70370  0.12500  0.54630  1.0000
  C   C123      1.0  0.20370  0.37500  0.45370  1.0000
  C   C124      1.0  0.29630  0.62500  0.95370  1.0000
  C   C125      1.0  0.04630  0.79630  0.87500  1.0000
  C   C126      1.0  0.54630  0.70370  0.12500  1.0000
  C   C127      1.0  0.45370  0.20370  0.37500  1.0000
  C   C128      1.0  0.95370  0.29630  0.62500  1.0000
  C   C129      1.0  0.87500  0.04630  0.79630  1.0000
  C   C130      1.0  0.12500  0.54630  0.70370  1.0000
  C   C131      1.0  0.37500  0.45370  0.20370  1.0000
  C   C132      1.0  0.62500  0.95370  0.29630  1.0000
  C   C133      1.0  0.29630  0.37500  0.54630  1.0000
  C   C134      1.0  0.20370  0.62500  0.04630  1.0000
  C   C135      1.0  0.70370  0.87500  0.95370  1.0000
  C   C136      1.0  0.79630  0.12500  0.45370  1.0000
  C   C137      1.0  0.54630  0.29630  0.37500  1.0000
  C   C138      1.0  0.04630  0.20370  0.62500  1.0000
  C   C139      1.0  0.95370  0.70370  0.87500  1.0000
  C   C140      1.0  0.45370  0.79630  0.12500  1.0000
  C   C141      1.0  0.37500  0.54630  0.29630  1.0000
  C   C142      1.0  0.62500  0.04630  0.20370  1.0000
  C   C143      1.0  0.87500  0.95370  0.70370  1.0000
  C   C144      1.0  0.12500  0.45370  0.79630  1.0000
  H   H1        1.0  0.17350  0.12500  0.92350  1.0000
  H   H2        1.0  0.32650  0.87500  0.42350  1.0000
  H   H3        1.0  0.82650  0.62500  0.57650  1.0000
  H   H4        1.0  0.67350  0.37500  0.07650  1.0000
  H   H5        1.0  0.92350  0.17350  0.12500  1.0000
  H   H6        1.0  0.42350  0.32650  0.87500  1.0000
  H   H7        1.0  0.57650  0.82650  0.62500  1.0000
  H   H8        1.0  0.07650  0.67350  0.37500  1.0000
  H   H9        1.0  0.12500  0.92350  0.17350  1.0000
  H   H10       1.0  0.87500  0.42350  0.32650  1.0000
  H   H11       1.0  0.62500  0.57650  0.82650  1.0000
  H   H12       1.0  0.37500  0.07650  0.67350  1.0000
  H   H13       1.0  0.67350  0.62500  0.42350  1.0000
  H   H14       1.0  0.82650  0.37500  0.92350  1.0000
  H   H15       1.0  0.32650  0.12500  0.07650  1.0000
  H   H16       1.0  0.17350  0.87500  0.57650  1.0000
  H   H17       1.0  0.42350  0.67350  0.62500  1.0000
  H   H18       1.0  0.92350  0.82650  0.37500  1.0000
  H   H19       1.0  0.07650  0.32650  0.12500  1.0000
  H   H20       1.0  0.57650  0.17350  0.87500  1.0000
  H   H21       1.0  0.62500  0.42350  0.67350  1.0000
  H   H22       1.0  0.37500  0.92350  0.82650  1.0000
  H   H23       1.0  0.12500  0.07650  0.32650  1.0000
  H   H24       1.0  0.87500  0.57650  0.17350  1.0000
  H   H25       1.0  0.82650  0.87500  0.07650  1.0000
  H   H26       1.0  0.67350  0.12500  0.57650  1.0000
  H   H27       1.0  0.17350  0.37500  0.42350  1.0000
  H   H28       1.0  0.32650  0.62500  0.92350  1.0000
  H   H29       1.0  0.07650  0.82650  0.87500  1.0000
  H   H30       1.0  0.57650  0.67350  0.12500  1.0000
  H   H31       1.0  0.42350  0.17350  0.37500  1.0000
  H   H32       1.0  0.92350  0.32650  0.62500  1.0000
  H   H33       1.0  0.87500  0.07650  0.82650  1.0000
  H   H34       1.0  0.12500  0.57650  0.67350  1.0000
  H   H35       1.0  0.37500  0.42350  0.17350  1.0000
  H   H36       1.0  0.62500  0.92350  0.32650  1.0000
  H   H37       1.0  0.32650  0.37500  0.57650  1.0000
  H   H38       1.0  0.17350  0.62500  0.07650  1.0000
  H   H39       1.0  0.67350  0.87500  0.92350  1.0000
  H   H40       1.0  0.82650  0.12500  0.42350  1.0000
  H   H41       1.0  0.57650  0.32650  0.37500  1.0000
  H   H42       1.0  0.07650  0.17350  0.62500  1.0000
  H   H43       1.0  0.92350  0.67350  0.87500  1.0000
  H   H44       1.0  0.42350  0.82650  0.12500  1.0000
  H   H45       1.0  0.37500  0.57650  0.32650  1.0000
  H   H46       1.0  0.62500  0.07650  0.17350  1.0000
  H   H47       1.0  0.87500  0.92350  0.67350  1.0000
  H   H48       1.0  0.12500  0.42350  0.82650  1.0000
