data_image0
_chemical_formula_structural       Mn2O2C2MnO2C2H4O2C2O2C2H2O4C2O2C2H2O2C2H2O2C2O2C2H4O2C2O2C2H2C2H2C4H2C2H2C4H4C4H2C2H2C4H2C2H2C4H4C4H2C2H2C4H2C2H2C4H2
_chemical_formula_sum              "Mn3 O24 C66 H48"
_cell_length_a       11.775
_cell_length_b       16.113
_cell_length_c       16.346
_cell_angle_alpha    108.244
_cell_angle_beta     101.663
_cell_angle_gamma    102.559

_space_group_name_H-M_alt    "P 1"
_space_group_IT_number       1

loop_
  _space_group_symop_operation_xyz
  'x, y, z'

loop_
  _atom_site_type_symbol
  _atom_site_label
  _atom_site_symmetry_multiplicity
  _atom_site_fract_x
  _atom_site_fract_y
  _atom_site_fract_z
  _atom_site_occupancy
  Mn  Mn1       1.0  0.18914  0.89525  0.39036  1.0000
  Mn  Mn2       1.0  0.81086  0.10475  0.60964  1.0000
  O   O1        1.0  0.48500  0.48812  0.16180  1.0000
  O   O2        1.0  0.51500  0.51188  0.83820  1.0000
  C   C1        1.0  0.45640  0.33966  0.05618  1.0000
  C   C2        1.0  0.54360  0.66034  0.94382  1.0000
  Mn  Mn3       1.0  0.50000  0.00000  0.50000  1.0000
  O   O3        1.0  0.47283  0.86937  0.41177  1.0000
  O   O4        1.0  0.52717  0.13063  0.58823  1.0000
  C   C3        1.0  0.39800  0.41305  0.09817  1.0000
  C   C4        1.0  0.60200  0.58695  0.90183  1.0000
  H   H1        1.0  0.35440  0.43030  0.05070  1.0000
  H   H2        1.0  0.64560  0.56970  0.94930  1.0000
  H   H3        1.0  0.33820  0.38790  0.12570  1.0000
  H   H4        1.0  0.66180  0.61210  0.87430  1.0000
  O   O5        1.0  0.27732  0.81304  0.32933  1.0000
  O   O6        1.0  0.72268  0.18696  0.67067  1.0000
  C   C5        1.0  0.45130  0.56513  0.19880  1.0000
  C   C6        1.0  0.54870  0.43487  0.80120  1.0000
  O   O7        1.0  0.67441  0.40528  0.12362  1.0000
  O   O8        1.0  0.32559  0.59472  0.87638  1.0000
  C   C7        1.0  0.54660  0.63890  0.25840  1.0000
  C   C8        1.0  0.45340  0.36110  0.74160  1.0000
  H   H5        1.0  0.62740  0.63520  0.26830  1.0000
  H   H6        1.0  0.37260  0.36480  0.73170  1.0000
  O   O9        1.0  0.02853  0.81445  0.28002  1.0000
  O   O10       1.0  0.97147  0.18555  0.71998  1.0000
  O   O11       1.0  0.06102  0.77904  0.39942  1.0000
  O   O12       1.0  0.93898  0.22096  0.60058  1.0000
  C   C9        1.0  0.40730  0.72468  0.29357  1.0000
  C   C10       1.0  0.59270  0.27532  0.70643  1.0000
  O   O13       1.0  0.41267  0.20664  0.92573  1.0000
  O   O14       1.0  0.58733  0.79336  0.07427  1.0000
  C   C11       1.0  0.31180  0.65030  0.23233  1.0000
  C   C12       1.0  0.68820  0.34970  0.76767  1.0000
  H   H7        1.0  0.23100  0.65380  0.22330  1.0000
  H   H8        1.0  0.76900  0.34620  0.77670  1.0000
  O   O15       1.0  0.31788  0.95770  0.51864  1.0000
  O   O16       1.0  0.68212  0.04230  0.48136  1.0000
  C   C13       1.0  0.33320  0.57033  0.18380  1.0000
  C   C14       1.0  0.66680  0.42967  0.81620  1.0000
  H   H9        1.0  0.26760  0.51980  0.14080  1.0000
  H   H10       1.0  0.73240  0.48020  0.85920  1.0000
  O   O17       1.0  0.14208  0.98341  0.50798  1.0000
  O   O18       1.0  0.85792  0.01659  0.49202  1.0000
  C   C15       1.0  0.38490  0.81021  0.34962  1.0000
  C   C16       1.0  0.61510  0.18979  0.65038  1.0000
  O   O19       1.0  0.35888  0.23414  0.11532  1.0000
  O   O20       1.0  0.64112  0.76586  0.88468  1.0000
  C   C17       1.0  0.57830  0.38177  0.04456  1.0000
  C   C18       1.0  0.42170  0.61823  0.95544  1.0000
  H   H11       1.0  0.59270  0.33750  0.99310  1.0000
  H   H12       1.0  0.40730  0.66250  0.00690  1.0000
  H   H13       1.0  0.57640  0.43730  0.03110  1.0000
  H   H14       1.0  0.42360  0.56270  0.96890  1.0000
  O   O21       1.0  0.22539  0.99839  0.34592  1.0000
  O   O22       1.0  0.77461  0.00161  0.65408  1.0000
  C   C19       1.0  0.75110  0.49254  0.16713  1.0000
  C   C20       1.0  0.24890  0.50746  0.83287  1.0000
  O   O23       1.0  0.42798  0.04001  0.39641  1.0000
  O   O24       1.0  0.57202  0.95999  0.60359  1.0000
  C   C21       1.0  0.78570  0.55092  0.12457  1.0000
  C   C22       1.0  0.21430  0.44908  0.87543  1.0000
  H   H15       1.0  0.75380  0.53180  0.06120  1.0000
  H   H16       1.0  0.24620  0.46820  0.93880  1.0000
  C   C23       1.0  0.86660  0.63703  0.17378  1.0000
  C   C24       1.0  0.13340  0.36297  0.82622  1.0000
  H   H17       1.0  0.88930  0.67720  0.14400  1.0000
  H   H18       1.0  0.11070  0.32280  0.85600  1.0000
  C   C25       1.0  0.91520  0.66578  0.26591  1.0000
  C   C26       1.0  0.08480  0.33422  0.73409  1.0000
  C   C27       1.0  0.88260  0.60589  0.30788  1.0000
  C   C28       1.0  0.11740  0.39411  0.69212  1.0000
  H   H19       1.0  0.91670  0.62400  0.37100  1.0000
  H   H20       1.0  0.08330  0.37600  0.62900  1.0000
  C   C29       1.0  0.80060  0.51951  0.25840  1.0000
  C   C30       1.0  0.19940  0.48049  0.74160  1.0000
  H   H21       1.0  0.77850  0.47870  0.28780  1.0000
  H   H22       1.0  0.22150  0.52130  0.71220  1.0000
  C   C31       1.0  0.00590  0.75844  0.31817  1.0000
  C   C32       1.0  0.99410  0.24156  0.68183  1.0000
  C   C33       1.0  0.36730  0.28085  0.96340  1.0000
  C   C34       1.0  0.63270  0.71915  0.03660  1.0000
  H   H23       1.0  0.28520  0.25730  0.96860  1.0000
  H   H24       1.0  0.71480  0.74270  0.03140  1.0000
  H   H25       1.0  0.36220  0.31730  0.92480  1.0000
  H   H26       1.0  0.63780  0.68270  0.07520  1.0000
  C   C35       1.0  0.36410  0.15509  0.83597  1.0000
  C   C36       1.0  0.63590  0.84491  0.16403  1.0000
  C   C37       1.0  0.43250  0.10170  0.79851  1.0000
  C   C38       1.0  0.56750  0.89830  0.20149  1.0000
  H   H27       1.0  0.50570  0.10130  0.83540  1.0000
  H   H28       1.0  0.49430  0.89870  0.16460  1.0000
  C   C39       1.0  0.39380  0.04945  0.70768  1.0000
  C   C40       1.0  0.60620  0.95055  0.29232  1.0000
  H   H29       1.0  0.44120  0.01380  0.68180  1.0000
  H   H30       1.0  0.55880  0.98620  0.31820  1.0000
  C   C41       1.0  0.28590  0.04870  0.65383  1.0000
  C   C42       1.0  0.71410  0.95130  0.34617  1.0000
  C   C43       1.0  0.21600  0.09967  0.69262  1.0000
  C   C44       1.0  0.78400  0.90033  0.30738  1.0000
  H   H31       1.0  0.14040  0.09730  0.65630  1.0000
  H   H32       1.0  0.85960  0.90270  0.34370  1.0000
  C   C45       1.0  0.25500  0.15402  0.78368  1.0000
  C   C46       1.0  0.74500  0.84598  0.21632  1.0000
  H   H33       1.0  0.20780  0.18980  0.80970  1.0000
  H   H34       1.0  0.79220  0.81020  0.19030  1.0000
  C   C47       1.0  0.24680  0.99451  0.55544  1.0000
  C   C48       1.0  0.75320  0.00549  0.44456  1.0000
  C   C49       1.0  0.47450  0.28245  0.11355  1.0000
  C   C50       1.0  0.52550  0.71755  0.88645  1.0000
  H   H35       1.0  0.51690  0.23840  0.08800  1.0000
  H   H36       1.0  0.48310  0.76160  0.91200  1.0000
  H   H37       1.0  0.52510  0.32280  0.17560  1.0000
  H   H38       1.0  0.47490  0.67720  0.82440  1.0000
  C   C51       1.0  0.35860  0.18661  0.17142  1.0000
  C   C52       1.0  0.64140  0.81339  0.82858  1.0000
  C   C53       1.0  0.24580  0.14092  0.17276  1.0000
  C   C54       1.0  0.75420  0.85908  0.82724  1.0000
  H   H39       1.0  0.17440  0.14290  0.13510  1.0000
  H   H40       1.0  0.82560  0.85710  0.86490  1.0000
  C   C55       1.0  0.23630  0.09262  0.22814  1.0000
  C   C56       1.0  0.76370  0.90738  0.77186  1.0000
  H   H41       1.0  0.15800  0.06070  0.22770  1.0000
  H   H42       1.0  0.84200  0.93930  0.77230  1.0000
  C   C57       1.0  0.33950  0.08960  0.28500  1.0000
  C   C58       1.0  0.66050  0.91040  0.71500  1.0000
  C   C59       1.0  0.45100  0.13523  0.28256  1.0000
  C   C60       1.0  0.54900  0.86477  0.71744  1.0000
  H   H43       1.0  0.52240  0.13340  0.32040  1.0000
  H   H44       1.0  0.47760  0.86660  0.67960  1.0000
  C   C61       1.0  0.46280  0.18390  0.22667  1.0000
  C   C62       1.0  0.53720  0.81610  0.77333  1.0000
  H   H45       1.0  0.54100  0.21490  0.22620  1.0000
  H   H46       1.0  0.45900  0.78510  0.77380  1.0000
  C   C63       1.0  0.33110  0.03895  0.34763  1.0000
  C   C64       1.0  0.66890  0.96105  0.65237  1.0000
  C   C65       1.0  0.52400  0.71879  0.30390  1.0000
  C   C66       1.0  0.47600  0.28121  0.69610  1.0000
  H   H47       1.0  0.59050  0.77080  0.34330  1.0000
  H   H48       1.0  0.40950  0.22920  0.65670  1.0000
