data_image0
_chemical_formula_structural       Cr2Na2C2H2C2H2C2H2C2H2C2H2C2H2O24
_chemical_formula_sum              "Cr2 Na2 C12 H12 O24"
_cell_length_a       7.9904
_cell_length_b       8.6379
_cell_length_c       11.532
_cell_angle_alpha    90
_cell_angle_beta     90.525
_cell_angle_gamma    90

_space_group_name_H-M_alt    "P 1"
_space_group_IT_number       1

loop_
  _space_group_symop_operation_xyz
  'x, y, z'

loop_
  _atom_site_type_symbol
  _atom_site_label
  _atom_site_symmetry_multiplicity
  _atom_site_fract_x
  _atom_site_fract_y
  _atom_site_fract_z
  _atom_site_occupancy
  Cr  Cr1       1.0  0.58257  0.78632  0.50150  1.0000
  Cr  Cr2       1.0  0.08257  0.21368  0.00150  1.0000
  Na  Na1       1.0  0.07920  0.28590  0.50200  1.0000
  Na  Na2       1.0  0.57920  0.71410  0.00200  1.0000
  C   C1        1.0  0.86120  0.57570  0.52900  1.0000
  C   C2        1.0  0.36120  0.42430  0.02900  1.0000
  H   H1        1.0  0.81868  0.53112  0.46187  1.0000
  H   H2        1.0  0.31868  0.46888  0.96187  1.0000
  C   C3        1.0  0.64800  0.75520  0.25700  1.0000
  C   C4        1.0  0.14800  0.24480  0.75700  1.0000
  H   H3        1.0  0.53624  0.72579  0.25122  1.0000
  H   H4        1.0  0.03624  0.27421  0.75122  1.0000
  C   C5        1.0  0.35410  0.52930  0.47000  1.0000
  C   C6        1.0  0.85410  0.47070  0.97000  1.0000
  H   H5        1.0  0.28647  0.58083  0.52278  1.0000
  H   H6        1.0  0.78647  0.41917  0.02278  1.0000
  C   C7        1.0  0.51420  0.75150  0.74200  1.0000
  C   C8        1.0  0.01420  0.24850  0.24200  1.0000
  H   H7        1.0  0.62844  0.76894  0.75075  1.0000
  H   H8        1.0  0.12844  0.23106  0.25075  1.0000
  C   C9        1.0  0.79160  0.05990  0.52600  1.0000
  C   C10       1.0  0.29160  0.94010  0.02600  1.0000
  H   H9        1.0  0.85264  0.02112  0.46372  1.0000
  H   H10       1.0  0.35264  0.97888  0.96372  1.0000
  C   C11       1.0  0.30760  0.99910  0.47300  1.0000
  C   C12       1.0  0.80760  0.00090  0.97300  1.0000
  H   H11       1.0  0.35604  0.04871  0.53617  1.0000
  H   H12       1.0  0.85604  0.95129  0.03617  1.0000
  O   O1        1.0  0.78390  0.69240  0.57330  1.0000
  O   O2        1.0  0.28390  0.30760  0.07330  1.0000
  O   O3        1.0  0.98940  0.52060  0.57340  1.0000
  O   O4        1.0  0.48940  0.47940  0.07340  1.0000
  O   O5        1.0  0.70750  0.80180  0.35900  1.0000
  O   O6        1.0  0.20750  0.19820  0.85900  1.0000
  O   O7        1.0  0.72940  0.74980  0.17600  1.0000
  O   O8        1.0  0.22940  0.25020  0.67600  1.0000
  O   O9        1.0  0.49900  0.58470  0.44810  1.0000
  O   O10       1.0  0.99900  0.41530  0.94810  1.0000
  O   O11       1.0  0.30240  0.41350  0.42500  1.0000
  O   O12       1.0  0.80240  0.58650  0.92500  1.0000
  O   O13       1.0  0.45740  0.76510  0.64800  1.0000
  O   O14       1.0  0.95740  0.23490  0.14800  1.0000
  O   O15       1.0  0.43220  0.71430  0.83500  1.0000
  O   O16       1.0  0.93220  0.28570  0.33500  1.0000
  O   O17       1.0  0.66080  0.98730  0.55810  1.0000
  O   O18       1.0  0.16080  0.01270  0.05810  1.0000
  O   O19       1.0  0.83940  0.17940  0.57360  1.0000
  O   O20       1.0  0.33940  0.82060  0.07360  1.0000
  O   O21       1.0  0.38510  0.88480  0.43080  1.0000
  O   O22       1.0  0.88510  0.11520  0.93080  1.0000
  O   O23       1.0  0.17390  0.05010  0.43620  1.0000
  O   O24       1.0  0.67390  0.94990  0.93620  1.0000
