data_image0
_chemical_formula_structural       Cr2Na2C4H4C4H4C4H4O24
_chemical_formula_sum              "Cr2 Na2 C12 H12 O24"
_cell_length_a       8.1133
_cell_length_b       7.9779
_cell_length_c       11.891
_cell_angle_alpha    90
_cell_angle_beta     86.024
_cell_angle_gamma    90

_space_group_name_H-M_alt    "P 1"
_space_group_IT_number       1

loop_
  _space_group_symop_operation_xyz
  'x, y, z'

loop_
  _atom_site_type_symbol
  _atom_site_label
  _atom_site_symmetry_multiplicity
  _atom_site_fract_x
  _atom_site_fract_y
  _atom_site_fract_z
  _atom_site_occupancy
  Cr  Cr1       1.0  0.50000  0.50000  0.50000  1.0000
  Cr  Cr2       1.0  0.00000  0.00000  0.00000  1.0000
  Na  Na1       1.0  0.00000  0.00000  0.50000  1.0000
  Na  Na2       1.0  0.50000  0.50000  0.00000  1.0000
  C   C1        1.0  0.56530  0.49430  0.26120  1.0000
  C   C2        1.0  0.93470  0.99430  0.23880  1.0000
  C   C3        1.0  0.43470  0.50570  0.73880  1.0000
  C   C4        1.0  0.06530  0.00570  0.76120  1.0000
  H   H1        1.0  0.46500  0.43752  0.26390  1.0000
  H   H2        1.0  0.03500  0.93752  0.23610  1.0000
  H   H3        1.0  0.53500  0.56248  0.73610  1.0000
  H   H4        1.0  0.96500  0.06248  0.76390  1.0000
  C   C5        1.0  0.68650  0.80620  0.51950  1.0000
  C   C6        1.0  0.81350  0.30620  0.98050  1.0000
  C   C7        1.0  0.31350  0.19380  0.48050  1.0000
  C   C8        1.0  0.18650  0.69380  0.01950  1.0000
  H   H5        1.0  0.75843  0.75755  0.46453  1.0000
  H   H6        1.0  0.74157  0.25755  0.03547  1.0000
  H   H7        1.0  0.24157  0.24245  0.53547  1.0000
  H   H8        1.0  0.25843  0.74245  0.96453  1.0000
  C   C9        1.0  0.19940  0.68660  0.48020  1.0000
  C   C10       1.0  0.30060  0.18660  0.01980  1.0000
  C   C11       1.0  0.80060  0.31340  0.51980  1.0000
  C   C12       1.0  0.69940  0.81340  0.98020  1.0000
  H   H9        1.0  0.23318  0.74801  0.54100  1.0000
  H   H10       1.0  0.26682  0.24801  0.95900  1.0000
  H   H11       1.0  0.76682  0.25199  0.45900  1.0000
  H   H12       1.0  0.73318  0.75199  0.04100  1.0000
  O   O1        1.0  0.62030  0.53360  0.35340  1.0000
  O   O2        1.0  0.87970  0.03360  0.14660  1.0000
  O   O3        1.0  0.37970  0.46640  0.64660  1.0000
  O   O4        1.0  0.12030  0.96640  0.85340  1.0000
  O   O5        1.0  0.63180  0.52400  0.16770  1.0000
  O   O6        1.0  0.86820  0.02400  0.33230  1.0000
  O   O7        1.0  0.36820  0.47600  0.83230  1.0000
  O   O8        1.0  0.13180  0.97600  0.66770  1.0000
  O   O9        1.0  0.55060  0.72930  0.54730  1.0000
  O   O10       1.0  0.94940  0.22930  0.95270  1.0000
  O   O11       1.0  0.44940  0.27070  0.45270  1.0000
  O   O12       1.0  0.05060  0.77070  0.04730  1.0000
  O   O13       1.0  0.72650  0.93620  0.55960  1.0000
  O   O14       1.0  0.77350  0.43620  0.94040  1.0000
  O   O15       1.0  0.27350  0.06380  0.44040  1.0000
  O   O16       1.0  0.22650  0.56380  0.05960  1.0000
  O   O17       1.0  0.29360  0.57250  0.44150  1.0000
  O   O18       1.0  0.20640  0.07250  0.05850  1.0000
  O   O19       1.0  0.70640  0.42750  0.55850  1.0000
  O   O20       1.0  0.79360  0.92750  0.94150  1.0000
  O   O21       1.0  0.06460  0.72370  0.44350  1.0000
  O   O22       1.0  0.43540  0.22370  0.05650  1.0000
  O   O23       1.0  0.93540  0.27630  0.55650  1.0000
  O   O24       1.0  0.56460  0.77630  0.94350  1.0000
