data_image0
_chemical_formula_structural       Cr2Na2C2H2C2H2C2H2C2H2C2H2C2H2O24
_chemical_formula_sum              "Cr2 Na2 C12 H12 O24"
_cell_length_a       8.0271
_cell_length_b       8.8885
_cell_length_c       11.722
_cell_angle_alpha    90
_cell_angle_beta     90.906
_cell_angle_gamma    90

_space_group_name_H-M_alt    "P 1"
_space_group_IT_number       1

loop_
  _space_group_symop_operation_xyz
  'x, y, z'

loop_
  _atom_site_type_symbol
  _atom_site_label
  _atom_site_symmetry_multiplicity
  _atom_site_fract_x
  _atom_site_fract_y
  _atom_site_fract_z
  _atom_site_occupancy
  Cr  Cr1       1.0  0.58281  0.78089  0.50173  1.0000
  Cr  Cr2       1.0  0.08281  0.21911  0.00173  1.0000
  Na  Na1       1.0  0.07900  0.28060  0.50310  1.0000
  Na  Na2       1.0  0.57900  0.71940  0.00310  1.0000
  C   C1        1.0  0.85920  0.57210  0.53080  1.0000
  C   C2        1.0  0.35920  0.42790  0.03080  1.0000
  H   H1        1.0  0.81911  0.53008  0.46308  1.0000
  H   H2        1.0  0.31911  0.46992  0.96308  1.0000
  C   C3        1.0  0.64780  0.76160  0.25900  1.0000
  C   C4        1.0  0.14780  0.23840  0.75900  1.0000
  H   H3        1.0  0.53729  0.73052  0.25386  1.0000
  H   H4        1.0  0.03729  0.26948  0.75386  1.0000
  C   C5        1.0  0.35410  0.53000  0.47260  1.0000
  C   C6        1.0  0.85410  0.47000  0.97260  1.0000
  H   H5        1.0  0.28958  0.58139  0.52501  1.0000
  H   H6        1.0  0.78958  0.41861  0.02501  1.0000
  C   C7        1.0  0.51470  0.74960  0.74200  1.0000
  C   C8        1.0  0.01470  0.25040  0.24200  1.0000
  H   H7        1.0  0.62697  0.77215  0.75235  1.0000
  H   H8        1.0  0.12697  0.22785  0.25235  1.0000
  C   C9        1.0  0.79190  0.04950  0.52510  1.0000
  C   C10       1.0  0.29190  0.95050  0.02510  1.0000
  H   H9        1.0  0.85139  0.01208  0.46382  1.0000
  H   H10       1.0  0.35139  0.98792  0.96382  1.0000
  C   C11       1.0  0.30990  0.99270  0.47510  1.0000
  C   C12       1.0  0.80990  0.00730  0.97510  1.0000
  H   H11       1.0  0.35414  0.03720  0.54063  1.0000
  H   H12       1.0  0.85414  0.96280  0.04063  1.0000
  O   O1        1.0  0.78160  0.68370  0.56980  1.0000
  O   O2        1.0  0.28160  0.31630  0.06980  1.0000
  O   O3        1.0  0.98390  0.51420  0.57520  1.0000
  O   O4        1.0  0.48390  0.48580  0.07520  1.0000
  O   O5        1.0  0.70670  0.79790  0.36070  1.0000
  O   O6        1.0  0.20670  0.20210  0.86070  1.0000
  O   O7        1.0  0.72460  0.76550  0.17340  1.0000
  O   O8        1.0  0.22460  0.23450  0.67340  1.0000
  O   O9        1.0  0.49580  0.58560  0.44690  1.0000
  O   O10       1.0  0.99580  0.41440  0.94690  1.0000
  O   O11       1.0  0.29940  0.41410  0.43250  1.0000
  O   O12       1.0  0.79940  0.58590  0.93250  1.0000
  O   O13       1.0  0.45700  0.75780  0.64320  1.0000
  O   O14       1.0  0.95700  0.24220  0.14320  1.0000
  O   O15       1.0  0.43400  0.71350  0.82840  1.0000
  O   O16       1.0  0.93400  0.28650  0.32840  1.0000
  O   O17       1.0  0.66550  0.97530  0.55840  1.0000
  O   O18       1.0  0.16550  0.02470  0.05840  1.0000
  O   O19       1.0  0.83870  0.16600  0.56880  1.0000
  O   O20       1.0  0.33870  0.83400  0.06880  1.0000
  O   O21       1.0  0.38560  0.88080  0.43370  1.0000
  O   O22       1.0  0.88560  0.11920  0.93370  1.0000
  O   O23       1.0  0.18010  0.04630  0.43320  1.0000
  O   O24       1.0  0.68010  0.95370  0.93320  1.0000
