data_image0
_chemical_formula_structural       Cr2Na2C2H2C2H2C2H2C2H2C2H2C2H2O24
_chemical_formula_sum              "Cr2 Na2 C12 H12 O24"
_cell_length_a       8.01346
_cell_length_b       8.80029
_cell_length_c       11.657
_cell_angle_alpha    90
_cell_angle_beta     90.821
_cell_angle_gamma    90

_space_group_name_H-M_alt    "P 1"
_space_group_IT_number       1

loop_
  _space_group_symop_operation_xyz
  'x, y, z'

loop_
  _atom_site_type_symbol
  _atom_site_label
  _atom_site_symmetry_multiplicity
  _atom_site_fract_x
  _atom_site_fract_y
  _atom_site_fract_z
  _atom_site_occupancy
  Cr  Cr1       1.0  0.58282  0.78295  0.50170  1.0000
  Cr  Cr2       1.0  0.08282  0.21705  0.00170  1.0000
  Na  Na1       1.0  0.07930  0.28260  0.50240  1.0000
  Na  Na2       1.0  0.57930  0.71740  0.00240  1.0000
  C   C1        1.0  0.85960  0.57440  0.53000  1.0000
  C   C2        1.0  0.35960  0.42560  0.03000  1.0000
  H   H1        1.0  0.81938  0.53276  0.46173  1.0000
  H   H2        1.0  0.31938  0.46724  0.96173  1.0000
  C   C3        1.0  0.64750  0.75990  0.25700  1.0000
  C   C4        1.0  0.14750  0.24010  0.75700  1.0000
  H   H3        1.0  0.53642  0.72983  0.25108  1.0000
  H   H4        1.0  0.03642  0.27017  0.75108  1.0000
  C   C5        1.0  0.35440  0.52960  0.47210  1.0000
  C   C6        1.0  0.85440  0.47040  0.97210  1.0000
  H   H5        1.0  0.28911  0.58101  0.52476  1.0000
  H   H6        1.0  0.78911  0.41899  0.02476  1.0000
  C   C7        1.0  0.51430  0.75030  0.74300  1.0000
  C   C8        1.0  0.01430  0.24970  0.24300  1.0000
  H   H7        1.0  0.62729  0.77094  0.75394  1.0000
  H   H8        1.0  0.12729  0.22906  0.25394  1.0000
  C   C9        1.0  0.79220  0.05480  0.52610  1.0000
  C   C10       1.0  0.29220  0.94520  0.02610  1.0000
  H   H9        1.0  0.85238  0.01786  0.46444  1.0000
  H   H10       1.0  0.35238  0.98214  0.96444  1.0000
  C   C11       1.0  0.30920  0.99480  0.47500  1.0000
  C   C12       1.0  0.80920  0.00520  0.97500  1.0000
  H   H11       1.0  0.35422  0.03949  0.54082  1.0000
  H   H12       1.0  0.85422  0.96051  0.04082  1.0000
  O   O1        1.0  0.78220  0.68610  0.57110  1.0000
  O   O2        1.0  0.28220  0.31390  0.07110  1.0000
  O   O3        1.0  0.98600  0.51630  0.57460  1.0000
  O   O4        1.0  0.48600  0.48370  0.07460  1.0000
  O   O5        1.0  0.70680  0.79940  0.36010  1.0000
  O   O6        1.0  0.20680  0.20060  0.86010  1.0000
  O   O7        1.0  0.72620  0.76050  0.17340  1.0000
  O   O8        1.0  0.22620  0.23950  0.67340  1.0000
  O   O9        1.0  0.49740  0.58530  0.44830  1.0000
  O   O10       1.0  0.99740  0.41470  0.94830  1.0000
  O   O11       1.0  0.29890  0.41370  0.43000  1.0000
  O   O12       1.0  0.79890  0.58630  0.93000  1.0000
  O   O13       1.0  0.45630  0.75970  0.64490  1.0000
  O   O14       1.0  0.95630  0.24030  0.14490  1.0000
  O   O15       1.0  0.43280  0.71510  0.82950  1.0000
  O   O16       1.0  0.93280  0.28490  0.32950  1.0000
  O   O17       1.0  0.66430  0.97960  0.55840  1.0000
  O   O18       1.0  0.16430  0.02040  0.05840  1.0000
  O   O19       1.0  0.83850  0.17030  0.57100  1.0000
  O   O20       1.0  0.33850  0.82970  0.07100  1.0000
  O   O21       1.0  0.38490  0.88170  0.43100  1.0000
  O   O22       1.0  0.88490  0.11830  0.93100  1.0000
  O   O23       1.0  0.17820  0.04740  0.43350  1.0000
  O   O24       1.0  0.67820  0.95260  0.93350  1.0000
