data_image0
_chemical_formula_structural       Cr2Na2C2H2C2H2C2H2C2H2C2H2C2H2O24
_chemical_formula_sum              "Cr2 Na2 C12 H12 O24"
_cell_length_a       8.1137
_cell_length_b       9.2703
_cell_length_c       12.045
_cell_angle_alpha    90
_cell_angle_beta     91.173
_cell_angle_gamma    90

_space_group_name_H-M_alt    "P 1"
_space_group_IT_number       1

loop_
  _space_group_symop_operation_xyz
  'x, y, z'

loop_
  _atom_site_type_symbol
  _atom_site_label
  _atom_site_symmetry_multiplicity
  _atom_site_fract_x
  _atom_site_fract_y
  _atom_site_fract_z
  _atom_site_occupancy
  Cr  Cr1       1.0  0.58255  0.77104  0.50187  1.0000
  Cr  Cr2       1.0  0.08255  0.22896  0.00187  1.0000
  Na  Na1       1.0  0.07910  0.27000  0.50330  1.0000
  Na  Na2       1.0  0.57910  0.73000  0.00330  1.0000
  C   C1        1.0  0.85420  0.56520  0.53310  1.0000
  C   C2        1.0  0.35420  0.43480  0.03310  1.0000
  H   H1        1.0  0.81654  0.52569  0.46629  1.0000
  H   H2        1.0  0.31654  0.47431  0.96629  1.0000
  C   C3        1.0  0.64410  0.76650  0.26400  1.0000
  C   C4        1.0  0.14410  0.23350  0.76400  1.0000
  H   H3        1.0  0.53546  0.73503  0.25714  1.0000
  H   H4        1.0  0.03546  0.26497  0.75714  1.0000
  C   C5        1.0  0.35440  0.52830  0.47500  1.0000
  C   C6        1.0  0.85440  0.47170  0.97500  1.0000
  H   H5        1.0  0.28923  0.57941  0.52400  1.0000
  H   H6        1.0  0.78923  0.42059  0.02400  1.0000
  C   C7        1.0  0.51760  0.74770  0.73700  1.0000
  C   C8        1.0  0.01760  0.25230  0.23700  1.0000
  H   H7        1.0  0.62679  0.77596  0.74769  1.0000
  H   H8        1.0  0.12679  0.22404  0.24769  1.0000
  C   C9        1.0  0.79330  0.02810  0.52420  1.0000
  C   C10       1.0  0.29330  0.97190  0.02420  1.0000
  H   H9        1.0  0.85268  0.98978  0.46592  1.0000
  H   H10       1.0  0.35268  0.01022  0.96592  1.0000
  C   C11       1.0  0.31370  0.97840  0.47480  1.0000
  C   C12       1.0  0.81370  0.02160  0.97480  1.0000
  H   H11       1.0  0.35403  0.01774  0.54101  1.0000
  H   H12       1.0  0.85403  0.98226  0.04101  1.0000
  O   O1        1.0  0.77880  0.67390  0.56900  1.0000
  O   O2        1.0  0.27880  0.32610  0.06900  1.0000
  O   O3        1.0  0.97530  0.50620  0.57990  1.0000
  O   O4        1.0  0.47530  0.49380  0.07990  1.0000
  O   O5        1.0  0.70200  0.79070  0.36110  1.0000
  O   O6        1.0  0.20200  0.20930  0.86110  1.0000
  O   O7        1.0  0.71990  0.78130  0.17850  1.0000
  O   O8        1.0  0.21990  0.21870  0.67850  1.0000
  O   O9        1.0  0.49340  0.58410  0.44720  1.0000
  O   O10       1.0  0.99340  0.41590  0.94720  1.0000
  O   O11       1.0  0.30380  0.41240  0.44060  1.0000
  O   O12       1.0  0.80380  0.58760  0.94060  1.0000
  O   O13       1.0  0.46100  0.74650  0.64180  1.0000
  O   O14       1.0  0.96100  0.25350  0.14180  1.0000
  O   O15       1.0  0.43920  0.71390  0.82120  1.0000
  O   O16       1.0  0.93920  0.28610  0.32120  1.0000
  O   O17       1.0  0.66810  0.95740  0.55930  1.0000
  O   O18       1.0  0.16810  0.04260  0.05930  1.0000
  O   O19       1.0  0.83770  0.14340  0.56410  1.0000
  O   O20       1.0  0.33770  0.85660  0.06410  1.0000
  O   O21       1.0  0.38640  0.86970  0.43540  1.0000
  O   O22       1.0  0.88640  0.13030  0.93540  1.0000
  O   O23       1.0  0.18930  0.03590  0.42890  1.0000
  O   O24       1.0  0.68930  0.96410  0.92890  1.0000
