data_image0
_chemical_formula_structural       Cr2Na2C4H4C4H4C4H4O24
_chemical_formula_sum              "Cr2 Na2 C12 H12 O24"
_cell_length_a       8.0012
_cell_length_b       7.8208
_cell_length_c       11.817
_cell_angle_alpha    90
_cell_angle_beta     86.37
_cell_angle_gamma    90

_space_group_name_H-M_alt    "P 1"
_space_group_IT_number       1

loop_
  _space_group_symop_operation_xyz
  'x, y, z'

loop_
  _atom_site_type_symbol
  _atom_site_label
  _atom_site_symmetry_multiplicity
  _atom_site_fract_x
  _atom_site_fract_y
  _atom_site_fract_z
  _atom_site_occupancy
  Cr  Cr1       1.0  0.50000  0.50000  0.50000  1.0000
  Cr  Cr2       1.0  0.00000  0.00000  0.00000  1.0000
  Na  Na1       1.0  0.00000  0.00000  0.50000  1.0000
  Na  Na2       1.0  0.50000  0.50000  0.00000  1.0000
  C   C1        1.0  0.56730  0.48540  0.26170  1.0000
  C   C2        1.0  0.93270  0.98540  0.23830  1.0000
  C   C3        1.0  0.43270  0.51460  0.73830  1.0000
  C   C4        1.0  0.06730  0.01460  0.76170  1.0000
  H   H1        1.0  0.47194  0.41713  0.26569  1.0000
  H   H2        1.0  0.02806  0.91713  0.23431  1.0000
  H   H3        1.0  0.52806  0.58287  0.73431  1.0000
  H   H4        1.0  0.97194  0.08287  0.76569  1.0000
  C   C5        1.0  0.68150  0.81180  0.51570  1.0000
  C   C6        1.0  0.81850  0.31180  0.98430  1.0000
  C   C7        1.0  0.31850  0.18820  0.48430  1.0000
  C   C8        1.0  0.18150  0.68820  0.01570  1.0000
  H   H5        1.0  0.74819  0.76738  0.45537  1.0000
  H   H6        1.0  0.75181  0.26738  0.04463  1.0000
  H   H7        1.0  0.25181  0.23262  0.54463  1.0000
  H   H8        1.0  0.24819  0.73262  0.95537  1.0000
  C   C9        1.0  0.19500  0.68260  0.48160  1.0000
  C   C10       1.0  0.30500  0.18260  0.01840  1.0000
  C   C11       1.0  0.80500  0.31740  0.51840  1.0000
  C   C12       1.0  0.69500  0.81740  0.98160  1.0000
  H   H9        1.0  0.23123  0.74493  0.54241  1.0000
  H   H10       1.0  0.26877  0.24493  0.95759  1.0000
  H   H11       1.0  0.76877  0.25507  0.45759  1.0000
  H   H12       1.0  0.73123  0.75507  0.04241  1.0000
  O   O1        1.0  0.62100  0.53570  0.35280  1.0000
  O   O2        1.0  0.87900  0.03570  0.14720  1.0000
  O   O3        1.0  0.37900  0.46430  0.64720  1.0000
  O   O4        1.0  0.12100  0.96430  0.85280  1.0000
  O   O5        1.0  0.63130  0.51930  0.16710  1.0000
  O   O6        1.0  0.86870  0.01930  0.33290  1.0000
  O   O7        1.0  0.36870  0.48070  0.83290  1.0000
  O   O8        1.0  0.13130  0.98070  0.66710  1.0000
  O   O9        1.0  0.72640  0.94240  0.56050  1.0000
  O   O10       1.0  0.77360  0.44240  0.93950  1.0000
  O   O11       1.0  0.27360  0.05760  0.43950  1.0000
  O   O12       1.0  0.22640  0.55760  0.06050  1.0000
  O   O13       1.0  0.54840  0.73340  0.54710  1.0000
  O   O14       1.0  0.95160  0.23340  0.95290  1.0000
  O   O15       1.0  0.45160  0.26660  0.45290  1.0000
  O   O16       1.0  0.04840  0.76660  0.04710  1.0000
  O   O17       1.0  0.05660  0.72030  0.44860  1.0000
  O   O18       1.0  0.44340  0.22030  0.05140  1.0000
  O   O19       1.0  0.94340  0.27970  0.55140  1.0000
  O   O20       1.0  0.55660  0.77970  0.94860  1.0000
  O   O21       1.0  0.29040  0.57030  0.44190  1.0000
  O   O22       1.0  0.20960  0.07030  0.05810  1.0000
  O   O23       1.0  0.70960  0.42970  0.55810  1.0000
  O   O24       1.0  0.79040  0.92970  0.94190  1.0000
