data_image0
_chemical_formula_structural       Cr2Na2C2H2C2H2C2H2C2H2C2H2C2H2O24
_chemical_formula_sum              "Cr2 Na2 C12 H12 O24"
_cell_length_a       8.0675
_cell_length_b       9.0842
_cell_length_c       11.893
_cell_angle_alpha    90
_cell_angle_beta     91.055
_cell_angle_gamma    90

_space_group_name_H-M_alt    "P 1"
_space_group_IT_number       1

loop_
  _space_group_symop_operation_xyz
  'x, y, z'

loop_
  _atom_site_type_symbol
  _atom_site_label
  _atom_site_symmetry_multiplicity
  _atom_site_fract_x
  _atom_site_fract_y
  _atom_site_fract_z
  _atom_site_occupancy
  Cr  Cr1       1.0  0.58280  0.77631  0.50201  1.0000
  Cr  Cr2       1.0  0.08280  0.22369  0.00201  1.0000
  Na  Na1       1.0  0.07860  0.27560  0.50380  1.0000
  Na  Na2       1.0  0.57860  0.72440  0.00380  1.0000
  C   C1        1.0  0.85830  0.56920  0.53100  1.0000
  C   C2        1.0  0.35830  0.43080  0.03100  1.0000
  H   H1        1.0  0.82083  0.53036  0.46278  1.0000
  H   H2        1.0  0.32083  0.46964  0.96278  1.0000
  C   C3        1.0  0.64460  0.76450  0.25900  1.0000
  C   C4        1.0  0.14460  0.23550  0.75900  1.0000
  H   H3        1.0  0.53488  0.73381  0.25199  1.0000
  H   H4        1.0  0.03488  0.26619  0.75199  1.0000
  C   C5        1.0  0.35430  0.53100  0.47420  1.0000
  C   C6        1.0  0.85430  0.46900  0.97420  1.0000
  H   H5        1.0  0.29089  0.58064  0.52659  1.0000
  H   H6        1.0  0.79089  0.41936  0.02659  1.0000
  C   C7        1.0  0.51460  0.74870  0.73900  1.0000
  C   C8        1.0  0.01460  0.25130  0.23900  1.0000
  H   H7        1.0  0.62558  0.77382  0.74913  1.0000
  H   H8        1.0  0.12558  0.22618  0.24913  1.0000
  C   C9        1.0  0.79340  0.04000  0.52380  1.0000
  C   C10       1.0  0.29340  0.96000  0.02380  1.0000
  H   H9        1.0  0.85257  0.00324  0.46354  1.0000
  H   H10       1.0  0.35257  0.99676  0.96354  1.0000
  C   C11       1.0  0.31200  0.98710  0.47370  1.0000
  C   C12       1.0  0.81200  0.01290  0.97370  1.0000
  H   H11       1.0  0.35464  0.03006  0.53907  1.0000
  H   H12       1.0  0.85464  0.96994  0.03907  1.0000
  O   O1        1.0  0.78030  0.67860  0.56960  1.0000
  O   O2        1.0  0.28030  0.32140  0.06960  1.0000
  O   O3        1.0  0.97940  0.51000  0.57630  1.0000
  O   O4        1.0  0.47940  0.49000  0.07630  1.0000
  O   O5        1.0  0.70440  0.79440  0.35880  1.0000
  O   O6        1.0  0.20440  0.20560  0.85880  1.0000
  O   O7        1.0  0.72240  0.77460  0.17740  1.0000
  O   O8        1.0  0.22240  0.22540  0.67740  1.0000
  O   O9        1.0  0.49380  0.58570  0.44690  1.0000
  O   O10       1.0  0.99380  0.41430  0.94690  1.0000
  O   O11       1.0  0.30030  0.41500  0.43400  1.0000
  O   O12       1.0  0.80030  0.58500  0.93400  1.0000
  O   O13       1.0  0.45910  0.75310  0.64140  1.0000
  O   O14       1.0  0.95910  0.24690  0.14140  1.0000
  O   O15       1.0  0.43680  0.71380  0.82610  1.0000
  O   O16       1.0  0.93680  0.28620  0.32610  1.0000
  O   O17       1.0  0.66720  0.96690  0.55840  1.0000
  O   O18       1.0  0.16720  0.03310  0.05840  1.0000
  O   O19       1.0  0.83840  0.15570  0.56710  1.0000
  O   O20       1.0  0.33840  0.84430  0.06710  1.0000
  O   O21       1.0  0.38650  0.87600  0.43440  1.0000
  O   O22       1.0  0.88650  0.12400  0.93440  1.0000
  O   O23       1.0  0.18520  0.04170  0.43000  1.0000
  O   O24       1.0  0.68520  0.95830  0.93000  1.0000
