data_image0
_chemical_formula_structural       Cr2O12C12O4H4O4H4O4H4Na2
_chemical_formula_sum              "Cr2 O24 C12 H12 Na2"
_cell_length_a       8.1066
_cell_length_b       9.3455
_cell_length_c       12.1283
_cell_angle_alpha    90
_cell_angle_beta     91.062
_cell_angle_gamma    90

_space_group_name_H-M_alt    "P 1"
_space_group_IT_number       1

loop_
  _space_group_symop_operation_xyz
  'x, y, z'

loop_
  _atom_site_type_symbol
  _atom_site_label
  _atom_site_symmetry_multiplicity
  _atom_site_fract_x
  _atom_site_fract_y
  _atom_site_fract_z
  _atom_site_occupancy
  Cr  Cr1       1.0  0.00000  0.00000  0.50000  1.0000
  Cr  Cr2       1.0  0.50000  0.50000  0.00000  1.0000
  O   O1        1.0  0.11830  0.02340  0.36009  1.0000
  O   O2        1.0  0.38170  0.52340  0.13991  1.0000
  O   O3        1.0  0.88170  0.97660  0.63991  1.0000
  O   O4        1.0  0.61830  0.47660  0.86009  1.0000
  O   O5        1.0  0.19630  0.90280  0.56465  1.0000
  O   O6        1.0  0.30370  0.40280  0.93535  1.0000
  O   O7        1.0  0.80370  0.09720  0.43535  1.0000
  O   O8        1.0  0.69630  0.59720  0.06465  1.0000
  O   O9        1.0  0.08760  0.18480  0.55538  1.0000
  O   O10       1.0  0.41240  0.68480  0.94462  1.0000
  O   O11       1.0  0.91240  0.81520  0.44462  1.0000
  O   O12       1.0  0.58760  0.31520  0.05538  1.0000
  C   C1        1.0  0.06150  0.00980  0.26250  1.0000
  C   C2        1.0  0.43850  0.50980  0.23750  1.0000
  C   C3        1.0  0.93850  0.99020  0.73750  1.0000
  C   C4        1.0  0.56150  0.49020  0.76250  1.0000
  C   C5        1.0  0.26920  0.79270  0.53170  1.0000
  C   C6        1.0  0.23080  0.29270  0.96830  1.0000
  C   C7        1.0  0.73080  0.20730  0.46830  1.0000
  C   C8        1.0  0.76920  0.70730  0.03170  1.0000
  C   C9        1.0  0.21840  0.24920  0.52530  1.0000
  C   C10       1.0  0.28160  0.74920  0.97470  1.0000
  C   C11       1.0  0.78160  0.75080  0.47470  1.0000
  C   C12       1.0  0.71840  0.25080  0.02530  1.0000
  O   O13       1.0  0.13760  0.03440  0.17864  1.0000
  O   O14       1.0  0.36240  0.53440  0.32136  1.0000
  O   O15       1.0  0.86240  0.96560  0.82136  1.0000
  O   O16       1.0  0.63760  0.46560  0.67864  1.0000
  H   H1        1.0  0.95310  0.97850  0.25420  1.0000
  H   H2        1.0  0.54690  0.47850  0.24580  1.0000
  H   H3        1.0  0.04690  0.02150  0.74580  1.0000
  H   H4        1.0  0.45310  0.52150  0.75420  1.0000
  O   O17       1.0  0.38960  0.73520  0.57577  1.0000
  O   O18       1.0  0.11040  0.23520  0.92423  1.0000
  O   O19       1.0  0.61040  0.26480  0.42423  1.0000
  O   O20       1.0  0.88960  0.76480  0.07577  1.0000
  H   H5        1.0  0.22780  0.75040  0.46750  1.0000
  H   H6        1.0  0.27220  0.25040  0.03250  1.0000
  H   H7        1.0  0.77220  0.24960  0.53250  1.0000
  H   H8        1.0  0.72780  0.74960  0.96750  1.0000
  O   O21       1.0  0.26390  0.36420  0.55980  1.0000
  O   O22       1.0  0.23610  0.86420  0.94020  1.0000
  O   O23       1.0  0.73610  0.63580  0.44020  1.0000
  O   O24       1.0  0.76390  0.13580  0.05980  1.0000
  H   H9        1.0  0.28310  0.20430  0.47300  1.0000
  H   H10       1.0  0.21690  0.70430  0.02700  1.0000
  H   H11       1.0  0.71690  0.79570  0.52700  1.0000
  H   H12       1.0  0.78310  0.29570  0.97300  1.0000
  Na  Na1       1.0  0.00000  0.00000  0.00000  1.0000
  Na  Na2       1.0  0.50000  0.50000  0.50000  1.0000
