data_image0
_chemical_formula_structural       Cr2Na2C4H4C4H4C4H4O24
_chemical_formula_sum              "Cr2 Na2 C12 H12 O24"
_cell_length_a       8.0529
_cell_length_b       7.885
_cell_length_c       11.838
_cell_angle_alpha    90
_cell_angle_beta     86.22
_cell_angle_gamma    90

_space_group_name_H-M_alt    "P 1"
_space_group_IT_number       1

loop_
  _space_group_symop_operation_xyz
  'x, y, z'

loop_
  _atom_site_type_symbol
  _atom_site_label
  _atom_site_symmetry_multiplicity
  _atom_site_fract_x
  _atom_site_fract_y
  _atom_site_fract_z
  _atom_site_occupancy
  Cr  Cr1       1.0  0.50000  0.50000  0.50000  1.0000
  Cr  Cr2       1.0  0.00000  0.00000  0.00000  1.0000
  Na  Na1       1.0  0.00000  0.00000  0.50000  1.0000
  Na  Na2       1.0  0.50000  0.50000  0.00000  1.0000
  C   C1        1.0  0.56610  0.48920  0.26160  1.0000
  C   C2        1.0  0.93390  0.98920  0.23840  1.0000
  C   C3        1.0  0.43390  0.51080  0.73840  1.0000
  C   C4        1.0  0.06610  0.01080  0.76160  1.0000
  H   H1        1.0  0.46839  0.42594  0.26507  1.0000
  H   H2        1.0  0.03161  0.92594  0.23493  1.0000
  H   H3        1.0  0.53161  0.57406  0.73493  1.0000
  H   H4        1.0  0.96839  0.07406  0.76507  1.0000
  C   C5        1.0  0.68400  0.81040  0.51660  1.0000
  C   C6        1.0  0.81600  0.31040  0.98340  1.0000
  C   C7        1.0  0.31600  0.18960  0.48340  1.0000
  C   C8        1.0  0.18400  0.68960  0.01660  1.0000
  H   H5        1.0  0.75293  0.76473  0.45820  1.0000
  H   H6        1.0  0.74707  0.26473  0.04180  1.0000
  H   H7        1.0  0.24707  0.23527  0.54180  1.0000
  H   H8        1.0  0.25293  0.73527  0.95820  1.0000
  C   C9        1.0  0.19720  0.68360  0.47890  1.0000
  C   C10       1.0  0.30280  0.18360  0.02110  1.0000
  C   C11       1.0  0.80280  0.31640  0.52110  1.0000
  C   C12       1.0  0.69720  0.81640  0.97890  1.0000
  H   H9        1.0  0.23352  0.74739  0.53853  1.0000
  H   H10       1.0  0.26648  0.24739  0.96147  1.0000
  H   H11       1.0  0.76648  0.25261  0.46147  1.0000
  H   H12       1.0  0.73352  0.75261  0.03853  1.0000
  O   O1        1.0  0.61970  0.53470  0.35230  1.0000
  O   O2        1.0  0.88030  0.03470  0.14770  1.0000
  O   O3        1.0  0.38030  0.46530  0.64770  1.0000
  O   O4        1.0  0.11970  0.96530  0.85230  1.0000
  O   O5        1.0  0.63170  0.52100  0.16680  1.0000
  O   O6        1.0  0.86830  0.02100  0.33320  1.0000
  O   O7        1.0  0.36830  0.47900  0.83320  1.0000
  O   O8        1.0  0.13170  0.97900  0.66680  1.0000
  O   O9        1.0  0.72700  0.93900  0.55940  1.0000
  O   O10       1.0  0.77300  0.43900  0.94060  1.0000
  O   O11       1.0  0.27300  0.06100  0.44060  1.0000
  O   O12       1.0  0.22700  0.56100  0.05940  1.0000
  O   O13       1.0  0.54900  0.73140  0.54610  1.0000
  O   O14       1.0  0.95100  0.23140  0.95390  1.0000
  O   O15       1.0  0.45100  0.26860  0.45390  1.0000
  O   O16       1.0  0.04900  0.76860  0.04610  1.0000
  O   O17       1.0  0.06010  0.72150  0.44660  1.0000
  O   O18       1.0  0.43990  0.22150  0.05340  1.0000
  O   O19       1.0  0.93990  0.27850  0.55340  1.0000
  O   O20       1.0  0.56010  0.77850  0.94660  1.0000
  O   O21       1.0  0.29240  0.57140  0.44190  1.0000
  O   O22       1.0  0.20760  0.07140  0.05810  1.0000
  O   O23       1.0  0.70760  0.42860  0.55810  1.0000
  O   O24       1.0  0.79240  0.92860  0.94190  1.0000
