data_image0
_chemical_formula_structural       Cr2Na2C4H4C4H4C4H4O24
_chemical_formula_sum              "Cr2 Na2 C12 H12 O24"
_cell_length_a       8.0837
_cell_length_b       7.9331
_cell_length_c       11.867
_cell_angle_alpha    90
_cell_angle_beta     86.154
_cell_angle_gamma    90

_space_group_name_H-M_alt    "P 1"
_space_group_IT_number       1

loop_
  _space_group_symop_operation_xyz
  'x, y, z'

loop_
  _atom_site_type_symbol
  _atom_site_label
  _atom_site_symmetry_multiplicity
  _atom_site_fract_x
  _atom_site_fract_y
  _atom_site_fract_z
  _atom_site_occupancy
  Cr  Cr1       1.0  0.50000  0.50000  0.50000  1.0000
  Cr  Cr2       1.0  0.00000  0.00000  0.00000  1.0000
  Na  Na1       1.0  0.00000  0.00000  0.50000  1.0000
  Na  Na2       1.0  0.50000  0.50000  0.00000  1.0000
  C   C1        1.0  0.56670  0.49260  0.26110  1.0000
  C   C2        1.0  0.93330  0.99260  0.23890  1.0000
  C   C3        1.0  0.43330  0.50740  0.73890  1.0000
  C   C4        1.0  0.06670  0.00740  0.76110  1.0000
  H   H1        1.0  0.46736  0.43308  0.26410  1.0000
  H   H2        1.0  0.03264  0.93308  0.23590  1.0000
  H   H3        1.0  0.53264  0.56692  0.73590  1.0000
  H   H4        1.0  0.96736  0.06692  0.76410  1.0000
  C   C5        1.0  0.68610  0.80760  0.51900  1.0000
  C   C6        1.0  0.81390  0.30760  0.98100  1.0000
  C   C7        1.0  0.31390  0.19240  0.48100  1.0000
  C   C8        1.0  0.18610  0.69240  0.01900  1.0000
  H   H5        1.0  0.75682  0.76001  0.46270  1.0000
  H   H6        1.0  0.74318  0.26001  0.03730  1.0000
  H   H7        1.0  0.24318  0.23999  0.53730  1.0000
  H   H8        1.0  0.25682  0.73999  0.96270  1.0000
  C   C9        1.0  0.19820  0.68570  0.48010  1.0000
  C   C10       1.0  0.30180  0.18570  0.01990  1.0000
  C   C11       1.0  0.80180  0.31430  0.51990  1.0000
  C   C12       1.0  0.69820  0.81430  0.98010  1.0000
  H   H9        1.0  0.23278  0.74792  0.54061  1.0000
  H   H10       1.0  0.26722  0.24792  0.95939  1.0000
  H   H11       1.0  0.76722  0.25208  0.45939  1.0000
  H   H12       1.0  0.73278  0.75208  0.04061  1.0000
  O   O1        1.0  0.62030  0.53380  0.35340  1.0000
  O   O2        1.0  0.87970  0.03380  0.14660  1.0000
  O   O3        1.0  0.37970  0.46620  0.64660  1.0000
  O   O4        1.0  0.12030  0.96620  0.85340  1.0000
  O   O5        1.0  0.63150  0.52240  0.16730  1.0000
  O   O6        1.0  0.86850  0.02240  0.33270  1.0000
  O   O7        1.0  0.36850  0.47760  0.83270  1.0000
  O   O8        1.0  0.13150  0.97760  0.66730  1.0000
  O   O9        1.0  0.72710  0.93770  0.56070  1.0000
  O   O10       1.0  0.77290  0.43770  0.93930  1.0000
  O   O11       1.0  0.27290  0.06230  0.43930  1.0000
  O   O12       1.0  0.22710  0.56230  0.06070  1.0000
  O   O13       1.0  0.54980  0.73030  0.54790  1.0000
  O   O14       1.0  0.95020  0.23030  0.95210  1.0000
  O   O15       1.0  0.45020  0.26970  0.45210  1.0000
  O   O16       1.0  0.04980  0.76970  0.04790  1.0000
  O   O17       1.0  0.06230  0.72260  0.44430  1.0000
  O   O18       1.0  0.43770  0.22260  0.05570  1.0000
  O   O19       1.0  0.93770  0.27740  0.55570  1.0000
  O   O20       1.0  0.56230  0.77740  0.94430  1.0000
  O   O21       1.0  0.29230  0.57230  0.44180  1.0000
  O   O22       1.0  0.20770  0.07230  0.05820  1.0000
  O   O23       1.0  0.70770  0.42770  0.55820  1.0000
  O   O24       1.0  0.79230  0.92770  0.94180  1.0000
