data_image0
_chemical_formula_structural       Cr2Na2C2H2C2H2C2H2C2H2C2H2C2H2O24
_chemical_formula_sum              "Cr2 Na2 C12 H12 O24"
_cell_length_a       8.0417
_cell_length_b       8.9635
_cell_length_c       11.792
_cell_angle_alpha    90
_cell_angle_beta     90.974
_cell_angle_gamma    90

_space_group_name_H-M_alt    "P 1"
_space_group_IT_number       1

loop_
  _space_group_symop_operation_xyz
  'x, y, z'

loop_
  _atom_site_type_symbol
  _atom_site_label
  _atom_site_symmetry_multiplicity
  _atom_site_fract_x
  _atom_site_fract_y
  _atom_site_fract_z
  _atom_site_occupancy
  Cr  Cr1       1.0  0.58284  0.77907  0.50169  1.0000
  Cr  Cr2       1.0  0.08284  0.22093  0.00169  1.0000
  Na  Na1       1.0  0.07890  0.27860  0.50290  1.0000
  Na  Na2       1.0  0.57890  0.72140  0.00290  1.0000
  C   C1        1.0  0.85950  0.57130  0.53040  1.0000
  C   C2        1.0  0.35950  0.42870  0.03040  1.0000
  H   H1        1.0  0.82176  0.53193  0.46172  1.0000
  H   H2        1.0  0.32176  0.46807  0.96172  1.0000
  C   C3        1.0  0.64640  0.76330  0.25800  1.0000
  C   C4        1.0  0.14640  0.23670  0.75800  1.0000
  H   H3        1.0  0.53613  0.73288  0.25121  1.0000
  H   H4        1.0  0.03613  0.26712  0.75121  1.0000
  C   C5        1.0  0.35430  0.53050  0.47470  1.0000
  C   C6        1.0  0.85430  0.46950  0.97470  1.0000
  H   H5        1.0  0.29092  0.58089  0.52768  1.0000
  H   H6        1.0  0.79092  0.41911  0.02768  1.0000
  C   C7        1.0  0.51440  0.74900  0.74200  1.0000
  C   C8        1.0  0.01440  0.25100  0.24200  1.0000
  H   H7        1.0  0.62639  0.77192  0.75317  1.0000
  H   H8        1.0  0.12639  0.22808  0.25317  1.0000
  C   C9        1.0  0.79260  0.04550  0.52540  1.0000
  C   C10       1.0  0.29260  0.95450  0.02540  1.0000
  H   H9        1.0  0.85237  0.00739  0.46509  1.0000
  H   H10       1.0  0.35237  0.99261  0.96509  1.0000
  C   C11       1.0  0.31110  0.99120  0.47550  1.0000
  C   C12       1.0  0.81110  0.00880  0.97550  1.0000
  H   H11       1.0  0.35378  0.03487  0.54135  1.0000
  H   H12       1.0  0.85378  0.96513  0.04135  1.0000
  O   O1        1.0  0.78070  0.68120  0.56940  1.0000
  O   O2        1.0  0.28070  0.31880  0.06940  1.0000
  O   O3        1.0  0.98140  0.51190  0.57500  1.0000
  O   O4        1.0  0.48140  0.48810  0.07500  1.0000
  O   O5        1.0  0.70510  0.79630  0.36070  1.0000
  O   O6        1.0  0.20510  0.20370  0.86070  1.0000
  O   O7        1.0  0.72370  0.76980  0.17560  1.0000
  O   O8        1.0  0.22370  0.23020  0.67560  1.0000
  O   O9        1.0  0.49490  0.58510  0.44780  1.0000
  O   O10       1.0  0.99490  0.41490  0.94780  1.0000
  O   O11       1.0  0.29930  0.41480  0.43390  1.0000
  O   O12       1.0  0.79930  0.58520  0.93390  1.0000
  O   O13       1.0  0.45750  0.75550  0.64440  1.0000
  O   O14       1.0  0.95750  0.24450  0.14440  1.0000
  O   O15       1.0  0.43510  0.71480  0.82700  1.0000
  O   O16       1.0  0.93510  0.28520  0.32700  1.0000
  O   O17       1.0  0.66680  0.97150  0.55920  1.0000
  O   O18       1.0  0.16680  0.02850  0.05920  1.0000
  O   O19       1.0  0.83860  0.16200  0.56710  1.0000
  O   O20       1.0  0.33860  0.83800  0.06710  1.0000
  O   O21       1.0  0.38560  0.87910  0.43390  1.0000
  O   O22       1.0  0.88560  0.12090  0.93390  1.0000
  O   O23       1.0  0.18180  0.04450  0.43050  1.0000
  O   O24       1.0  0.68180  0.95550  0.93050  1.0000
