data_image0
_chemical_formula_structural       Al2Na2O24C2H2C2H2C2H2C2H2C2H2C2H2
_chemical_formula_sum              "Al2 Na2 O24 C12 H12"
_cell_length_a       8.0354
_cell_length_b       9.3029
_cell_length_c       12.0132
_cell_angle_alpha    90
_cell_angle_beta     90.829
_cell_angle_gamma    90

_space_group_name_H-M_alt    "P 1"
_space_group_IT_number       1

loop_
  _space_group_symop_operation_xyz
  'x, y, z'

loop_
  _atom_site_type_symbol
  _atom_site_label
  _atom_site_symmetry_multiplicity
  _atom_site_fract_x
  _atom_site_fract_y
  _atom_site_fract_z
  _atom_site_occupancy
  Al  Al1       1.0  0.16130  0.25948  0.41366  1.0000
  Al  Al2       1.0  0.66130  0.74052  0.91366  1.0000
  Na  Na1       1.0  0.15950  0.24115  0.91410  1.0000
  Na  Na2       1.0  0.65950  0.75885  0.41410  1.0000
  O   O1        1.0  0.04950  0.23720  0.55090  1.0000
  O   O2        1.0  0.54950  0.76280  0.05090  1.0000
  O   O3        1.0  0.02250  0.21580  0.73260  1.0000
  O   O4        1.0  0.52250  0.78420  0.23260  1.0000
  O   O5        1.0  0.35200  0.16280  0.47440  1.0000
  O   O6        1.0  0.85200  0.83720  0.97440  1.0000
  O   O7        1.0  0.54730  0.99660  0.49100  1.0000
  O   O8        1.0  0.04730  0.00340  0.99100  1.0000
  O   O9        1.0  0.24990  0.43630  0.46640  1.0000
  O   O10       1.0  0.74990  0.56370  0.96640  1.0000
  O   O11       1.0  0.41680  0.62430  0.47480  1.0000
  O   O12       1.0  0.91680  0.37570  0.97480  1.0000
  O   O13       1.0  0.39310  0.09680  0.85590  1.0000
  O   O14       1.0  0.89310  0.90320  0.35590  1.0000
  O   O15       1.0  0.57140  0.91790  0.86250  1.0000
  O   O16       1.0  0.07140  0.08210  0.36250  1.0000
  O   O17       1.0  0.27520  0.47600  0.83950  1.0000
  O   O18       1.0  0.77520  0.52400  0.33950  1.0000
  O   O19       1.0  0.47080  0.64490  0.85380  1.0000
  O   O20       1.0  0.97080  0.35510  0.35380  1.0000
  O   O21       1.0  0.27310  0.27930  0.27720  1.0000
  O   O22       1.0  0.77310  0.72070  0.77720  1.0000
  O   O23       1.0  0.29800  0.28440  0.09440  1.0000
  O   O24       1.0  0.79800  0.71560  0.59440  1.0000
  C   C1        1.0  0.10230  0.24600  0.64820  1.0000
  C   C2        1.0  0.60230  0.75400  0.14820  1.0000
  H   H1        1.0  0.21100  0.27810  0.65880  1.0000
  H   H2        1.0  0.71100  0.72190  0.15880  1.0000
  C   C3        1.0  0.42830  0.05360  0.44300  1.0000
  C   C4        1.0  0.92830  0.94640  0.94300  1.0000
  H   H3        1.0  0.39170  0.01120  0.37690  1.0000
  H   H4        1.0  0.89170  0.98880  0.87690  1.0000
  C   C5        1.0  0.37570  0.50850  0.43620  1.0000
  C   C6        1.0  0.87570  0.49150  0.93620  1.0000
  H   H5        1.0  0.44120  0.46990  0.38040  1.0000
  H   H6        1.0  0.94120  0.53010  0.88040  1.0000
  C   C7        1.0  0.43860  0.98160  0.89030  1.0000
  C   C8        1.0  0.93860  0.01840  0.39030  1.0000
  H   H7        1.0  0.37100  0.93560  0.94140  1.0000
  H   H8        1.0  0.87100  0.06440  0.44140  1.0000
  C   C9        1.0  0.39760  0.53200  0.88500  1.0000
  C   C10       1.0  0.89760  0.46800  0.38500  1.0000
  H   H9        1.0  0.44000  0.48680  0.94830  1.0000
  H   H10       1.0  0.94000  0.51320  0.44830  1.0000
  C   C11       1.0  0.21890  0.26320  0.17720  1.0000
  C   C12       1.0  0.71890  0.73680  0.67720  1.0000
  H   H11       1.0  0.10940  0.23260  0.16770  1.0000
  H   H12       1.0  0.60940  0.76740  0.66770  1.0000
