data_image0
_chemical_formula_structural       Al2Na2O24C2H2C2H2C2H2C2H2C2H2C2H2
_chemical_formula_sum              "Al2 Na2 O24 C12 H12"
_cell_length_a       8.0454
_cell_length_b       9.1026
_cell_length_c       11.8762
_cell_angle_alpha    90
_cell_angle_beta     91.477
_cell_angle_gamma    90

_space_group_name_H-M_alt    "P 1"
_space_group_IT_number       1

loop_
  _space_group_symop_operation_xyz
  'x, y, z'

loop_
  _atom_site_type_symbol
  _atom_site_label
  _atom_site_symmetry_multiplicity
  _atom_site_fract_x
  _atom_site_fract_y
  _atom_site_fract_z
  _atom_site_occupancy
  Al  Al1       1.0  0.16281  0.27791  0.41378  1.0000
  Al  Al2       1.0  0.66281  0.72209  0.91378  1.0000
  Na  Na1       1.0  0.15861  0.22335  0.91461  1.0000
  Na  Na2       1.0  0.65861  0.77665  0.41461  1.0000
  O   O1        1.0  0.04633  0.25573  0.54912  1.0000
  O   O2        1.0  0.54633  0.74427  0.04912  1.0000
  O   O3        1.0  0.01842  0.21273  0.73188  1.0000
  O   O4        1.0  0.51842  0.78727  0.23188  1.0000
  O   O5        1.0  0.35272  0.18212  0.47908  1.0000
  O   O6        1.0  0.85272  0.81788  0.97908  1.0000
  O   O7        1.0  0.55309  0.01321  0.49001  1.0000
  O   O8        1.0  0.05309  0.98679  0.99001  1.0000
  O   O9        1.0  0.24856  0.45934  0.46710  1.0000
  O   O10       1.0  0.74856  0.54066  0.96710  1.0000
  O   O11       1.0  0.41906  0.65002  0.47885  1.0000
  O   O12       1.0  0.91906  0.34998  0.97885  1.0000
  O   O13       1.0  0.38038  0.07753  0.84885  1.0000
  O   O14       1.0  0.88038  0.92247  0.34885  1.0000
  O   O15       1.0  0.57419  0.90479  0.86166  1.0000
  O   O16       1.0  0.07419  0.09521  0.36166  1.0000
  O   O17       1.0  0.26778  0.46116  0.84077  1.0000
  O   O18       1.0  0.76778  0.53884  0.34077  1.0000
  O   O19       1.0  0.47348  0.62495  0.84901  1.0000
  O   O20       1.0  0.97348  0.37505  0.34901  1.0000
  O   O21       1.0  0.27660  0.29523  0.27698  1.0000
  O   O22       1.0  0.77660  0.70477  0.77698  1.0000
  O   O23       1.0  0.30311  0.27869  0.09186  1.0000
  O   O24       1.0  0.80311  0.72131  0.59186  1.0000
  C   C1        1.0  0.10067  0.25115  0.65071  1.0000
  C   C2        1.0  0.60067  0.74885  0.15071  1.0000
  H   H1        1.0  0.21290  0.27940  0.66510  1.0000
  H   H2        1.0  0.71290  0.72060  0.16510  1.0000
  C   C3        1.0  0.43436  0.07472  0.44088  1.0000
  C   C4        1.0  0.93436  0.92528  0.94088  1.0000
  H   H3        1.0  0.40190  0.03840  0.36860  1.0000
  H   H4        1.0  0.90190  0.96160  0.86860  1.0000
  C   C5        1.0  0.37570  0.53266  0.43677  1.0000
  C   C6        1.0  0.87570  0.46734  0.93677  1.0000
  H   H5        1.0  0.44040  0.49370  0.37800  1.0000
  H   H6        1.0  0.94040  0.50630  0.87800  1.0000
  C   C7        1.0  0.43141  0.95968  0.88538  1.0000
  C   C8        1.0  0.93141  0.04032  0.38538  1.0000
  H   H7        1.0  0.36200  0.90560  0.93390  1.0000
  H   H8        1.0  0.86200  0.09440  0.43390  1.0000
  C   C9        1.0  0.39412  0.51531  0.88598  1.0000
  C   C10       1.0  0.89412  0.48469  0.38598  1.0000
  H   H9        1.0  0.43480  0.47120  0.95370  1.0000
  H   H10       1.0  0.93480  0.52880  0.45370  1.0000
  C   C11       1.0  0.22180  0.26506  0.17788  1.0000
  C   C12       1.0  0.72180  0.73494  0.67788  1.0000
  H   H11       1.0  0.11100  0.22980  0.16980  1.0000
  H   H12       1.0  0.61100  0.77020  0.66980  1.0000
