data_image0
_chemical_formula_structural       Al2Na2O24C2H2C2H2C2H2C2H2C2H2C2H2
_chemical_formula_sum              "Al2 Na2 O24 C12 H12"
_cell_length_a       8.0366
_cell_length_b       9.1722
_cell_length_c       11.9114
_cell_angle_alpha    90
_cell_angle_beta     91.238
_cell_angle_gamma    90

_space_group_name_H-M_alt    "P 1"
_space_group_IT_number       1

loop_
  _space_group_symop_operation_xyz
  'x, y, z'

loop_
  _atom_site_type_symbol
  _atom_site_label
  _atom_site_symmetry_multiplicity
  _atom_site_fract_x
  _atom_site_fract_y
  _atom_site_fract_z
  _atom_site_occupancy
  Al  Al1       1.0  0.16301  0.27547  0.41371  1.0000
  Al  Al2       1.0  0.66301  0.72453  0.91371  1.0000
  Na  Na1       1.0  0.15846  0.22570  0.91462  1.0000
  Na  Na2       1.0  0.65846  0.77430  0.41462  1.0000
  O   O1        1.0  0.04719  0.25284  0.54934  1.0000
  O   O2        1.0  0.54719  0.74716  0.04934  1.0000
  O   O3        1.0  0.01863  0.21457  0.73186  1.0000
  O   O4        1.0  0.51863  0.78543  0.23186  1.0000
  O   O5        1.0  0.35304  0.17943  0.47788  1.0000
  O   O6        1.0  0.85304  0.82057  0.97788  1.0000
  O   O7        1.0  0.55202  0.01068  0.49041  1.0000
  O   O8        1.0  0.05202  0.98932  0.99041  1.0000
  O   O9        1.0  0.24925  0.45514  0.46716  1.0000
  O   O10       1.0  0.74925  0.54486  0.96716  1.0000
  O   O11       1.0  0.41616  0.64671  0.47801  1.0000
  O   O12       1.0  0.91616  0.35329  0.97801  1.0000
  O   O13       1.0  0.38157  0.07862  0.85024  1.0000
  O   O14       1.0  0.88157  0.92138  0.35024  1.0000
  O   O15       1.0  0.57342  0.90541  0.86157  1.0000
  O   O16       1.0  0.07342  0.09459  0.36157  1.0000
  O   O17       1.0  0.27001  0.46233  0.84009  1.0000
  O   O18       1.0  0.77001  0.53767  0.34009  1.0000
  O   O19       1.0  0.47333  0.62726  0.85007  1.0000
  O   O20       1.0  0.97333  0.37274  0.35007  1.0000
  O   O21       1.0  0.27642  0.29305  0.27673  1.0000
  O   O22       1.0  0.77642  0.70695  0.77673  1.0000
  O   O23       1.0  0.30217  0.28095  0.09207  1.0000
  O   O24       1.0  0.80217  0.71905  0.59207  1.0000
  C   C1        1.0  0.10080  0.25123  0.65044  1.0000
  C   C2        1.0  0.60080  0.74877  0.15044  1.0000
  H   H1        1.0  0.21270  0.28050  0.66430  1.0000
  H   H2        1.0  0.71270  0.71950  0.16430  1.0000
  C   C3        1.0  0.43361  0.07175  0.44135  1.0000
  C   C4        1.0  0.93361  0.92825  0.94135  1.0000
  H   H3        1.0  0.40050  0.03430  0.37000  1.0000
  H   H4        1.0  0.90050  0.96570  0.87000  1.0000
  C   C5        1.0  0.37434  0.53015  0.43605  1.0000
  C   C6        1.0  0.87434  0.46985  0.93605  1.0000
  H   H5        1.0  0.43890  0.49300  0.37660  1.0000
  H   H6        1.0  0.93890  0.50700  0.87660  1.0000
  C   C7        1.0  0.43196  0.96116  0.88622  1.0000
  C   C8        1.0  0.93196  0.03884  0.38622  1.0000
  H   H7        1.0  0.36250  0.90820  0.93520  1.0000
  H   H8        1.0  0.86250  0.09180  0.43520  1.0000
  C   C9        1.0  0.39550  0.51711  0.88567  1.0000
  C   C10       1.0  0.89550  0.48289  0.38567  1.0000
  H   H9        1.0  0.43650  0.47270  0.95280  1.0000
  H   H10       1.0  0.93650  0.52730  0.45280  1.0000
  C   C11       1.0  0.22130  0.26610  0.17795  1.0000
  C   C12       1.0  0.72130  0.73390  0.67795  1.0000
  H   H11       1.0  0.11000  0.23210  0.16990  1.0000
  H   H12       1.0  0.61000  0.76790  0.66990  1.0000
