data_image0
_chemical_formula_structural       Al2O12C12O4H4O4H4O4H4Na2
_chemical_formula_sum              "Al2 O24 C12 H12 Na2"
_cell_length_a       8.0388
_cell_length_b       9.3156
_cell_length_c       12.0288
_cell_angle_alpha    90
_cell_angle_beta     90.792
_cell_angle_gamma    90

_space_group_name_H-M_alt    "P 1"
_space_group_IT_number       1

loop_
  _space_group_symop_operation_xyz
  'x, y, z'

loop_
  _atom_site_type_symbol
  _atom_site_label
  _atom_site_symmetry_multiplicity
  _atom_site_fract_x
  _atom_site_fract_y
  _atom_site_fract_z
  _atom_site_occupancy
  Al  Al1       1.0  0.00000  0.00000  0.50000  1.0000
  Al  Al2       1.0  0.50000  0.50000  0.00000  1.0000
  O   O1        1.0  0.11080  0.02160  0.36341  1.0000
  O   O2        1.0  0.38920  0.52160  0.13659  1.0000
  O   O3        1.0  0.88920  0.97840  0.63659  1.0000
  O   O4        1.0  0.61080  0.47840  0.86341  1.0000
  O   O5        1.0  0.18990  0.90390  0.55998  1.0000
  O   O6        1.0  0.31010  0.40390  0.94002  1.0000
  O   O7        1.0  0.81010  0.09610  0.44002  1.0000
  O   O8        1.0  0.68990  0.59610  0.05998  1.0000
  O   O9        1.0  0.08900  0.17690  0.55195  1.0000
  O   O10       1.0  0.41100  0.67690  0.94805  1.0000
  O   O11       1.0  0.91100  0.82310  0.44805  1.0000
  O   O12       1.0  0.58900  0.32310  0.05195  1.0000
  C   C1        1.0  0.05700  0.00820  0.26450  1.0000
  C   C2        1.0  0.44300  0.50820  0.23550  1.0000
  C   C3        1.0  0.94300  0.99180  0.73550  1.0000
  C   C4        1.0  0.55700  0.49180  0.76450  1.0000
  C   C5        1.0  0.26610  0.79240  0.52900  1.0000
  C   C6        1.0  0.23390  0.29240  0.97100  1.0000
  C   C7        1.0  0.73390  0.20760  0.47100  1.0000
  C   C8        1.0  0.76610  0.70760  0.02900  1.0000
  C   C9        1.0  0.21860  0.24450  0.52290  1.0000
  C   C10       1.0  0.28140  0.74450  0.97710  1.0000
  C   C11       1.0  0.78140  0.75550  0.47710  1.0000
  C   C12       1.0  0.71860  0.25550  0.02290  1.0000
  O   O13       1.0  0.13690  0.03460  0.18147  1.0000
  O   O14       1.0  0.36310  0.53460  0.31853  1.0000
  O   O15       1.0  0.86310  0.96540  0.81853  1.0000
  O   O16       1.0  0.63690  0.46540  0.68147  1.0000
  H   H1        1.0  0.94840  0.97570  0.25440  1.0000
  H   H2        1.0  0.55160  0.47570  0.24560  1.0000
  H   H3        1.0  0.05160  0.02430  0.74560  1.0000
  H   H4        1.0  0.44840  0.52430  0.75440  1.0000
  O   O17       1.0  0.38640  0.73600  0.57560  1.0000
  O   O18       1.0  0.11360  0.23600  0.92440  1.0000
  O   O19       1.0  0.61360  0.26400  0.42440  1.0000
  O   O20       1.0  0.88640  0.76400  0.07560  1.0000
  H   H5        1.0  0.22700  0.74850  0.46420  1.0000
  H   H6        1.0  0.27300  0.24850  0.03580  1.0000
  H   H7        1.0  0.77300  0.25150  0.53580  1.0000
  H   H8        1.0  0.72700  0.75150  0.96420  1.0000
  O   O21       1.0  0.26070  0.36090  0.55930  1.0000
  O   O22       1.0  0.23930  0.86090  0.94070  1.0000
  O   O23       1.0  0.73930  0.63910  0.44070  1.0000
  O   O24       1.0  0.76070  0.13910  0.05930  1.0000
  H   H9        1.0  0.28600  0.20200  0.46990  1.0000
  H   H10       1.0  0.21400  0.70200  0.03010  1.0000
  H   H11       1.0  0.71400  0.79800  0.53010  1.0000
  H   H12       1.0  0.78600  0.29800  0.96990  1.0000
  Na  Na1       1.0  0.00000  0.00000  0.00000  1.0000
  Na  Na2       1.0  0.50000  0.50000  0.50000  1.0000
