data_image0
_chemical_formula_structural       Zn8O48C8H2C4H2C12H2C8H2C10H2C12H2C6
_chemical_formula_sum              "Zn8 O48 C60 H12"
_cell_length_a       15.5797
_cell_length_b       16.7473
_cell_length_c       16.9714
_cell_angle_alpha    114.109
_cell_angle_beta     100.262
_cell_angle_gamma    101.279

_space_group_name_H-M_alt    "P 1"
_space_group_IT_number       1

loop_
  _space_group_symop_operation_xyz
  'x, y, z'

loop_
  _atom_site_type_symbol
  _atom_site_label
  _atom_site_symmetry_multiplicity
  _atom_site_fract_x
  _atom_site_fract_y
  _atom_site_fract_z
  _atom_site_occupancy
  Zn  Zn1       1.0  0.59057  0.62891  0.26868  1.0000
  Zn  Zn2       1.0  0.40943  0.37109  0.73132  1.0000
  Zn  Zn3       1.0  0.07202  0.62219  0.25775  1.0000
  Zn  Zn4       1.0  0.92798  0.37781  0.74225  1.0000
  Zn  Zn5       1.0  0.42093  0.73359  0.36630  1.0000
  Zn  Zn6       1.0  0.57907  0.26641  0.63370  1.0000
  Zn  Zn7       1.0  0.09172  0.26723  0.63360  1.0000
  Zn  Zn8       1.0  0.90828  0.73277  0.36640  1.0000
  O   O1        1.0  0.50266  0.44930  0.26790  1.0000
  O   O2        1.0  0.49734  0.55070  0.73210  1.0000
  O   O3        1.0  0.58988  0.59315  0.36406  1.0000
  O   O4        1.0  0.41012  0.40685  0.63594  1.0000
  O   O5        1.0  0.46490  0.57613  0.18781  1.0000
  O   O6        1.0  0.53510  0.42387  0.81219  1.0000
  O   O7        1.0  0.37782  0.66722  0.23381  1.0000
  O   O8        1.0  0.62218  0.33278  0.76619  1.0000
  O   O9        1.0  0.50551  0.73461  0.54113  1.0000
  O   O10       1.0  0.49449  0.26539  0.45887  1.0000
  O   O11       1.0  0.42634  0.63647  0.39890  1.0000
  O   O12       1.0  0.57366  0.36353  0.60110  1.0000
  O   O13       1.0  0.34280  0.80171  0.42281  1.0000
  O   O14       1.0  0.65720  0.19829  0.57719  1.0000
  O   O15       1.0  0.32347  0.84951  0.31834  1.0000
  O   O16       1.0  0.67653  0.15049  0.68166  1.0000
  O   O17       1.0  0.45873  0.17685  0.59573  1.0000
  O   O18       1.0  0.54127  0.82315  0.40427  1.0000
  O   O19       1.0  0.36187  0.23623  0.66642  1.0000
  O   O20       1.0  0.63813  0.76377  0.33358  1.0000
  O   O21       1.0  0.14192  0.13727  0.65967  1.0000
  O   O22       1.0  0.85808  0.86273  0.34033  1.0000
  O   O23       1.0  0.16808  0.19860  0.57139  1.0000
  O   O24       1.0  0.83192  0.80140  0.42861  1.0000
  O   O25       1.0  0.98240  0.72741  0.54116  1.0000
  O   O26       1.0  0.01760  0.27259  0.45884  1.0000
  O   O27       1.0  0.91351  0.63282  0.39760  1.0000
  O   O28       1.0  0.08649  0.36718  0.60240  1.0000
  O   O29       1.0  0.96671  0.44862  0.26109  1.0000
  O   O30       1.0  0.03329  0.55138  0.73891  1.0000
  O   O31       1.0  0.07055  0.58354  0.34958  1.0000
  O   O32       1.0  0.92945  0.41646  0.65042  1.0000
  O   O33       1.0  0.13398  0.75471  0.33016  1.0000
  O   O34       1.0  0.86602  0.24529  0.66984  1.0000
  O   O35       1.0  0.03392  0.80971  0.39843  1.0000
  O   O36       1.0  0.96608  0.19029  0.60157  1.0000
  O   O37       1.0  0.12872  0.59033  0.16093  1.0000
  O   O38       1.0  0.87128  0.40967  0.83907  1.0000
  O   O39       1.0  0.21961  0.53100  0.22167  1.0000
  O   O40       1.0  0.78039  0.46900  0.77833  1.0000
  O   O41       1.0  0.33218  0.44727  0.79782  1.0000
  O   O42       1.0  0.66782  0.55273  0.20218  1.0000
  O   O43       1.0  0.36180  0.35325  0.84854  1.0000
  O   O44       1.0  0.63820  0.64675  0.15146  1.0000
  O   O45       1.0  0.14680  0.34069  0.76511  1.0000
  O   O46       1.0  0.85320  0.65931  0.23489  1.0000
  O   O47       1.0  0.04698  0.40462  0.82579  1.0000
  O   O48       1.0  0.95302  0.59538  0.17421  1.0000
  C   C1        1.0  0.38274  0.17316  0.61089  1.0000
  C   C2        1.0  0.61726  0.82684  0.38911  1.0000
  C   C3        1.0  0.31021  0.08136  0.55548  1.0000
  C   C4        1.0  0.68979  0.91864  0.44452  1.0000
  C   C5        1.0  0.21755  0.06834  0.55284  1.0000
  C   C6        1.0  0.78245  0.93166  0.44716  1.0000
  C   C7        1.0  0.15664  0.98105  0.49903  1.0000
  C   C8        1.0  0.84336  0.01895  0.50097  1.0000
  H   H1        1.0  0.09581  0.97151  0.49907  1.0000
  H   H2        1.0  0.90419  0.02849  0.50093  1.0000
  C   C9        1.0  0.18274  0.90734  0.44511  1.0000
  C   C10       1.0  0.81726  0.09266  0.55489  1.0000
  C   C11       1.0  0.33638  0.00719  0.50276  1.0000
  C   C12       1.0  0.66362  0.99281  0.49724  1.0000
  H   H3        1.0  0.39785  0.01584  0.50544  1.0000
  H   H4        1.0  0.60215  0.98416  0.49456  1.0000
  C   C13       1.0  0.27499  0.92072  0.44626  1.0000
  C   C14       1.0  0.72501  0.07928  0.55374  1.0000
  C   C15       1.0  0.31430  0.84996  0.38826  1.0000
  C   C16       1.0  0.68570  0.15004  0.61174  1.0000
  C   C17       1.0  0.47573  0.65744  0.47744  1.0000
  C   C18       1.0  0.52427  0.34256  0.52256  1.0000
  C   C19       1.0  0.49214  0.57711  0.48963  1.0000
  C   C20       1.0  0.50786  0.42289  0.51037  1.0000
  C   C21       1.0  0.51238  0.50686  0.42328  1.0000
  C   C22       1.0  0.48762  0.49314  0.57672  1.0000
  C   C23       1.0  0.48116  0.56981  0.56599  1.0000
  C   C24       1.0  0.51884  0.43019  0.43401  1.0000
  H   H5        1.0  0.46920  0.61737  0.61103  1.0000
  H   H6        1.0  0.53080  0.38263  0.38897  1.0000
  C   C25       1.0  0.53488  0.51553  0.34376  1.0000
  C   C26       1.0  0.46512  0.48447  0.65624  1.0000
  C   C27       1.0  0.39360  0.59873  0.17904  1.0000
  C   C28       1.0  0.60640  0.40127  0.82096  1.0000
  C   C29       1.0  0.32107  0.54003  0.09005  1.0000
  C   C30       1.0  0.67893  0.45997  0.90995  1.0000
  C   C31       1.0  0.34911  0.50329  0.01359  1.0000
  C   C32       1.0  0.65089  0.49671  0.98641  1.0000
  H   H7        1.0  0.41111  0.51117  0.01960  1.0000
  H   H8        1.0  0.58889  0.48883  0.98040  1.0000
  C   C33       1.0  0.28715  0.45480  0.92779  1.0000
  C   C34       1.0  0.71285  0.54520  0.07221  1.0000
  C   C35       1.0  0.32714  0.41421  0.85145  1.0000
  C   C36       1.0  0.67286  0.58579  0.14855  1.0000
  C   C37       1.0  0.19432  0.44469  0.91908  1.0000
  C   C38       1.0  0.80568  0.55531  0.08092  1.0000
  C   C39       1.0  0.12378  0.39257  0.82848  1.0000
  C   C40       1.0  0.87622  0.60743  0.17152  1.0000
  C   C41       1.0  0.16624  0.48098  0.99638  1.0000
  C   C42       1.0  0.83376  0.51902  0.00362  1.0000
  H   H9        1.0  0.10443  0.47457  0.99040  1.0000
  H   H10       1.0  0.89557  0.52543  0.00960  1.0000
  C   C43       1.0  0.22769  0.52641  0.08205  1.0000
  C   C44       1.0  0.77231  0.47359  0.91795  1.0000
  C   C45       1.0  0.19134  0.55178  0.16277  1.0000
  C   C46       1.0  0.80866  0.44822  0.83723  1.0000
  C   C47       1.0  0.01196  0.51106  0.33542  1.0000
  C   C48       1.0  0.98804  0.48894  0.66458  1.0000
  C   C49       1.0  0.00247  0.50488  0.41995  1.0000
  C   C50       1.0  0.99753  0.49512  0.58005  1.0000
  C   C51       1.0  0.98146  0.57331  0.48785  1.0000
  C   C52       1.0  0.01854  0.42669  0.51215  1.0000
  C   C53       1.0  0.97981  0.56765  0.56707  1.0000
  C   C54       1.0  0.02019  0.43235  0.43293  1.0000
  H   H11       1.0  0.96650  0.61361  0.61253  1.0000
  H   H12       1.0  0.03350  0.38639  0.38747  1.0000
  C   C55       1.0  0.95870  0.65170  0.47580  1.0000
  C   C56       1.0  0.04130  0.34830  0.52420  1.0000
  C   C57       1.0  0.11138  0.81605  0.38698  1.0000
  C   C58       1.0  0.88862  0.18395  0.61302  1.0000
  C   C59       1.0  0.17545  0.14149  0.60127  1.0000
  C   C60       1.0  0.82455  0.85851  0.39873  1.0000
