data_image0
_chemical_formula_structural       Zn2O10C4O2C2O2C2O2C4Zn2C6H2O4H2C6O2C6H2O6C4Zn2C4O8C6H2Zn2C4H2O2C2O2C8O6H2C2O2
_chemical_formula_sum              "Zn8 O48 C60 H12"
_cell_length_a       15.5861
_cell_length_b       16.7515
_cell_length_c       16.9797
_cell_angle_alpha    114.137
_cell_angle_beta     100.258
_cell_angle_gamma    101.247

_space_group_name_H-M_alt    "P 1"
_space_group_IT_number       1

loop_
  _space_group_symop_operation_xyz
  'x, y, z'

loop_
  _atom_site_type_symbol
  _atom_site_label
  _atom_site_symmetry_multiplicity
  _atom_site_fract_x
  _atom_site_fract_y
  _atom_site_fract_z
  _atom_site_occupancy
  Zn  Zn1       1.0  0.59055  0.62884  0.26878  1.0000
  Zn  Zn2       1.0  0.40945  0.37116  0.73122  1.0000
  O   O1        1.0  0.58974  0.59297  0.36404  1.0000
  O   O2        1.0  0.41026  0.40703  0.63596  1.0000
  O   O3        1.0  0.46490  0.57600  0.18803  1.0000
  O   O4        1.0  0.53510  0.42400  0.81197  1.0000
  O   O5        1.0  0.63826  0.76376  0.33370  1.0000
  O   O6        1.0  0.36174  0.23624  0.66630  1.0000
  O   O7        1.0  0.66763  0.55261  0.20212  1.0000
  O   O8        1.0  0.33237  0.44739  0.79788  1.0000
  O   O9        1.0  0.63820  0.64654  0.15141  1.0000
  O   O10       1.0  0.36180  0.35346  0.84859  1.0000
  C   C1        1.0  0.53494  0.51546  0.34377  1.0000
  C   C2        1.0  0.46506  0.48454  0.65623  1.0000
  C   C3        1.0  0.39353  0.59854  0.17906  1.0000
  C   C4        1.0  0.60647  0.40146  0.82094  1.0000
  O   O11       1.0  0.50282  0.44935  0.26791  1.0000
  O   O12       1.0  0.49718  0.55065  0.73209  1.0000
  C   C5        1.0  0.51253  0.50679  0.42333  1.0000
  C   C6        1.0  0.48747  0.49321  0.57667  1.0000
  O   O13       1.0  0.37788  0.66719  0.23386  1.0000
  O   O14       1.0  0.62212  0.33281  0.76614  1.0000
  C   C7        1.0  0.32122  0.53993  0.09030  1.0000
  C   C8        1.0  0.67878  0.46007  0.90970  1.0000
  O   O15       1.0  0.54135  0.82313  0.40435  1.0000
  O   O16       1.0  0.45865  0.17687  0.59565  1.0000
  C   C9        1.0  0.49216  0.57717  0.48967  1.0000
  C   C10       1.0  0.50784  0.42283  0.51033  1.0000
  C   C11       1.0  0.51867  0.42995  0.43385  1.0000
  C   C12       1.0  0.48133  0.57005  0.56615  1.0000
  Zn  Zn3       1.0  0.42098  0.73349  0.36636  1.0000
  Zn  Zn4       1.0  0.57902  0.26651  0.63364  1.0000
  C   C13       1.0  0.34928  0.50319  0.01354  1.0000
  C   C14       1.0  0.65072  0.49681  0.98646  1.0000
  C   C15       1.0  0.22773  0.52639  0.08198  1.0000
  C   C16       1.0  0.77227  0.47361  0.91802  1.0000
  C   C17       1.0  0.47580  0.65753  0.47755  1.0000
  C   C18       1.0  0.52420  0.34247  0.52245  1.0000
  H   H1        1.0  0.53029  0.38223  0.38867  1.0000
  H   H2        1.0  0.46971  0.61777  0.61133  1.0000
  O   O17       1.0  0.42636  0.63631  0.39908  1.0000
  O   O18       1.0  0.57364  0.36369  0.60092  1.0000
  O   O19       1.0  0.34281  0.80151  0.42295  1.0000
  O   O20       1.0  0.65719  0.19849  0.57705  1.0000
  H   H3        1.0  0.41126  0.51128  0.01948  1.0000
  H   H4        1.0  0.58874  0.48872  0.98052  1.0000
  C   C19       1.0  0.28733  0.45452  0.92779  1.0000
  C   C20       1.0  0.71267  0.54548  0.07221  1.0000
  C   C21       1.0  0.16615  0.48091  0.99630  1.0000
  C   C22       1.0  0.83385  0.51909  0.00370  1.0000
  C   C23       1.0  0.19129  0.55165  0.16270  1.0000
  C   C24       1.0  0.80871  0.44835  0.83730  1.0000
  O   O21       1.0  0.50548  0.73438  0.54110  1.0000
  O   O22       1.0  0.49452  0.26562  0.45890  1.0000
  C   C25       1.0  0.31429  0.84979  0.38832  1.0000
  C   C26       1.0  0.68571  0.15021  0.61168  1.0000
  C   C27       1.0  0.32717  0.41421  0.85137  1.0000
  C   C28       1.0  0.67283  0.58579  0.14863  1.0000
  C   C29       1.0  0.19447  0.44461  0.91903  1.0000
  C   C30       1.0  0.80553  0.55539  0.08097  1.0000
  H   H5        1.0  0.10437  0.47450  0.99030  1.0000
  H   H6        1.0  0.89563  0.52550  0.00970  1.0000
  O   O23       1.0  0.12881  0.59032  0.16095  1.0000
  O   O24       1.0  0.87119  0.40968  0.83905  1.0000
  O   O25       1.0  0.21957  0.53092  0.22162  1.0000
  O   O26       1.0  0.78043  0.46908  0.77838  1.0000
  O   O27       1.0  0.32353  0.84965  0.31858  1.0000
  O   O28       1.0  0.67647  0.15035  0.68142  1.0000
  C   C31       1.0  0.27487  0.92066  0.44653  1.0000
  C   C32       1.0  0.72513  0.07934  0.55347  1.0000
  C   C33       1.0  0.12382  0.39263  0.82836  1.0000
  C   C34       1.0  0.87618  0.60737  0.17164  1.0000
  Zn  Zn5       1.0  0.07195  0.62208  0.25776  1.0000
  Zn  Zn6       1.0  0.92805  0.37792  0.74224  1.0000
  C   C35       1.0  0.18295  0.90709  0.44538  1.0000
  C   C36       1.0  0.81705  0.09291  0.55462  1.0000
  C   C37       1.0  0.33655  0.00709  0.50292  1.0000
  C   C38       1.0  0.66345  0.99291  0.49708  1.0000
  O   O29       1.0  0.14688  0.34070  0.76484  1.0000
  O   O30       1.0  0.85312  0.65930  0.23516  1.0000
  O   O31       1.0  0.04696  0.40440  0.82560  1.0000
  O   O32       1.0  0.95304  0.59560  0.17440  1.0000
  O   O33       1.0  0.13403  0.75457  0.33035  1.0000
  O   O34       1.0  0.86597  0.24543  0.66965  1.0000
  O   O35       1.0  0.07051  0.58338  0.34954  1.0000
  O   O36       1.0  0.92949  0.41662  0.65046  1.0000
  C   C39       1.0  0.15656  0.98085  0.49941  1.0000
  C   C40       1.0  0.84344  0.01915  0.50059  1.0000
  C   C41       1.0  0.11128  0.81616  0.38730  1.0000
  C   C42       1.0  0.88872  0.18384  0.61270  1.0000
  C   C43       1.0  0.30997  0.08132  0.55548  1.0000
  C   C44       1.0  0.69003  0.91868  0.44452  1.0000
  H   H7        1.0  0.39799  0.01568  0.50564  1.0000
  H   H8        1.0  0.60201  0.98432  0.49436  1.0000
  Zn  Zn7       1.0  0.09173  0.26731  0.63337  1.0000
  Zn  Zn8       1.0  0.90827  0.73269  0.36663  1.0000
  C   C45       1.0  0.01179  0.51113  0.33528  1.0000
  C   C46       1.0  0.98821  0.48887  0.66472  1.0000
  C   C47       1.0  0.21761  0.06821  0.55317  1.0000
  C   C48       1.0  0.78239  0.93179  0.44683  1.0000
  H   H9        1.0  0.09577  0.97128  0.49953  1.0000
  H   H10       1.0  0.90423  0.02872  0.50047  1.0000
  O   O37       1.0  0.03391  0.80955  0.39853  1.0000
  O   O38       1.0  0.96609  0.19045  0.60147  1.0000
  C   C49       1.0  0.38271  0.17285  0.61061  1.0000
  C   C50       1.0  0.61729  0.82715  0.38939  1.0000
  O   O39       1.0  0.96650  0.44837  0.26099  1.0000
  O   O40       1.0  0.03350  0.55163  0.73901  1.0000
  C   C51       1.0  0.00244  0.50481  0.41994  1.0000
  C   C52       1.0  0.99756  0.49519  0.58006  1.0000
  C   C53       1.0  0.17514  0.14122  0.60119  1.0000
  C   C54       1.0  0.82486  0.85878  0.39881  1.0000
  C   C55       1.0  0.01998  0.43217  0.43266  1.0000
  C   C56       1.0  0.98002  0.56783  0.56734  1.0000
  C   C57       1.0  0.98145  0.57334  0.48777  1.0000
  C   C58       1.0  0.01855  0.42666  0.51223  1.0000
  O   O41       1.0  0.14185  0.13734  0.65994  1.0000
  O   O42       1.0  0.85815  0.86266  0.34006  1.0000
  O   O43       1.0  0.16812  0.19843  0.57124  1.0000
  O   O44       1.0  0.83188  0.80157  0.42876  1.0000
  O   O45       1.0  0.91353  0.63270  0.39775  1.0000
  O   O46       1.0  0.08647  0.36730  0.60225  1.0000
  H   H11       1.0  0.03300  0.38608  0.38706  1.0000
  H   H12       1.0  0.96700  0.61392  0.61294  1.0000
  C   C59       1.0  0.95839  0.65182  0.47617  1.0000
  C   C60       1.0  0.04161  0.34818  0.52383  1.0000
  O   O47       1.0  0.98200  0.72718  0.54120  1.0000
  O   O48       1.0  0.01800  0.27282  0.45880  1.0000
