data_image0
_chemical_formula_structural       U16P16O32F16O48C32H16C16H16
_chemical_formula_sum              "U16 P16 O80 F16 C48 H32"
_cell_length_a       17.9546
_cell_length_b       7.0283
_cell_length_c       25.0796
_cell_angle_alpha    90
_cell_angle_beta     90
_cell_angle_gamma    90

_space_group_name_H-M_alt    "P 1"
_space_group_IT_number       1

loop_
  _space_group_symop_operation_xyz
  'x, y, z'

loop_
  _atom_site_type_symbol
  _atom_site_label
  _atom_site_symmetry_multiplicity
  _atom_site_fract_x
  _atom_site_fract_y
  _atom_site_fract_z
  _atom_site_occupancy
  U   U1        1.0  0.38687  0.23141  0.10688  1.0000
  U   U2        1.0  0.61313  0.76859  0.60688  1.0000
  U   U3        1.0  0.61313  0.23141  0.39312  1.0000
  U   U4        1.0  0.38687  0.76859  0.89312  1.0000
  U   U5        1.0  0.88687  0.73141  0.10688  1.0000
  U   U6        1.0  0.11313  0.26859  0.60688  1.0000
  U   U7        1.0  0.11313  0.73141  0.39312  1.0000
  U   U8        1.0  0.88687  0.26859  0.89312  1.0000
  U   U9        1.0  0.61313  0.76859  0.89312  1.0000
  U   U10       1.0  0.38687  0.23141  0.39312  1.0000
  U   U11       1.0  0.38687  0.76859  0.60688  1.0000
  U   U12       1.0  0.61313  0.23141  0.10688  1.0000
  U   U13       1.0  0.11313  0.26859  0.89312  1.0000
  U   U14       1.0  0.88687  0.73141  0.39312  1.0000
  U   U15       1.0  0.88687  0.26859  0.60688  1.0000
  U   U16       1.0  0.11313  0.73141  0.10688  1.0000
  P   P1        1.0  0.32264  0.72580  0.12257  1.0000
  P   P2        1.0  0.67736  0.27420  0.62257  1.0000
  P   P3        1.0  0.67736  0.72580  0.37743  1.0000
  P   P4        1.0  0.32264  0.27420  0.87743  1.0000
  P   P5        1.0  0.82264  0.22580  0.12257  1.0000
  P   P6        1.0  0.17736  0.77420  0.62257  1.0000
  P   P7        1.0  0.17736  0.22580  0.37743  1.0000
  P   P8        1.0  0.82264  0.77420  0.87743  1.0000
  P   P9        1.0  0.67736  0.27420  0.87743  1.0000
  P   P10       1.0  0.32264  0.72580  0.37743  1.0000
  P   P11       1.0  0.32264  0.27420  0.62257  1.0000
  P   P12       1.0  0.67736  0.72580  0.12257  1.0000
  P   P13       1.0  0.17736  0.77420  0.87743  1.0000
  P   P14       1.0  0.82264  0.22580  0.37743  1.0000
  P   P15       1.0  0.82264  0.77420  0.62257  1.0000
  P   P16       1.0  0.17736  0.22580  0.12257  1.0000
  O   O1        1.0  0.38930  0.21890  0.03562  1.0000
  O   O2        1.0  0.61070  0.78110  0.53562  1.0000
  O   O3        1.0  0.61070  0.21890  0.46438  1.0000
  O   O4        1.0  0.38930  0.78110  0.96438  1.0000
  O   O5        1.0  0.88930  0.71890  0.03562  1.0000
  O   O6        1.0  0.11070  0.28110  0.53562  1.0000
  O   O7        1.0  0.11070  0.71890  0.46438  1.0000
  O   O8        1.0  0.88930  0.28110  0.96438  1.0000
  O   O9        1.0  0.61070  0.78110  0.96438  1.0000
  O   O10       1.0  0.38930  0.21890  0.46438  1.0000
  O   O11       1.0  0.38930  0.78110  0.53562  1.0000
  O   O12       1.0  0.61070  0.21890  0.03562  1.0000
  O   O13       1.0  0.11070  0.28110  0.96438  1.0000
  O   O14       1.0  0.88930  0.71890  0.46438  1.0000
  O   O15       1.0  0.88930  0.28110  0.53562  1.0000
  O   O16       1.0  0.11070  0.71890  0.03562  1.0000
  O   O17       1.0  0.38949  0.24760  0.17752  1.0000
  O   O18       1.0  0.61051  0.75240  0.67752  1.0000
  O   O19       1.0  0.61051  0.24760  0.32248  1.0000
  O   O20       1.0  0.38949  0.75240  0.82248  1.0000
  O   O21       1.0  0.88949  0.74760  0.17752  1.0000
  O   O22       1.0  0.11051  0.25240  0.67752  1.0000
  O   O23       1.0  0.11051  0.74760  0.32248  1.0000
  O   O24       1.0  0.88949  0.25240  0.82248  1.0000
  O   O25       1.0  0.61051  0.75240  0.82248  1.0000
  O   O26       1.0  0.38949  0.24760  0.32248  1.0000
  O   O27       1.0  0.38949  0.75240  0.67752  1.0000
  O   O28       1.0  0.61051  0.24760  0.17752  1.0000
  O   O29       1.0  0.11051  0.25240  0.82248  1.0000
  O   O30       1.0  0.88949  0.74760  0.32248  1.0000
  O   O31       1.0  0.88949  0.25240  0.67752  1.0000
  O   O32       1.0  0.11051  0.74760  0.17752  1.0000
  F   F1        1.0  0.50000  0.40730  0.10570  1.0000
  F   F2        1.0  0.50000  0.59270  0.60570  1.0000
  F   F3        1.0  0.50000  0.40730  0.39430  1.0000
  F   F4        1.0  0.50000  0.59270  0.89430  1.0000
  F   F5        1.0  0.00000  0.90730  0.10570  1.0000
  F   F6        1.0  0.00000  0.09270  0.60570  1.0000
  F   F7        1.0  0.00000  0.90730  0.39430  1.0000
  F   F8        1.0  0.00000  0.09270  0.89430  1.0000
  F   F9        1.0  0.50000  0.05950  0.11148  1.0000
  F   F10       1.0  0.50000  0.94050  0.61148  1.0000
  F   F11       1.0  0.50000  0.05950  0.38852  1.0000
  F   F12       1.0  0.50000  0.94050  0.88852  1.0000
  F   F13       1.0  0.00000  0.55950  0.11148  1.0000
  F   F14       1.0  0.00000  0.44050  0.61148  1.0000
  F   F15       1.0  0.00000  0.55950  0.38852  1.0000
  F   F16       1.0  0.00000  0.44050  0.88852  1.0000
  O   O33       1.0  0.35919  0.55350  0.09579  1.0000
  O   O34       1.0  0.64081  0.44650  0.59579  1.0000
  O   O35       1.0  0.64081  0.55350  0.40421  1.0000
  O   O36       1.0  0.35919  0.44650  0.90421  1.0000
  O   O37       1.0  0.85919  0.05350  0.09579  1.0000
  O   O38       1.0  0.14081  0.94650  0.59579  1.0000
  O   O39       1.0  0.14081  0.05350  0.40421  1.0000
  O   O40       1.0  0.85919  0.94650  0.90421  1.0000
  O   O41       1.0  0.64081  0.44650  0.90421  1.0000
  O   O42       1.0  0.35919  0.55350  0.40421  1.0000
  O   O43       1.0  0.35919  0.44650  0.59579  1.0000
  O   O44       1.0  0.64081  0.55350  0.09579  1.0000
  O   O45       1.0  0.14081  0.94650  0.90421  1.0000
  O   O46       1.0  0.85919  0.05350  0.40421  1.0000
  O   O47       1.0  0.85919  0.94650  0.59579  1.0000
  O   O48       1.0  0.14081  0.05350  0.09579  1.0000
  O   O49       1.0  0.24008  0.73120  0.10834  1.0000
  O   O50       1.0  0.75992  0.26880  0.60834  1.0000
  O   O51       1.0  0.75992  0.73120  0.39166  1.0000
  O   O52       1.0  0.24008  0.26880  0.89166  1.0000
  O   O53       1.0  0.74008  0.23120  0.10834  1.0000
  O   O54       1.0  0.25992  0.76880  0.60834  1.0000
  O   O55       1.0  0.25992  0.23120  0.39166  1.0000
  O   O56       1.0  0.74008  0.76880  0.89166  1.0000
  O   O57       1.0  0.75992  0.26880  0.89166  1.0000
  O   O58       1.0  0.24008  0.73120  0.39166  1.0000
  O   O59       1.0  0.24008  0.26880  0.60834  1.0000
  O   O60       1.0  0.75992  0.73120  0.10834  1.0000
  O   O61       1.0  0.25992  0.76880  0.89166  1.0000
  O   O62       1.0  0.74008  0.23120  0.39166  1.0000
  O   O63       1.0  0.74008  0.76880  0.60834  1.0000
  O   O64       1.0  0.25992  0.23120  0.10834  1.0000
  O   O65       1.0  0.36261  0.90800  0.10675  1.0000
  O   O66       1.0  0.63739  0.09200  0.60675  1.0000
  O   O67       1.0  0.63739  0.90800  0.39325  1.0000
  O   O68       1.0  0.36261  0.09200  0.89325  1.0000
  O   O69       1.0  0.86261  0.40800  0.10675  1.0000
  O   O70       1.0  0.13739  0.59200  0.60675  1.0000
  O   O71       1.0  0.13739  0.40800  0.39325  1.0000
  O   O72       1.0  0.86261  0.59200  0.89325  1.0000
  O   O73       1.0  0.63739  0.09200  0.89325  1.0000
  O   O74       1.0  0.36261  0.90800  0.39325  1.0000
  O   O75       1.0  0.36261  0.09200  0.60675  1.0000
  O   O76       1.0  0.63739  0.90800  0.10675  1.0000
  O   O77       1.0  0.13739  0.59200  0.89325  1.0000
  O   O78       1.0  0.86261  0.40800  0.39325  1.0000
  O   O79       1.0  0.86261  0.59200  0.60675  1.0000
  O   O80       1.0  0.13739  0.40800  0.10675  1.0000
  C   C1        1.0  0.33050  0.70360  0.19392  1.0000
  C   C2        1.0  0.66950  0.29640  0.69392  1.0000
  C   C3        1.0  0.66950  0.70360  0.30608  1.0000
  C   C4        1.0  0.33050  0.29640  0.80608  1.0000
  C   C5        1.0  0.83050  0.20360  0.19392  1.0000
  C   C6        1.0  0.16950  0.79640  0.69392  1.0000
  C   C7        1.0  0.16950  0.20360  0.30608  1.0000
  C   C8        1.0  0.83050  0.79640  0.80608  1.0000
  C   C9        1.0  0.66950  0.29640  0.80608  1.0000
  C   C10       1.0  0.33050  0.70360  0.30608  1.0000
  C   C11       1.0  0.33050  0.29640  0.69392  1.0000
  C   C12       1.0  0.66950  0.70360  0.19392  1.0000
  C   C13       1.0  0.16950  0.79640  0.80608  1.0000
  C   C14       1.0  0.83050  0.20360  0.30608  1.0000
  C   C15       1.0  0.83050  0.79640  0.69392  1.0000
  C   C16       1.0  0.16950  0.20360  0.19392  1.0000
  C   C17       1.0  0.38890  0.79050  0.22213  1.0000
  C   C18       1.0  0.61110  0.20950  0.72213  1.0000
  C   C19       1.0  0.61110  0.79050  0.27787  1.0000
  C   C20       1.0  0.38890  0.20950  0.77787  1.0000
  C   C21       1.0  0.88890  0.29050  0.22213  1.0000
  C   C22       1.0  0.11110  0.70950  0.72213  1.0000
  C   C23       1.0  0.11110  0.29050  0.27787  1.0000
  C   C24       1.0  0.88890  0.70950  0.77787  1.0000
  C   C25       1.0  0.61110  0.20950  0.77787  1.0000
  C   C26       1.0  0.38890  0.79050  0.27787  1.0000
  C   C27       1.0  0.38890  0.20950  0.72213  1.0000
  C   C28       1.0  0.61110  0.79050  0.22213  1.0000
  C   C29       1.0  0.11110  0.70950  0.77787  1.0000
  C   C30       1.0  0.88890  0.29050  0.27787  1.0000
  C   C31       1.0  0.88890  0.70950  0.72213  1.0000
  C   C32       1.0  0.11110  0.29050  0.22213  1.0000
  H   H1        1.0  0.42860  0.84940  0.20330  1.0000
  H   H2        1.0  0.57140  0.15060  0.70330  1.0000
  H   H3        1.0  0.57140  0.84940  0.29670  1.0000
  H   H4        1.0  0.42860  0.15060  0.79670  1.0000
  H   H5        1.0  0.92860  0.34940  0.20330  1.0000
  H   H6        1.0  0.07140  0.65060  0.70330  1.0000
  H   H7        1.0  0.07140  0.34940  0.29670  1.0000
  H   H8        1.0  0.92860  0.65060  0.79670  1.0000
  H   H9        1.0  0.57140  0.15060  0.79670  1.0000
  H   H10       1.0  0.42860  0.84940  0.29670  1.0000
  H   H11       1.0  0.42860  0.15060  0.70330  1.0000
  H   H12       1.0  0.57140  0.84940  0.20330  1.0000
  H   H13       1.0  0.07140  0.65060  0.79670  1.0000
  H   H14       1.0  0.92860  0.34940  0.29670  1.0000
  H   H15       1.0  0.92860  0.65060  0.70330  1.0000
  H   H16       1.0  0.07140  0.34940  0.20330  1.0000
  C   C33       1.0  0.27440  0.61170  0.22239  1.0000
  C   C34       1.0  0.72560  0.38830  0.72239  1.0000
  C   C35       1.0  0.72560  0.61170  0.27761  1.0000
  C   C36       1.0  0.27440  0.38830  0.77761  1.0000
  C   C37       1.0  0.77440  0.11170  0.22239  1.0000
  C   C38       1.0  0.22560  0.88830  0.72239  1.0000
  C   C39       1.0  0.22560  0.11170  0.27761  1.0000
  C   C40       1.0  0.77440  0.88830  0.77761  1.0000
  C   C41       1.0  0.72560  0.38830  0.77761  1.0000
  C   C42       1.0  0.27440  0.61170  0.27761  1.0000
  C   C43       1.0  0.27440  0.38830  0.72239  1.0000
  C   C44       1.0  0.72560  0.61170  0.22239  1.0000
  C   C45       1.0  0.22560  0.88830  0.77761  1.0000
  C   C46       1.0  0.77440  0.11170  0.27761  1.0000
  C   C47       1.0  0.77440  0.88830  0.72239  1.0000
  C   C48       1.0  0.22560  0.11170  0.22239  1.0000
  H   H17       1.0  0.23570  0.54830  0.20370  1.0000
  H   H18       1.0  0.76430  0.45170  0.70370  1.0000
  H   H19       1.0  0.76430  0.54830  0.29630  1.0000
  H   H20       1.0  0.23570  0.45170  0.79630  1.0000
  H   H21       1.0  0.73570  0.04830  0.20370  1.0000
  H   H22       1.0  0.26430  0.95170  0.70370  1.0000
  H   H23       1.0  0.26430  0.04830  0.29630  1.0000
  H   H24       1.0  0.73570  0.95170  0.79630  1.0000
  H   H25       1.0  0.76430  0.45170  0.79630  1.0000
  H   H26       1.0  0.23570  0.54830  0.29630  1.0000
  H   H27       1.0  0.23570  0.45170  0.70370  1.0000
  H   H28       1.0  0.76430  0.54830  0.20370  1.0000
  H   H29       1.0  0.26430  0.95170  0.79630  1.0000
  H   H30       1.0  0.73570  0.04830  0.29630  1.0000
  H   H31       1.0  0.73570  0.95170  0.70370  1.0000
  H   H32       1.0  0.26430  0.04830  0.20370  1.0000
