data_image0
_chemical_formula_structural       Zn8O48C6H2C6H2C8H2C10H2C20H2C2H2C8
_chemical_formula_sum              "Zn8 O48 C60 H12"
_cell_length_a       15.5845
_cell_length_b       16.7477
_cell_length_c       16.9751
_cell_angle_alpha    114.048
_cell_angle_beta     100.299
_cell_angle_gamma    101.237

_space_group_name_H-M_alt    "P 1"
_space_group_IT_number       1

loop_
  _space_group_symop_operation_xyz
  'x, y, z'

loop_
  _atom_site_type_symbol
  _atom_site_label
  _atom_site_symmetry_multiplicity
  _atom_site_fract_x
  _atom_site_fract_y
  _atom_site_fract_z
  _atom_site_occupancy
  Zn  Zn1       1.0  0.40934  0.37079  0.73130  1.0000
  Zn  Zn2       1.0  0.59066  0.62921  0.26870  1.0000
  Zn  Zn3       1.0  0.92795  0.37762  0.74233  1.0000
  Zn  Zn4       1.0  0.07205  0.62238  0.25767  1.0000
  Zn  Zn5       1.0  0.57904  0.26643  0.63389  1.0000
  Zn  Zn6       1.0  0.42096  0.73357  0.36611  1.0000
  Zn  Zn7       1.0  0.90820  0.73288  0.36637  1.0000
  Zn  Zn8       1.0  0.09180  0.26712  0.63363  1.0000
  O   O1        1.0  0.49720  0.55040  0.73220  1.0000
  O   O2        1.0  0.50280  0.44960  0.26780  1.0000
  O   O3        1.0  0.41030  0.40680  0.63630  1.0000
  O   O4        1.0  0.58970  0.59320  0.36370  1.0000
  O   O5        1.0  0.53500  0.42270  0.81150  1.0000
  O   O6        1.0  0.46500  0.57730  0.18850  1.0000
  O   O7        1.0  0.62210  0.33280  0.76600  1.0000
  O   O8        1.0  0.37790  0.66720  0.23400  1.0000
  O   O9        1.0  0.49410  0.26560  0.45880  1.0000
  O   O10       1.0  0.50590  0.73440  0.54120  1.0000
  O   O11       1.0  0.57360  0.36320  0.60100  1.0000
  O   O12       1.0  0.42640  0.63680  0.39900  1.0000
  O   O13       1.0  0.65700  0.19840  0.57770  1.0000
  O   O14       1.0  0.34300  0.80160  0.42230  1.0000
  O   O15       1.0  0.67700  0.14990  0.68150  1.0000
  O   O16       1.0  0.32300  0.85010  0.31850  1.0000
  O   O17       1.0  0.54070  0.82280  0.40440  1.0000
  O   O18       1.0  0.45930  0.17720  0.59560  1.0000
  O   O19       1.0  0.63820  0.76380  0.33350  1.0000
  O   O20       1.0  0.36180  0.23620  0.66650  1.0000
  O   O21       1.0  0.85860  0.86310  0.33980  1.0000
  O   O22       1.0  0.14140  0.13690  0.66020  1.0000
  O   O23       1.0  0.83180  0.80100  0.42890  1.0000
  O   O24       1.0  0.16820  0.19900  0.57110  1.0000
  O   O25       1.0  0.01670  0.27210  0.45910  1.0000
  O   O26       1.0  0.98330  0.72790  0.54090  1.0000
  O   O27       1.0  0.08660  0.36660  0.60230  1.0000
  O   O28       1.0  0.91340  0.63340  0.39770  1.0000
  O   O29       1.0  0.96690  0.19040  0.60120  1.0000
  O   O30       1.0  0.03310  0.80960  0.39880  1.0000
  O   O31       1.0  0.86660  0.24550  0.66970  1.0000
  O   O32       1.0  0.13340  0.75450  0.33030  1.0000
  O   O33       1.0  0.92940  0.41590  0.65060  1.0000
  O   O34       1.0  0.07060  0.58410  0.34940  1.0000
  O   O35       1.0  0.03360  0.55210  0.73910  1.0000
  O   O36       1.0  0.96640  0.44790  0.26090  1.0000
  O   O37       1.0  0.87130  0.40960  0.83880  1.0000
  O   O38       1.0  0.12870  0.59040  0.16120  1.0000
  O   O39       1.0  0.78030  0.46940  0.77840  1.0000
  O   O40       1.0  0.21970  0.53060  0.22160  1.0000
  O   O41       1.0  0.66830  0.55260  0.20260  1.0000
  O   O42       1.0  0.33170  0.44740  0.79740  1.0000
  O   O43       1.0  0.63850  0.64710  0.15130  1.0000
  O   O44       1.0  0.36150  0.35290  0.84870  1.0000
  O   O45       1.0  0.85340  0.65940  0.23490  1.0000
  O   O46       1.0  0.14660  0.34060  0.76510  1.0000
  O   O47       1.0  0.95290  0.59540  0.17430  1.0000
  O   O48       1.0  0.04710  0.40460  0.82570  1.0000
  C   C1        1.0  0.77180  0.47410  0.91850  1.0000
  C   C2        1.0  0.22820  0.52590  0.08150  1.0000
  C   C3        1.0  0.46510  0.48380  0.65670  1.0000
  C   C4        1.0  0.53490  0.51620  0.34330  1.0000
  C   C5        1.0  0.02010  0.43200  0.43390  1.0000
  C   C6        1.0  0.97990  0.56800  0.56610  1.0000
  H   H1        1.0  0.03319  0.38578  0.38865  1.0000
  H   H2        1.0  0.96681  0.61422  0.61135  1.0000
  C   C7        1.0  0.48770  0.49260  0.57640  1.0000
  C   C8        1.0  0.51230  0.50740  0.42360  1.0000
  C   C9        1.0  0.50810  0.42290  0.50950  1.0000
  C   C10       1.0  0.49190  0.57710  0.49050  1.0000
  C   C11       1.0  0.51890  0.43060  0.43430  1.0000
  C   C12       1.0  0.48110  0.56940  0.56570  1.0000
  H   H3        1.0  0.53104  0.38318  0.38927  1.0000
  H   H4        1.0  0.46896  0.61682  0.61073  1.0000
  C   C13       1.0  0.52420  0.34290  0.52210  1.0000
  C   C14       1.0  0.47580  0.65710  0.47790  1.0000
  C   C15       1.0  0.68550  0.15060  0.61220  1.0000
  C   C16       1.0  0.31450  0.84940  0.38780  1.0000
  C   C17       1.0  0.72490  0.08010  0.55440  1.0000
  C   C18       1.0  0.27510  0.91990  0.44560  1.0000
  C   C19       1.0  0.66350  0.99230  0.49680  1.0000
  C   C20       1.0  0.33650  0.00770  0.50320  1.0000
  H   H5        1.0  0.60195  0.98340  0.49375  1.0000
  H   H6        1.0  0.39805  0.01660  0.50625  1.0000
  C   C21       1.0  0.68980  0.91800  0.44430  1.0000
  C   C22       1.0  0.31020  0.08200  0.55570  1.0000
  C   C23       1.0  0.61610  0.82710  0.38880  1.0000
  C   C24       1.0  0.38390  0.17290  0.61120  1.0000
  C   C25       1.0  0.82520  0.85850  0.39770  1.0000
  C   C26       1.0  0.17480  0.14150  0.60230  1.0000
  C   C27       1.0  0.78260  0.93150  0.44770  1.0000
  C   C28       1.0  0.21740  0.06850  0.55230  1.0000
  C   C29       1.0  0.84390  0.01920  0.50120  1.0000
  C   C30       1.0  0.15610  0.98080  0.49880  1.0000
  H   H7        1.0  0.90475  0.02881  0.50127  1.0000
  H   H8        1.0  0.09525  0.97119  0.49873  1.0000
  C   C31       1.0  0.81710  0.09280  0.55440  1.0000
  C   C32       1.0  0.18290  0.90720  0.44560  1.0000
  C   C33       1.0  0.88920  0.18290  0.61210  1.0000
  C   C34       1.0  0.11080  0.81710  0.38790  1.0000
  C   C35       1.0  0.04240  0.34840  0.52440  1.0000
  C   C36       1.0  0.95760  0.65160  0.47560  1.0000
  C   C37       1.0  0.01840  0.42640  0.51230  1.0000
  C   C38       1.0  0.98160  0.57360  0.48770  1.0000
  C   C39       1.0  0.99730  0.49510  0.58010  1.0000
  C   C40       1.0  0.00270  0.50490  0.41990  1.0000
  C   C41       1.0  0.98770  0.48860  0.66540  1.0000
  C   C42       1.0  0.01230  0.51140  0.33460  1.0000
  C   C43       1.0  0.80830  0.44910  0.83680  1.0000
  C   C44       1.0  0.19170  0.55090  0.16320  1.0000
  C   C45       1.0  0.60580  0.40090  0.82170  1.0000
  C   C46       1.0  0.39420  0.59910  0.17830  1.0000
  C   C47       1.0  0.67820  0.46020  0.91000  1.0000
  C   C48       1.0  0.32180  0.53980  0.09000  1.0000
  C   C49       1.0  0.65130  0.49720  0.98700  1.0000
  C   C50       1.0  0.34870  0.50280  0.01300  1.0000
  H   H9        1.0  0.58933  0.48883  0.98123  1.0000
  H   H10       1.0  0.41067  0.51117  0.01877  1.0000
  C   C51       1.0  0.83360  0.51900  0.00310  1.0000
  C   C52       1.0  0.16640  0.48100  0.99690  1.0000
  H   H11       1.0  0.89523  0.52498  0.00863  1.0000
  H   H12       1.0  0.10477  0.47502  0.99137  1.0000
  C   C53       1.0  0.80550  0.55590  0.08130  1.0000
  C   C54       1.0  0.19450  0.44410  0.91870  1.0000
  C   C55       1.0  0.87660  0.60740  0.17130  1.0000
  C   C56       1.0  0.12340  0.39260  0.82870  1.0000
  C   C57       1.0  0.71200  0.54600  0.07190  1.0000
  C   C58       1.0  0.28800  0.45400  0.92810  1.0000
  C   C59       1.0  0.67270  0.58620  0.14860  1.0000
  C   C60       1.0  0.32730  0.41380  0.85140  1.0000
