data_image0
_chemical_formula_structural       Co16O128N32Li4C16H8C8H8C8H8C40H8C8H8C8H8C40H8C8H8C8H8C40H8C8H8C8H8C24O8Li8H16O8H16
_chemical_formula_sum              "Co16 O144 N32 Li12 C224 H128"
_cell_length_a       21.3041
_cell_length_b       14.3738
_cell_length_c       21.3818
_cell_angle_alpha    90
_cell_angle_beta     92.286
_cell_angle_gamma    90

_space_group_name_H-M_alt    "P 1"
_space_group_IT_number       1

loop_
  _space_group_symop_operation_xyz
  'x, y, z'

loop_
  _atom_site_type_symbol
  _atom_site_label
  _atom_site_symmetry_multiplicity
  _atom_site_fract_x
  _atom_site_fract_y
  _atom_site_fract_z
  _atom_site_occupancy
  Co  Co1       1.0  0.24447  0.50030  0.24530  1.0000
  Co  Co2       1.0  0.25553  0.50030  0.75470  1.0000
  Co  Co3       1.0  0.74447  0.00030  0.74530  1.0000
  Co  Co4       1.0  0.75553  0.00030  0.25470  1.0000
  Co  Co5       1.0  0.75553  0.49970  0.75470  1.0000
  Co  Co6       1.0  0.74447  0.49970  0.24530  1.0000
  Co  Co7       1.0  0.25553  0.99970  0.25470  1.0000
  Co  Co8       1.0  0.24447  0.99970  0.74530  1.0000
  Co  Co9       1.0  0.00314  0.75313  0.00716  1.0000
  Co  Co10      1.0  0.49686  0.75313  0.99284  1.0000
  Co  Co11      1.0  0.50314  0.25313  0.50716  1.0000
  Co  Co12      1.0  0.99686  0.25313  0.49284  1.0000
  Co  Co13      1.0  0.99686  0.24687  0.99284  1.0000
  Co  Co14      1.0  0.50314  0.24687  0.00716  1.0000
  Co  Co15      1.0  0.49686  0.74687  0.49284  1.0000
  Co  Co16      1.0  0.00314  0.74687  0.50716  1.0000
  O   O1        1.0  0.16342  0.44294  0.23861  1.0000
  O   O2        1.0  0.33658  0.44294  0.76139  1.0000
  O   O3        1.0  0.66342  0.94294  0.73861  1.0000
  O   O4        1.0  0.83658  0.94294  0.26139  1.0000
  O   O5        1.0  0.83658  0.55706  0.76139  1.0000
  O   O6        1.0  0.66342  0.55706  0.23861  1.0000
  O   O7        1.0  0.33658  0.05706  0.26139  1.0000
  O   O8        1.0  0.16342  0.05706  0.73861  1.0000
  O   O9        1.0  0.06449  0.46079  0.26694  1.0000
  O   O10       1.0  0.43551  0.46079  0.73306  1.0000
  O   O11       1.0  0.56449  0.96079  0.76694  1.0000
  O   O12       1.0  0.93551  0.96079  0.23306  1.0000
  O   O13       1.0  0.93551  0.53921  0.73306  1.0000
  O   O14       1.0  0.56449  0.53921  0.26694  1.0000
  O   O15       1.0  0.43551  0.03921  0.23306  1.0000
  O   O16       1.0  0.06449  0.03921  0.76694  1.0000
  O   O17       1.0  0.31540  0.57983  0.26302  1.0000
  O   O18       1.0  0.18460  0.57983  0.73698  1.0000
  O   O19       1.0  0.81540  0.07983  0.76302  1.0000
  O   O20       1.0  0.68460  0.07983  0.23698  1.0000
  O   O21       1.0  0.68460  0.42017  0.73698  1.0000
  O   O22       1.0  0.81540  0.42017  0.26302  1.0000
  O   O23       1.0  0.18460  0.92017  0.23698  1.0000
  O   O24       1.0  0.31540  0.92017  0.76302  1.0000
  O   O25       1.0  0.34054  0.71537  0.30949  1.0000
  O   O26       1.0  0.15946  0.71537  0.69051  1.0000
  O   O27       1.0  0.84054  0.21537  0.80949  1.0000
  O   O28       1.0  0.65946  0.21537  0.19051  1.0000
  O   O29       1.0  0.65946  0.28463  0.69051  1.0000
  O   O30       1.0  0.84054  0.28463  0.30949  1.0000
  O   O31       1.0  0.15946  0.78463  0.19051  1.0000
  O   O32       1.0  0.34054  0.78463  0.80949  1.0000
  O   O33       1.0  0.23288  0.55646  0.16427  1.0000
  O   O34       1.0  0.26712  0.55646  0.83573  1.0000
  O   O35       1.0  0.73288  0.05646  0.66427  1.0000
  O   O36       1.0  0.76712  0.05646  0.33573  1.0000
  O   O37       1.0  0.76712  0.44354  0.83573  1.0000
  O   O38       1.0  0.73288  0.44354  0.16427  1.0000
  O   O39       1.0  0.26712  0.94354  0.33573  1.0000
  O   O40       1.0  0.23288  0.94354  0.66427  1.0000
  O   O41       1.0  0.26404  0.54112  0.06626  1.0000
  O   O42       1.0  0.23596  0.54112  0.93374  1.0000
  O   O43       1.0  0.76404  0.04112  0.56626  1.0000
  O   O44       1.0  0.73596  0.04112  0.43374  1.0000
  O   O45       1.0  0.73596  0.45888  0.93374  1.0000
  O   O46       1.0  0.76404  0.45888  0.06626  1.0000
  O   O47       1.0  0.23596  0.95888  0.43374  1.0000
  O   O48       1.0  0.26404  0.95888  0.56626  1.0000
  O   O49       1.0  0.26705  0.42219  0.31584  1.0000
  O   O50       1.0  0.23295  0.42219  0.68416  1.0000
  O   O51       1.0  0.76705  0.92219  0.81584  1.0000
  O   O52       1.0  0.73295  0.92219  0.18416  1.0000
  O   O53       1.0  0.73295  0.57781  0.68416  1.0000
  O   O54       1.0  0.76705  0.57781  0.31584  1.0000
  O   O55       1.0  0.23295  0.07781  0.18416  1.0000
  O   O56       1.0  0.26705  0.07781  0.81584  1.0000
  O   O57       1.0  0.31711  0.28862  0.33964  1.0000
  O   O58       1.0  0.18289  0.28862  0.66036  1.0000
  O   O59       1.0  0.81711  0.78862  0.83964  1.0000
  O   O60       1.0  0.68289  0.78862  0.16036  1.0000
  O   O61       1.0  0.68289  0.71138  0.66036  1.0000
  O   O62       1.0  0.81711  0.71138  0.33964  1.0000
  O   O63       1.0  0.18289  0.21138  0.16036  1.0000
  O   O64       1.0  0.31711  0.21138  0.83964  1.0000
  O   O65       1.0  0.99529  0.78663  0.92007  1.0000
  O   O66       1.0  0.50471  0.78663  0.07993  1.0000
  O   O67       1.0  0.49529  0.28663  0.42007  1.0000
  O   O68       1.0  0.00471  0.28663  0.57993  1.0000
  O   O69       1.0  0.00471  0.21337  0.07993  1.0000
  O   O70       1.0  0.49529  0.21337  0.92007  1.0000
  O   O71       1.0  0.50471  0.71337  0.57993  1.0000
  O   O72       1.0  0.99529  0.71337  0.42007  1.0000
  O   O73       1.0  0.96476  0.72489  0.82730  1.0000
  O   O74       1.0  0.53524  0.72489  0.17270  1.0000
  O   O75       1.0  0.46476  0.22489  0.32730  1.0000
  O   O76       1.0  0.03524  0.22489  0.67270  1.0000
  O   O77       1.0  0.03524  0.27511  0.17270  1.0000
  O   O78       1.0  0.46476  0.27511  0.82730  1.0000
  O   O79       1.0  0.53524  0.77511  0.67270  1.0000
  O   O80       1.0  0.96476  0.77511  0.32730  1.0000
  O   O81       1.0  0.99978  0.69445  0.08722  1.0000
  O   O82       1.0  0.50022  0.69445  0.91278  1.0000
  O   O83       1.0  0.49978  0.19445  0.58722  1.0000
  O   O84       1.0  0.00022  0.19445  0.41278  1.0000
  O   O85       1.0  0.00022  0.30555  0.91278  1.0000
  O   O86       1.0  0.49978  0.30555  0.08722  1.0000
  O   O87       1.0  0.50022  0.80555  0.41278  1.0000
  O   O88       1.0  0.99978  0.80555  0.58722  1.0000
  O   O89       1.0  0.96071  0.57097  0.13448  1.0000
  O   O90       1.0  0.53929  0.57097  0.86552  1.0000
  O   O91       1.0  0.46071  0.07097  0.63448  1.0000
  O   O92       1.0  0.03929  0.07097  0.36552  1.0000
  O   O93       1.0  0.03929  0.42903  0.86552  1.0000
  O   O94       1.0  0.46071  0.42903  0.13448  1.0000
  O   O95       1.0  0.53929  0.92903  0.36552  1.0000
  O   O96       1.0  0.96071  0.92903  0.63448  1.0000
  O   O97       1.0  0.08291  0.69871  0.99390  1.0000
  O   O98       1.0  0.41709  0.69871  0.00610  1.0000
  O   O99       1.0  0.58291  0.19871  0.49390  1.0000
  O   O100      1.0  0.91709  0.19871  0.50610  1.0000
  O   O101      1.0  0.91709  0.30129  0.00610  1.0000
  O   O102      1.0  0.58291  0.30129  0.99390  1.0000
  O   O103      1.0  0.41709  0.80129  0.50610  1.0000
  O   O104      1.0  0.08291  0.80129  0.49390  1.0000
  O   O105      1.0  0.18534  0.72366  0.01340  1.0000
  O   O106      1.0  0.31466  0.72366  0.98660  1.0000
  O   O107      1.0  0.68534  0.22366  0.51340  1.0000
  O   O108      1.0  0.81466  0.22366  0.48660  1.0000
  O   O109      1.0  0.81466  0.27634  0.98660  1.0000
  O   O110      1.0  0.68534  0.27634  0.01340  1.0000
  O   O111      1.0  0.31466  0.77634  0.48660  1.0000
  O   O112      1.0  0.18534  0.77634  0.51340  1.0000
  O   O113      1.0  0.93381  0.83211  0.02763  1.0000
  O   O114      1.0  0.56619  0.83211  0.97237  1.0000
  O   O115      1.0  0.43381  0.33211  0.52763  1.0000
  O   O116      1.0  0.06619  0.33211  0.47237  1.0000
  O   O117      1.0  0.06619  0.16789  0.97237  1.0000
  O   O118      1.0  0.43381  0.16789  0.02763  1.0000
  O   O119      1.0  0.56619  0.66789  0.47237  1.0000
  O   O120      1.0  0.93381  0.66789  0.52763  1.0000
  O   O121      1.0  0.91390  0.96972  0.07221  1.0000
  O   O122      1.0  0.58610  0.96972  0.92779  1.0000
  O   O123      1.0  0.41390  0.46972  0.57221  1.0000
  O   O124      1.0  0.08610  0.46972  0.42779  1.0000
  O   O125      1.0  0.08610  0.03028  0.92779  1.0000
  O   O126      1.0  0.41390  0.03028  0.07221  1.0000
  O   O127      1.0  0.58610  0.53028  0.42779  1.0000
  O   O128      1.0  0.91390  0.53028  0.57221  1.0000
  N   N1        1.0  0.20206  0.58902  0.28907  1.0000
  N   N2        1.0  0.29794  0.58902  0.71093  1.0000
  N   N3        1.0  0.70206  0.08902  0.78907  1.0000
  N   N4        1.0  0.79794  0.08902  0.21093  1.0000
  N   N5        1.0  0.79794  0.41098  0.71093  1.0000
  N   N6        1.0  0.70206  0.41098  0.28907  1.0000
  N   N7        1.0  0.29794  0.91098  0.21093  1.0000
  N   N8        1.0  0.20206  0.91098  0.78907  1.0000
  N   N9        1.0  0.28553  0.41032  0.20143  1.0000
  N   N10       1.0  0.21447  0.41032  0.79857  1.0000
  N   N11       1.0  0.78553  0.91032  0.70143  1.0000
  N   N12       1.0  0.71447  0.91032  0.29857  1.0000
  N   N13       1.0  0.71447  0.58968  0.79857  1.0000
  N   N14       1.0  0.78553  0.58968  0.20143  1.0000
  N   N15       1.0  0.21447  0.08968  0.29857  1.0000
  N   N16       1.0  0.28553  0.08968  0.70143  1.0000
  N   N17       1.0  0.95746  0.65096  0.98108  1.0000
  N   N18       1.0  0.54254  0.65096  0.01892  1.0000
  N   N19       1.0  0.45746  0.15096  0.48108  1.0000
  N   N20       1.0  0.04254  0.15096  0.51892  1.0000
  N   N21       1.0  0.04254  0.34904  0.01892  1.0000
  N   N22       1.0  0.45746  0.34904  0.98108  1.0000
  N   N23       1.0  0.54254  0.84904  0.51892  1.0000
  N   N24       1.0  0.95746  0.84904  0.48108  1.0000
  N   N25       1.0  0.05056  0.85190  0.03663  1.0000
  N   N26       1.0  0.44944  0.85190  0.96337  1.0000
  N   N27       1.0  0.55056  0.35190  0.53663  1.0000
  N   N28       1.0  0.94944  0.35190  0.46337  1.0000
  N   N29       1.0  0.94944  0.14810  0.96337  1.0000
  N   N30       1.0  0.55056  0.14810  0.03663  1.0000
  N   N31       1.0  0.44944  0.64810  0.46337  1.0000
  N   N32       1.0  0.05056  0.64810  0.53663  1.0000
  Li  Li1       1.0  0.25000  0.63240  0.00000  1.0000
  Li  Li2       1.0  0.75000  0.13240  0.50000  1.0000
  Li  Li3       1.0  0.75000  0.36760  0.00000  1.0000
  Li  Li4       1.0  0.25000  0.86760  0.50000  1.0000
  C   C1        1.0  0.14064  0.57741  0.29637  1.0000
  C   C2        1.0  0.35936  0.57741  0.70363  1.0000
  C   C3        1.0  0.64064  0.07741  0.79637  1.0000
  C   C4        1.0  0.85936  0.07741  0.20363  1.0000
  C   C5        1.0  0.85936  0.42259  0.70363  1.0000
  C   C6        1.0  0.64064  0.42259  0.29637  1.0000
  C   C7        1.0  0.35936  0.92259  0.20363  1.0000
  C   C8        1.0  0.14064  0.92259  0.79637  1.0000
  C   C9        1.0  0.10777  0.64290  0.32864  1.0000
  C   C10       1.0  0.39223  0.64290  0.67136  1.0000
  C   C11       1.0  0.60777  0.14290  0.82864  1.0000
  C   C12       1.0  0.89223  0.14290  0.17136  1.0000
  C   C13       1.0  0.89223  0.35710  0.67136  1.0000
  C   C14       1.0  0.60777  0.35710  0.32864  1.0000
  C   C15       1.0  0.39223  0.85710  0.17136  1.0000
  C   C16       1.0  0.10777  0.85710  0.82864  1.0000
  H   H1        1.0  0.06490  0.63640  0.33400  1.0000
  H   H2        1.0  0.43510  0.63640  0.66600  1.0000
  H   H3        1.0  0.56490  0.13640  0.83400  1.0000
  H   H4        1.0  0.93510  0.13640  0.16600  1.0000
  H   H5        1.0  0.93510  0.36360  0.66600  1.0000
  H   H6        1.0  0.56490  0.36360  0.33400  1.0000
  H   H7        1.0  0.43510  0.86360  0.16600  1.0000
  H   H8        1.0  0.06490  0.86360  0.83400  1.0000
  C   C17       1.0  0.14060  0.71924  0.35297  1.0000
  C   C18       1.0  0.35940  0.71924  0.64703  1.0000
  C   C19       1.0  0.64060  0.21924  0.85297  1.0000
  C   C20       1.0  0.85940  0.21924  0.14703  1.0000
  C   C21       1.0  0.85940  0.28076  0.64703  1.0000
  C   C22       1.0  0.64060  0.28076  0.35297  1.0000
  C   C23       1.0  0.35940  0.78076  0.14703  1.0000
  C   C24       1.0  0.14060  0.78076  0.85297  1.0000
  H   H9        1.0  0.11930  0.76430  0.37510  1.0000
  H   H10       1.0  0.38070  0.76430  0.62490  1.0000
  H   H11       1.0  0.61930  0.26430  0.87510  1.0000
  H   H12       1.0  0.88070  0.26430  0.12490  1.0000
  H   H13       1.0  0.88070  0.23570  0.62490  1.0000
  H   H14       1.0  0.61930  0.23570  0.37510  1.0000
  H   H15       1.0  0.38070  0.73570  0.12490  1.0000
  H   H16       1.0  0.11930  0.73570  0.87510  1.0000
  C   C25       1.0  0.20472  0.72944  0.34481  1.0000
  C   C26       1.0  0.29528  0.72944  0.65519  1.0000
  C   C27       1.0  0.70472  0.22944  0.84481  1.0000
  C   C28       1.0  0.79528  0.22944  0.15519  1.0000
  C   C29       1.0  0.79528  0.27056  0.65519  1.0000
  C   C30       1.0  0.70472  0.27056  0.34481  1.0000
  C   C31       1.0  0.29528  0.77056  0.15519  1.0000
  C   C32       1.0  0.20472  0.77056  0.84481  1.0000
  H   H17       1.0  0.22660  0.78040  0.36130  1.0000
  H   H18       1.0  0.27340  0.78040  0.63870  1.0000
  H   H19       1.0  0.72660  0.28040  0.86130  1.0000
  H   H20       1.0  0.77340  0.28040  0.13870  1.0000
  H   H21       1.0  0.77340  0.21960  0.63870  1.0000
  H   H22       1.0  0.72660  0.21960  0.36130  1.0000
  H   H23       1.0  0.27340  0.71960  0.13870  1.0000
  H   H24       1.0  0.22660  0.71960  0.86130  1.0000
  C   C33       1.0  0.23492  0.66148  0.31144  1.0000
  C   C34       1.0  0.26508  0.66148  0.68856  1.0000
  C   C35       1.0  0.73492  0.16148  0.81144  1.0000
  C   C36       1.0  0.76508  0.16148  0.18856  1.0000
  C   C37       1.0  0.76508  0.33852  0.68856  1.0000
  C   C38       1.0  0.73492  0.33852  0.31144  1.0000
  C   C39       1.0  0.26508  0.83852  0.18856  1.0000
  C   C40       1.0  0.23492  0.83852  0.81144  1.0000
  C   C41       1.0  0.11902  0.48784  0.26594  1.0000
  C   C42       1.0  0.38098  0.48784  0.73406  1.0000
  C   C43       1.0  0.61902  0.98784  0.76594  1.0000
  C   C44       1.0  0.88098  0.98784  0.23406  1.0000
  C   C45       1.0  0.88098  0.51216  0.73406  1.0000
  C   C46       1.0  0.61902  0.51216  0.26594  1.0000
  C   C47       1.0  0.38098  0.01216  0.23406  1.0000
  C   C48       1.0  0.11902  0.01216  0.76594  1.0000
  C   C49       1.0  0.30247  0.65490  0.29444  1.0000
  C   C50       1.0  0.19753  0.65490  0.70556  1.0000
  C   C51       1.0  0.80247  0.15490  0.79444  1.0000
  C   C52       1.0  0.69753  0.15490  0.20556  1.0000
  C   C53       1.0  0.69753  0.34510  0.70556  1.0000
  C   C54       1.0  0.80247  0.34510  0.29444  1.0000
  C   C55       1.0  0.19753  0.84510  0.20556  1.0000
  C   C56       1.0  0.30247  0.84510  0.79444  1.0000
  C   C57       1.0  0.28718  0.41976  0.13983  1.0000
  C   C58       1.0  0.21282  0.41976  0.86017  1.0000
  C   C59       1.0  0.78718  0.91976  0.63983  1.0000
  C   C60       1.0  0.71282  0.91976  0.36017  1.0000
  C   C61       1.0  0.71282  0.58024  0.86017  1.0000
  C   C62       1.0  0.78718  0.58024  0.13983  1.0000
  C   C63       1.0  0.21282  0.08024  0.36017  1.0000
  C   C64       1.0  0.28718  0.08024  0.63983  1.0000
  C   C65       1.0  0.31289  0.34952  0.10471  1.0000
  C   C66       1.0  0.18711  0.34952  0.89529  1.0000
  C   C67       1.0  0.81289  0.84952  0.60471  1.0000
  C   C68       1.0  0.68711  0.84952  0.39529  1.0000
  C   C69       1.0  0.68711  0.65048  0.89529  1.0000
  C   C70       1.0  0.81289  0.65048  0.10471  1.0000
  C   C71       1.0  0.18711  0.15048  0.39529  1.0000
  C   C72       1.0  0.31289  0.15048  0.60471  1.0000
  H   H25       1.0  0.31330  0.35360  0.06130  1.0000
  H   H26       1.0  0.18670  0.35360  0.93870  1.0000
  H   H27       1.0  0.81330  0.85360  0.56130  1.0000
  H   H28       1.0  0.68670  0.85360  0.43870  1.0000
  H   H29       1.0  0.68670  0.64640  0.93870  1.0000
  H   H30       1.0  0.81330  0.64640  0.06130  1.0000
  H   H31       1.0  0.18670  0.14640  0.43870  1.0000
  H   H32       1.0  0.31330  0.14640  0.56130  1.0000
  C   C73       1.0  0.33818  0.27242  0.13626  1.0000
  C   C74       1.0  0.16182  0.27242  0.86374  1.0000
  C   C75       1.0  0.83818  0.77242  0.63626  1.0000
  C   C76       1.0  0.66182  0.77242  0.36374  1.0000
  C   C77       1.0  0.66182  0.72758  0.86374  1.0000
  C   C78       1.0  0.83818  0.72758  0.13626  1.0000
  C   C79       1.0  0.16182  0.22758  0.36374  1.0000
  C   C80       1.0  0.33818  0.22758  0.63626  1.0000
  H   H33       1.0  0.35580  0.22450  0.11360  1.0000
  H   H34       1.0  0.14420  0.22450  0.88640  1.0000
  H   H35       1.0  0.85580  0.72450  0.61360  1.0000
  H   H36       1.0  0.64420  0.72450  0.38640  1.0000
  H   H37       1.0  0.64420  0.77550  0.88640  1.0000
  H   H38       1.0  0.85580  0.77550  0.11360  1.0000
  H   H39       1.0  0.14420  0.27550  0.38640  1.0000
  H   H40       1.0  0.35580  0.27550  0.61360  1.0000
  C   C81       1.0  0.33740  0.26630  0.20113  1.0000
  C   C82       1.0  0.16260  0.26630  0.79887  1.0000
  C   C83       1.0  0.83740  0.76630  0.70113  1.0000
  C   C84       1.0  0.66260  0.76630  0.29887  1.0000
  C   C85       1.0  0.66260  0.73370  0.79887  1.0000
  C   C86       1.0  0.83740  0.73370  0.20113  1.0000
  C   C87       1.0  0.16260  0.23370  0.29887  1.0000
  C   C88       1.0  0.33740  0.23370  0.70113  1.0000
  H   H41       1.0  0.35550  0.21600  0.22240  1.0000
  H   H42       1.0  0.14450  0.21600  0.77760  1.0000
  H   H43       1.0  0.85550  0.71600  0.72240  1.0000
  H   H44       1.0  0.64450  0.71600  0.27760  1.0000
  H   H45       1.0  0.64450  0.78400  0.77760  1.0000
  H   H46       1.0  0.85550  0.78400  0.22240  1.0000
  H   H47       1.0  0.14450  0.28400  0.27760  1.0000
  H   H48       1.0  0.35550  0.28400  0.72240  1.0000
  C   C89       1.0  0.30899  0.33733  0.23284  1.0000
  C   C90       1.0  0.19101  0.33733  0.76716  1.0000
  C   C91       1.0  0.80899  0.83733  0.73284  1.0000
  C   C92       1.0  0.69101  0.83733  0.26716  1.0000
  C   C93       1.0  0.69101  0.66267  0.76716  1.0000
  C   C94       1.0  0.80899  0.66267  0.23284  1.0000
  C   C95       1.0  0.19101  0.16267  0.26716  1.0000
  C   C96       1.0  0.30899  0.16267  0.73284  1.0000
  C   C97       1.0  0.25979  0.51215  0.11977  1.0000
  C   C98       1.0  0.24021  0.51215  0.88023  1.0000
  C   C99       1.0  0.75979  0.01215  0.61977  1.0000
  C   C100      1.0  0.74021  0.01215  0.38023  1.0000
  C   C101      1.0  0.74021  0.48785  0.88023  1.0000
  C   C102      1.0  0.75979  0.48785  0.11977  1.0000
  C   C103      1.0  0.24021  0.98785  0.38023  1.0000
  C   C104      1.0  0.25979  0.98785  0.61977  1.0000
  C   C105      1.0  0.29840  0.34657  0.30194  1.0000
  C   C106      1.0  0.20160  0.34657  0.69806  1.0000
  C   C107      1.0  0.79840  0.84657  0.80194  1.0000
  C   C108      1.0  0.70160  0.84657  0.19806  1.0000
  C   C109      1.0  0.70160  0.65343  0.69806  1.0000
  C   C110      1.0  0.79840  0.65343  0.30194  1.0000
  C   C111      1.0  0.20160  0.15343  0.19806  1.0000
  C   C112      1.0  0.29840  0.15343  0.80194  1.0000
  C   C113      1.0  0.94230  0.64266  0.92040  1.0000
  C   C114      1.0  0.55770  0.64266  0.07960  1.0000
  C   C115      1.0  0.44230  0.14266  0.42040  1.0000
  C   C116      1.0  0.05770  0.14266  0.57960  1.0000
  C   C117      1.0  0.05770  0.35734  0.07960  1.0000
  C   C118      1.0  0.44230  0.35734  0.92040  1.0000
  C   C119      1.0  0.55770  0.85734  0.57960  1.0000
  C   C120      1.0  0.94230  0.85734  0.42040  1.0000
  C   C121      1.0  0.90775  0.56606  0.89998  1.0000
  C   C122      1.0  0.59225  0.56606  0.10002  1.0000
  C   C123      1.0  0.40775  0.06606  0.39998  1.0000
  C   C124      1.0  0.09225  0.06606  0.60002  1.0000
  C   C125      1.0  0.09225  0.43394  0.10002  1.0000
  C   C126      1.0  0.40775  0.43394  0.89998  1.0000
  C   C127      1.0  0.59225  0.93394  0.60002  1.0000
  C   C128      1.0  0.90775  0.93394  0.39998  1.0000
  H   H49       1.0  0.89590  0.55880  0.85790  1.0000
  H   H50       1.0  0.60410  0.55880  0.14210  1.0000
  H   H51       1.0  0.39590  0.05880  0.35790  1.0000
  H   H52       1.0  0.10410  0.05880  0.64210  1.0000
  H   H53       1.0  0.10410  0.44120  0.14210  1.0000
  H   H54       1.0  0.39590  0.44120  0.85790  1.0000
  H   H55       1.0  0.60410  0.94120  0.64210  1.0000
  H   H56       1.0  0.89590  0.94120  0.35790  1.0000
  C   C129      1.0  0.89122  0.50040  0.94394  1.0000
  C   C130      1.0  0.60878  0.50040  0.05606  1.0000
  C   C131      1.0  0.39122  0.00040  0.44394  1.0000
  C   C132      1.0  0.10878  0.00040  0.55606  1.0000
  C   C133      1.0  0.10878  0.49960  0.05606  1.0000
  C   C134      1.0  0.39122  0.49960  0.94394  1.0000
  C   C135      1.0  0.60878  0.99960  0.55606  1.0000
  C   C136      1.0  0.89122  0.99960  0.44394  1.0000
  H   H57       1.0  0.86810  0.44840  0.93110  1.0000
  H   H58       1.0  0.63190  0.44840  0.06890  1.0000
  H   H59       1.0  0.36810  0.94840  0.43110  1.0000
  H   H60       1.0  0.13190  0.94840  0.56890  1.0000
  H   H61       1.0  0.13190  0.55160  0.06890  1.0000
  H   H62       1.0  0.36810  0.55160  0.93110  1.0000
  H   H63       1.0  0.63190  0.05160  0.56890  1.0000
  H   H64       1.0  0.86810  0.05160  0.43110  1.0000
  C   C137      1.0  0.90842  0.51094  0.00612  1.0000
  C   C138      1.0  0.59158  0.51094  0.99388  1.0000
  C   C139      1.0  0.40842  0.01094  0.50612  1.0000
  C   C140      1.0  0.09158  0.01094  0.49388  1.0000
  C   C141      1.0  0.09158  0.48906  0.99388  1.0000
  C   C142      1.0  0.40842  0.48906  0.00612  1.0000
  C   C143      1.0  0.59158  0.98906  0.49388  1.0000
  C   C144      1.0  0.90842  0.98906  0.50612  1.0000
  H   H65       1.0  0.89730  0.46660  0.03540  1.0000
  H   H66       1.0  0.60270  0.46660  0.96460  1.0000
  H   H67       1.0  0.39730  0.96660  0.53540  1.0000
  H   H68       1.0  0.10270  0.96660  0.46460  1.0000
  H   H69       1.0  0.10270  0.53340  0.96460  1.0000
  H   H70       1.0  0.39730  0.53340  0.03540  1.0000
  H   H71       1.0  0.60270  0.03340  0.46460  1.0000
  H   H72       1.0  0.89730  0.03340  0.53540  1.0000
  C   C145      1.0  0.94244  0.58853  0.02413  1.0000
  C   C146      1.0  0.55756  0.58853  0.97587  1.0000
  C   C147      1.0  0.44244  0.08853  0.52413  1.0000
  C   C148      1.0  0.05756  0.08853  0.47587  1.0000
  C   C149      1.0  0.05756  0.41147  0.97587  1.0000
  C   C150      1.0  0.44244  0.41147  0.02413  1.0000
  C   C151      1.0  0.55756  0.91147  0.47587  1.0000
  C   C152      1.0  0.94244  0.91147  0.52413  1.0000
  C   C153      1.0  0.96812  0.72306  0.88456  1.0000
  C   C154      1.0  0.53188  0.72306  0.11544  1.0000
  C   C155      1.0  0.46812  0.22306  0.38456  1.0000
  C   C156      1.0  0.03188  0.22306  0.61544  1.0000
  C   C157      1.0  0.03188  0.27694  0.11544  1.0000
  C   C158      1.0  0.46812  0.27694  0.88456  1.0000
  C   C159      1.0  0.53188  0.77694  0.61544  1.0000
  C   C160      1.0  0.96812  0.77694  0.38456  1.0000
  C   C161      1.0  0.96860  0.61672  0.08748  1.0000
  C   C162      1.0  0.53140  0.61672  0.91252  1.0000
  C   C163      1.0  0.46860  0.11672  0.58748  1.0000
  C   C164      1.0  0.03140  0.11672  0.41252  1.0000
  C   C165      1.0  0.03140  0.38328  0.91252  1.0000
  C   C166      1.0  0.46860  0.38328  0.08748  1.0000
  C   C167      1.0  0.53140  0.88328  0.41252  1.0000
  C   C168      1.0  0.96860  0.88328  0.58748  1.0000
  C   C169      1.0  0.11270  0.84323  0.03811  1.0000
  C   C170      1.0  0.38730  0.84323  0.96189  1.0000
  C   C171      1.0  0.61270  0.34323  0.53811  1.0000
  C   C172      1.0  0.88730  0.34323  0.46189  1.0000
  C   C173      1.0  0.88730  0.15677  0.96189  1.0000
  C   C174      1.0  0.61270  0.15677  0.03811  1.0000
  C   C175      1.0  0.38730  0.65677  0.46189  1.0000
  C   C176      1.0  0.11270  0.65677  0.53811  1.0000
  C   C177      1.0  0.14973  0.91446  0.06204  1.0000
  C   C178      1.0  0.35027  0.91446  0.93796  1.0000
  C   C179      1.0  0.64973  0.41446  0.56204  1.0000
  C   C180      1.0  0.85027  0.41446  0.43796  1.0000
  C   C181      1.0  0.85027  0.08554  0.93796  1.0000
  C   C182      1.0  0.64973  0.08554  0.06204  1.0000
  C   C183      1.0  0.35027  0.58554  0.43796  1.0000
  C   C184      1.0  0.14973  0.58554  0.56204  1.0000
  H   H73       1.0  0.19330  0.91090  0.06200  1.0000
  H   H74       1.0  0.30670  0.91090  0.93800  1.0000
  H   H75       1.0  0.69330  0.41090  0.56200  1.0000
  H   H76       1.0  0.80670  0.41090  0.43800  1.0000
  H   H77       1.0  0.80670  0.08910  0.93800  1.0000
  H   H78       1.0  0.69330  0.08910  0.06200  1.0000
  H   H79       1.0  0.30670  0.58910  0.43800  1.0000
  H   H80       1.0  0.19330  0.58910  0.56200  1.0000
  C   C185      1.0  0.12003  0.99182  0.08628  1.0000
  C   C186      1.0  0.37997  0.99182  0.91372  1.0000
  C   C187      1.0  0.62003  0.49182  0.58628  1.0000
  C   C188      1.0  0.87997  0.49182  0.41372  1.0000
  C   C189      1.0  0.87997  0.00818  0.91372  1.0000
  C   C190      1.0  0.62003  0.00818  0.08628  1.0000
  C   C191      1.0  0.37997  0.50818  0.41372  1.0000
  C   C192      1.0  0.12003  0.50818  0.58628  1.0000
  H   H81       1.0  0.14410  0.04070  0.10270  1.0000
  H   H82       1.0  0.35590  0.04070  0.89730  1.0000
  H   H83       1.0  0.64410  0.54070  0.60270  1.0000
  H   H84       1.0  0.85590  0.54070  0.39730  1.0000
  H   H85       1.0  0.85590  0.95930  0.89730  1.0000
  H   H86       1.0  0.64410  0.95930  0.10270  1.0000
  H   H87       1.0  0.35590  0.45930  0.39730  1.0000
  H   H88       1.0  0.14410  0.45930  0.60270  1.0000
  C   C193      1.0  0.05474  0.99704  0.08638  1.0000
  C   C194      1.0  0.44526  0.99704  0.91362  1.0000
  C   C195      1.0  0.55474  0.49704  0.58638  1.0000
  C   C196      1.0  0.94526  0.49704  0.41362  1.0000
  C   C197      1.0  0.94526  0.00296  0.91362  1.0000
  C   C198      1.0  0.55474  0.00296  0.08638  1.0000
  C   C199      1.0  0.44526  0.50296  0.41362  1.0000
  C   C200      1.0  0.05474  0.50296  0.58638  1.0000
  H   H89       1.0  0.03490  0.04800  0.10370  1.0000
  H   H90       1.0  0.46510  0.04800  0.89630  1.0000
  H   H91       1.0  0.53490  0.54800  0.60370  1.0000
  H   H92       1.0  0.96510  0.54800  0.39630  1.0000
  H   H93       1.0  0.96510  0.95200  0.89630  1.0000
  H   H94       1.0  0.53490  0.95200  0.10370  1.0000
  H   H95       1.0  0.46510  0.45200  0.39630  1.0000
  H   H96       1.0  0.03490  0.45200  0.60370  1.0000
  C   C201      1.0  0.02041  0.92463  0.06014  1.0000
  C   C202      1.0  0.47959  0.92463  0.93986  1.0000
  C   C203      1.0  0.52041  0.42463  0.56014  1.0000
  C   C204      1.0  0.97959  0.42463  0.43986  1.0000
  C   C205      1.0  0.97959  0.07537  0.93986  1.0000
  C   C206      1.0  0.52041  0.07537  0.06014  1.0000
  C   C207      1.0  0.47959  0.57537  0.43986  1.0000
  C   C208      1.0  0.02041  0.57537  0.56014  1.0000
  C   C209      1.0  0.13047  0.74915  0.01342  1.0000
  C   C210      1.0  0.36953  0.74915  0.98658  1.0000
  C   C211      1.0  0.63047  0.24915  0.51342  1.0000
  C   C212      1.0  0.86953  0.24915  0.48658  1.0000
  C   C213      1.0  0.86953  0.25085  0.98658  1.0000
  C   C214      1.0  0.63047  0.25085  0.01342  1.0000
  C   C215      1.0  0.36953  0.75085  0.48658  1.0000
  C   C216      1.0  0.13047  0.75085  0.51342  1.0000
  C   C217      1.0  0.95044  0.91128  0.05419  1.0000
  C   C218      1.0  0.54956  0.91128  0.94581  1.0000
  C   C219      1.0  0.45044  0.41128  0.55419  1.0000
  C   C220      1.0  0.04956  0.41128  0.44581  1.0000
  C   C221      1.0  0.04956  0.08872  0.94581  1.0000
  C   C222      1.0  0.45044  0.08872  0.05419  1.0000
  C   C223      1.0  0.54956  0.58872  0.44581  1.0000
  C   C224      1.0  0.95044  0.58872  0.55419  1.0000
  O   O129      1.0  0.96991  0.29319  0.30381  1.0000
  O   O130      1.0  0.53009  0.29319  0.69619  1.0000
  O   O131      1.0  0.46991  0.79319  0.80381  1.0000
  O   O132      1.0  0.03009  0.79319  0.19619  1.0000
  O   O133      1.0  0.03009  0.70681  0.69619  1.0000
  O   O134      1.0  0.46991  0.70681  0.30381  1.0000
  O   O135      1.0  0.53009  0.20681  0.19619  1.0000
  O   O136      1.0  0.96991  0.20681  0.80381  1.0000
  Li  Li5       1.0  0.00510  0.36150  0.23900  1.0000
  Li  Li6       1.0  0.49490  0.36150  0.76100  1.0000
  Li  Li7       1.0  0.50510  0.86150  0.73900  1.0000
  Li  Li8       1.0  0.99490  0.86150  0.26100  1.0000
  Li  Li9       1.0  0.99490  0.63850  0.76100  1.0000
  Li  Li10      1.0  0.50510  0.63850  0.23900  1.0000
  Li  Li11      1.0  0.49490  0.13850  0.26100  1.0000
  Li  Li12      1.0  0.00510  0.13850  0.73900  1.0000
  H   H97       1.0  0.98300  0.24600  0.33100  1.0000
  H   H98       1.0  0.51700  0.24600  0.66900  1.0000
  H   H99       1.0  0.48300  0.74600  0.83100  1.0000
  H   H100      1.0  0.01700  0.74600  0.16900  1.0000
  H   H101      1.0  0.01700  0.75400  0.66900  1.0000
  H   H102      1.0  0.48300  0.75400  0.33100  1.0000
  H   H103      1.0  0.51700  0.25400  0.16900  1.0000
  H   H104      1.0  0.98300  0.25400  0.83100  1.0000
  H   H105      1.0  0.93100  0.31100  0.30600  1.0000
  H   H106      1.0  0.56900  0.31100  0.69400  1.0000
  H   H107      1.0  0.43100  0.81100  0.80600  1.0000
  H   H108      1.0  0.06900  0.81100  0.19400  1.0000
  H   H109      1.0  0.06900  0.68900  0.69400  1.0000
  H   H110      1.0  0.43100  0.68900  0.30600  1.0000
  H   H111      1.0  0.56900  0.18900  0.19400  1.0000
  H   H112      1.0  0.93100  0.18900  0.80600  1.0000
  O   O137      1.0  0.93023  0.41506  0.19828  1.0000
  O   O138      1.0  0.56977  0.41506  0.80172  1.0000
  O   O139      1.0  0.43023  0.91506  0.69828  1.0000
  O   O140      1.0  0.06977  0.91506  0.30172  1.0000
  O   O141      1.0  0.06977  0.58494  0.80172  1.0000
  O   O142      1.0  0.43023  0.58494  0.19828  1.0000
  O   O143      1.0  0.56977  0.08494  0.30172  1.0000
  O   O144      1.0  0.93023  0.08494  0.69828  1.0000
  H   H113      1.0  0.93500  0.48000  0.17600  1.0000
  H   H114      1.0  0.56500  0.48000  0.82400  1.0000
  H   H115      1.0  0.43500  0.98000  0.67600  1.0000
  H   H116      1.0  0.06500  0.98000  0.32400  1.0000
  H   H117      1.0  0.06500  0.52000  0.82400  1.0000
  H   H118      1.0  0.43500  0.52000  0.17600  1.0000
  H   H119      1.0  0.56500  0.02000  0.32400  1.0000
  H   H120      1.0  0.93500  0.02000  0.67600  1.0000
  H   H121      1.0  0.94200  0.44200  0.25300  1.0000
  H   H122      1.0  0.55800  0.44200  0.74700  1.0000
  H   H123      1.0  0.44200  0.94200  0.75300  1.0000
  H   H124      1.0  0.05800  0.94200  0.24700  1.0000
  H   H125      1.0  0.05800  0.55800  0.74700  1.0000
  H   H126      1.0  0.44200  0.55800  0.25300  1.0000
  H   H127      1.0  0.55800  0.05800  0.24700  1.0000
  H   H128      1.0  0.94200  0.05800  0.75300  1.0000
