data_image0
_chemical_formula_structural       Cu2N12C4N20C4H8C4
_chemical_formula_sum              "Cu2 N32 C12 H8"
_cell_length_a       10.6585
_cell_length_b       8.7138
_cell_length_c       9.7203
_cell_angle_alpha    90
_cell_angle_beta     95.092
_cell_angle_gamma    90

_space_group_name_H-M_alt    "P 1"
_space_group_IT_number       1

loop_
  _space_group_symop_operation_xyz
  'x, y, z'

loop_
  _atom_site_type_symbol
  _atom_site_label
  _atom_site_symmetry_multiplicity
  _atom_site_fract_x
  _atom_site_fract_y
  _atom_site_fract_z
  _atom_site_occupancy
  Cu  Cu1       1.0  0.00000  0.00000  0.50000  1.0000
  Cu  Cu2       1.0  0.00000  0.50000  0.00000  1.0000
  N   N1        1.0  0.94551  0.13260  0.65342  1.0000
  N   N2        1.0  0.05449  0.63260  0.84658  1.0000
  N   N3        1.0  0.05449  0.86740  0.34658  1.0000
  N   N4        1.0  0.94551  0.36740  0.15342  1.0000
  N   N5        1.0  0.81842  0.93100  0.47580  1.0000
  N   N6        1.0  0.18158  0.43100  0.02420  1.0000
  N   N7        1.0  0.18158  0.06900  0.52420  1.0000
  N   N8        1.0  0.81842  0.56900  0.97580  1.0000
  N   N9        1.0  0.85398  0.20290  0.83710  1.0000
  N   N10       1.0  0.14602  0.70290  0.66290  1.0000
  N   N11       1.0  0.14602  0.79710  0.16290  1.0000
  N   N12       1.0  0.85398  0.29710  0.33710  1.0000
  C   C1        1.0  0.85380  0.10210  0.73510  1.0000
  C   C2        1.0  0.14620  0.60210  0.76490  1.0000
  C   C3        1.0  0.14620  0.89790  0.26490  1.0000
  C   C4        1.0  0.85380  0.39790  0.23510  1.0000
  N   N13       1.0  0.62554  0.87130  0.51890  1.0000
  N   N14       1.0  0.37446  0.37130  0.98110  1.0000
  N   N15       1.0  0.37446  0.12870  0.48110  1.0000
  N   N16       1.0  0.62554  0.62870  0.01890  1.0000
  N   N17       1.0  0.75456  0.88340  0.35697  1.0000
  N   N18       1.0  0.24544  0.38340  0.14303  1.0000
  N   N19       1.0  0.24544  0.11660  0.64303  1.0000
  N   N20       1.0  0.75456  0.61660  0.85697  1.0000
  N   N21       1.0  0.63953  0.84740  0.38350  1.0000
  N   N22       1.0  0.36047  0.34740  0.11650  1.0000
  N   N23       1.0  0.36047  0.15260  0.61650  1.0000
  N   N24       1.0  0.63953  0.65260  0.88350  1.0000
  N   N25       1.0  0.94986  0.30040  0.81690  1.0000
  N   N26       1.0  0.05014  0.80040  0.68310  1.0000
  N   N27       1.0  0.05014  0.69960  0.18310  1.0000
  N   N28       1.0  0.94986  0.19960  0.31690  1.0000
  N   N29       1.0  0.00375  0.25980  0.70700  1.0000
  N   N30       1.0  0.99625  0.75980  0.79300  1.0000
  N   N31       1.0  0.99625  0.74020  0.29300  1.0000
  N   N32       1.0  0.00375  0.24020  0.20700  1.0000
  C   C5        1.0  0.76380  0.97080  0.71840  1.0000
  C   C6        1.0  0.23620  0.47080  0.78160  1.0000
  C   C7        1.0  0.23620  0.02920  0.28160  1.0000
  C   C8        1.0  0.76380  0.52920  0.21840  1.0000
  H   H1        1.0  0.79960  0.88240  0.77260  1.0000
  H   H2        1.0  0.20040  0.38240  0.72740  1.0000
  H   H3        1.0  0.20040  0.11760  0.22740  1.0000
  H   H4        1.0  0.79960  0.61760  0.27260  1.0000
  H   H5        1.0  0.68410  0.00020  0.75670  1.0000
  H   H6        1.0  0.31590  0.50020  0.74330  1.0000
  H   H7        1.0  0.31590  0.99980  0.24330  1.0000
  H   H8        1.0  0.68410  0.49980  0.25670  1.0000
  C   C9        1.0  0.73560  0.92270  0.57210  1.0000
  C   C10       1.0  0.26440  0.42270  0.92790  1.0000
  C   C11       1.0  0.26440  0.07730  0.42790  1.0000
  C   C12       1.0  0.73560  0.57730  0.07210  1.0000
