data_image0
_chemical_formula_structural       C8H4C8H4C8H4C4H8C8H4C8H4C8H4C24H4C8H4C8H4C4H8C8H4C8H4C8H4C16Mn8O32H4O36H8O4H8O4H8O4H8
_chemical_formula_sum              "C136 H100 Mn8 O80"
_cell_length_a       29.326
_cell_length_b       11.641
_cell_length_c       18.867
_cell_angle_alpha    90
_cell_angle_beta     110.414
_cell_angle_gamma    90

_space_group_name_H-M_alt    "P 1"
_space_group_IT_number       1

loop_
  _space_group_symop_operation_xyz
  'x, y, z'

loop_
  _atom_site_type_symbol
  _atom_site_label
  _atom_site_symmetry_multiplicity
  _atom_site_fract_x
  _atom_site_fract_y
  _atom_site_fract_z
  _atom_site_occupancy
  C   C1        1.0  0.71653  0.81430  0.08690  1.0000
  C   C2        1.0  0.28347  0.81430  0.91310  1.0000
  C   C3        1.0  0.21653  0.31430  0.08690  1.0000
  C   C4        1.0  0.78347  0.31430  0.91310  1.0000
  C   C5        1.0  0.66780  0.81420  0.04280  1.0000
  C   C6        1.0  0.33220  0.81420  0.95720  1.0000
  C   C7        1.0  0.16780  0.31420  0.04280  1.0000
  C   C8        1.0  0.83220  0.31420  0.95720  1.0000
  H   H1        1.0  0.64700  0.75880  0.05020  1.0000
  H   H2        1.0  0.35300  0.75880  0.94980  1.0000
  H   H3        1.0  0.14700  0.25880  0.05020  1.0000
  H   H4        1.0  0.85300  0.25880  0.94980  1.0000
  C   C9        1.0  0.64986  0.89800  0.98670  1.0000
  C   C10       1.0  0.35014  0.89800  0.01330  1.0000
  C   C11       1.0  0.14986  0.39800  0.98670  1.0000
  C   C12       1.0  0.85014  0.39800  0.01330  1.0000
  C   C13       1.0  0.68192  0.97790  0.97610  1.0000
  C   C14       1.0  0.31808  0.97790  0.02390  1.0000
  C   C15       1.0  0.18192  0.47790  0.97610  1.0000
  C   C16       1.0  0.81808  0.47790  0.02390  1.0000
  H   H5        1.0  0.67020  0.03320  0.93860  1.0000
  H   H6        1.0  0.32980  0.03320  0.06140  1.0000
  H   H7        1.0  0.17020  0.53320  0.93860  1.0000
  H   H8        1.0  0.82980  0.53320  0.06140  1.0000
  C   C17       1.0  0.73073  0.97760  0.01980  1.0000
  C   C18       1.0  0.26927  0.97760  0.98020  1.0000
  C   C19       1.0  0.23073  0.47760  0.01980  1.0000
  C   C20       1.0  0.76927  0.47760  0.98020  1.0000
  C   C21       1.0  0.74712  0.89540  0.07510  1.0000
  C   C22       1.0  0.25288  0.89540  0.92490  1.0000
  C   C23       1.0  0.24712  0.39540  0.07510  1.0000
  C   C24       1.0  0.75288  0.39540  0.92490  1.0000
  H   H9        1.0  0.77980  0.89460  0.10550  1.0000
  H   H10       1.0  0.22020  0.89460  0.89450  1.0000
  H   H11       1.0  0.27980  0.39460  0.10550  1.0000
  H   H12       1.0  0.72020  0.39460  0.89450  1.0000
  C   C25       1.0  0.76654  0.06340  0.00660  1.0000
  C   C26       1.0  0.23346  0.06340  0.99340  1.0000
  C   C27       1.0  0.26654  0.56340  0.00660  1.0000
  C   C28       1.0  0.73346  0.56340  0.99340  1.0000
  H   H13       1.0  0.78910  0.02140  0.98900  1.0000
  H   H14       1.0  0.21090  0.02140  0.01100  1.0000
  H   H15       1.0  0.28910  0.52140  0.98900  1.0000
  H   H16       1.0  0.71090  0.52140  0.01100  1.0000
  H   H17       1.0  0.74850  0.11550  0.96660  1.0000
  H   H18       1.0  0.25150  0.11550  0.03340  1.0000
  H   H19       1.0  0.24850  0.61550  0.96660  1.0000
  H   H20       1.0  0.75150  0.61550  0.03340  1.0000
  C   C29       1.0  0.79521  0.13300  0.07400  1.0000
  C   C30       1.0  0.20479  0.13300  0.92600  1.0000
  C   C31       1.0  0.29521  0.63300  0.07400  1.0000
  C   C32       1.0  0.70479  0.63300  0.92600  1.0000
  C   C33       1.0  0.77407  0.22530  0.09850  1.0000
  C   C34       1.0  0.22593  0.22530  0.90150  1.0000
  C   C35       1.0  0.27407  0.72530  0.09850  1.0000
  C   C36       1.0  0.72593  0.72530  0.90150  1.0000
  H   H21       1.0  0.74180  0.24390  0.07190  1.0000
  H   H22       1.0  0.25820  0.24390  0.92810  1.0000
  H   H23       1.0  0.24180  0.74390  0.07190  1.0000
  H   H24       1.0  0.75820  0.74390  0.92810  1.0000
  C   C37       1.0  0.79983  0.28920  0.16070  1.0000
  C   C38       1.0  0.20017  0.28920  0.83930  1.0000
  C   C39       1.0  0.29983  0.78920  0.16070  1.0000
  C   C40       1.0  0.70017  0.78920  0.83930  1.0000
  C   C41       1.0  0.84835  0.26180  0.20090  1.0000
  C   C42       1.0  0.15165  0.26180  0.79910  1.0000
  C   C43       1.0  0.34835  0.76180  0.20090  1.0000
  C   C44       1.0  0.65165  0.76180  0.79910  1.0000
  H   H25       1.0  0.86610  0.30610  0.24240  1.0000
  H   H26       1.0  0.13390  0.30610  0.75760  1.0000
  H   H27       1.0  0.36610  0.80610  0.24240  1.0000
  H   H28       1.0  0.63390  0.80610  0.75760  1.0000
  C   C45       1.0  0.87008  0.16990  0.17970  1.0000
  C   C46       1.0  0.12992  0.16990  0.82030  1.0000
  C   C47       1.0  0.37008  0.66990  0.17970  1.0000
  C   C48       1.0  0.62992  0.66990  0.82030  1.0000
  C   C49       1.0  0.84338  0.10520  0.11650  1.0000
  C   C50       1.0  0.15662  0.10520  0.88350  1.0000
  C   C51       1.0  0.34338  0.60520  0.11650  1.0000
  C   C52       1.0  0.65662  0.60520  0.88350  1.0000
  H   H29       1.0  0.85790  0.04250  0.10250  1.0000
  H   H30       1.0  0.14210  0.04250  0.89750  1.0000
  H   H31       1.0  0.35790  0.54250  0.10250  1.0000
  H   H32       1.0  0.64210  0.54250  0.89750  1.0000
  C   C53       1.0  0.73489  0.72760  0.14950  1.0000
  C   C54       1.0  0.26511  0.72760  0.85050  1.0000
  C   C55       1.0  0.23489  0.22760  0.14950  1.0000
  C   C56       1.0  0.76511  0.22760  0.85050  1.0000
  C   C57       1.0  0.59596  0.90130  0.94140  1.0000
  C   C58       1.0  0.40404  0.90130  0.05860  1.0000
  C   C59       1.0  0.09596  0.40130  0.94140  1.0000
  C   C60       1.0  0.90404  0.40130  0.05860  1.0000
  C   C61       1.0  0.77629  0.38610  0.18620  1.0000
  C   C62       1.0  0.22371  0.38610  0.81380  1.0000
  C   C63       1.0  0.27629  0.88610  0.18620  1.0000
  C   C64       1.0  0.72371  0.88610  0.81380  1.0000
  C   C65       1.0  0.92186  0.13940  0.22710  1.0000
  C   C66       1.0  0.07814  0.13940  0.77290  1.0000
  C   C67       1.0  0.42186  0.63940  0.22710  1.0000
  C   C68       1.0  0.57814  0.63940  0.77290  1.0000
  C   C69       1.0  0.69278  0.29890  0.34050  1.0000
  C   C70       1.0  0.30722  0.29890  0.65950  1.0000
  C   C71       1.0  0.19278  0.79890  0.34050  1.0000
  C   C72       1.0  0.80722  0.79890  0.65950  1.0000
  C   C73       1.0  0.64622  0.25610  0.29940  1.0000
  C   C74       1.0  0.35378  0.25610  0.70060  1.0000
  C   C75       1.0  0.14622  0.75610  0.29940  1.0000
  C   C76       1.0  0.85378  0.75610  0.70060  1.0000
  H   H33       1.0  0.62650  0.29490  0.25650  1.0000
  H   H34       1.0  0.37350  0.29490  0.74350  1.0000
  H   H35       1.0  0.12650  0.79490  0.25650  1.0000
  H   H36       1.0  0.87350  0.79490  0.74350  1.0000
  C   C77       1.0  0.62963  0.15770  0.32210  1.0000
  C   C78       1.0  0.37037  0.15770  0.67790  1.0000
  C   C79       1.0  0.12963  0.65770  0.32210  1.0000
  C   C80       1.0  0.87037  0.65770  0.67790  1.0000
  C   C81       1.0  0.65943  0.09740  0.38370  1.0000
  C   C82       1.0  0.34057  0.09740  0.61630  1.0000
  C   C83       1.0  0.15943  0.59740  0.38370  1.0000
  C   C84       1.0  0.84057  0.59740  0.61630  1.0000
  H   H37       1.0  0.64810  0.02990  0.39810  1.0000
  H   H38       1.0  0.35190  0.02990  0.60190  1.0000
  H   H39       1.0  0.14810  0.52990  0.39810  1.0000
  H   H40       1.0  0.85190  0.52990  0.60190  1.0000
  C   C85       1.0  0.70697  0.13620  0.42560  1.0000
  C   C86       1.0  0.29303  0.13620  0.57440  1.0000
  C   C87       1.0  0.20697  0.63620  0.42560  1.0000
  C   C88       1.0  0.79303  0.63620  0.57440  1.0000
  C   C89       1.0  0.72228  0.23870  0.40170  1.0000
  C   C90       1.0  0.27772  0.23870  0.59830  1.0000
  C   C91       1.0  0.22228  0.73870  0.40170  1.0000
  C   C92       1.0  0.77772  0.73870  0.59830  1.0000
  H   H41       1.0  0.75330  0.26660  0.42820  1.0000
  H   H42       1.0  0.24670  0.26660  0.57180  1.0000
  H   H43       1.0  0.25330  0.76660  0.42820  1.0000
  H   H44       1.0  0.74670  0.76660  0.57180  1.0000
  C   C93       1.0  0.73777  0.07440  0.49550  1.0000
  C   C94       1.0  0.26223  0.07440  0.50450  1.0000
  C   C95       1.0  0.23777  0.57440  0.49550  1.0000
  C   C96       1.0  0.76223  0.57440  0.50450  1.0000
  H   H45       1.0  0.71640  0.03330  0.51600  1.0000
  H   H46       1.0  0.28360  0.03330  0.48400  1.0000
  H   H47       1.0  0.21640  0.53330  0.51600  1.0000
  H   H48       1.0  0.78360  0.53330  0.48400  1.0000
  H   H49       1.0  0.75510  0.13130  0.53260  1.0000
  H   H50       1.0  0.24490  0.13130  0.46740  1.0000
  H   H51       1.0  0.25510  0.63130  0.53260  1.0000
  H   H52       1.0  0.74490  0.63130  0.46740  1.0000
  C   C97       1.0  0.77447  0.99010  0.48590  1.0000
  C   C98       1.0  0.22553  0.99010  0.51410  1.0000
  C   C99       1.0  0.27447  0.49010  0.48590  1.0000
  C   C100      1.0  0.72553  0.49010  0.51410  1.0000
  C   C101      1.0  0.76093  0.90520  0.43050  1.0000
  C   C102      1.0  0.23907  0.90520  0.56950  1.0000
  C   C103      1.0  0.26093  0.40520  0.43050  1.0000
  C   C104      1.0  0.73907  0.40520  0.56950  1.0000
  H   H53       1.0  0.72940  0.90350  0.39550  1.0000
  H   H54       1.0  0.27060  0.90350  0.60450  1.0000
  H   H55       1.0  0.22940  0.40350  0.39550  1.0000
  H   H56       1.0  0.77060  0.40350  0.60450  1.0000
  C   C105      1.0  0.79495  0.82230  0.42760  1.0000
  C   C106      1.0  0.20505  0.82230  0.57240  1.0000
  C   C107      1.0  0.29495  0.32230  0.42760  1.0000
  C   C108      1.0  0.70505  0.32230  0.57240  1.0000
  C   C109      1.0  0.84144  0.82200  0.48020  1.0000
  C   C110      1.0  0.15856  0.82200  0.51980  1.0000
  C   C111      1.0  0.34144  0.32200  0.48020  1.0000
  C   C112      1.0  0.65856  0.32200  0.51980  1.0000
  H   H57       1.0  0.86350  0.76570  0.47850  1.0000
  H   H58       1.0  0.13650  0.76570  0.52150  1.0000
  H   H59       1.0  0.36350  0.26570  0.47850  1.0000
  H   H60       1.0  0.63650  0.26570  0.52150  1.0000
  C   C113      1.0  0.85527  0.90630  0.53590  1.0000
  C   C114      1.0  0.14473  0.90630  0.46410  1.0000
  C   C115      1.0  0.35527  0.40630  0.53590  1.0000
  C   C116      1.0  0.64473  0.40630  0.46410  1.0000
  C   C117      1.0  0.82113  0.98970  0.53690  1.0000
  C   C118      1.0  0.17887  0.98970  0.46310  1.0000
  C   C119      1.0  0.32113  0.48970  0.53690  1.0000
  C   C120      1.0  0.67887  0.48970  0.46310  1.0000
  H   H61       1.0  0.83040  0.04700  0.57360  1.0000
  H   H62       1.0  0.16960  0.04700  0.42640  1.0000
  H   H63       1.0  0.33040  0.54700  0.57360  1.0000
  H   H64       1.0  0.66960  0.54700  0.42640  1.0000
  C   C121      1.0  0.70848  0.41090  0.31780  1.0000
  C   C122      1.0  0.29152  0.41090  0.68220  1.0000
  C   C123      1.0  0.20848  0.91090  0.31780  1.0000
  C   C124      1.0  0.79152  0.91090  0.68220  1.0000
  C   C125      1.0  0.57802  0.11760  0.27930  1.0000
  C   C126      1.0  0.42198  0.11760  0.72070  1.0000
  C   C127      1.0  0.07802  0.61760  0.27930  1.0000
  C   C128      1.0  0.92198  0.61760  0.72070  1.0000
  C   C129      1.0  0.77943  0.73020  0.36720  1.0000
  C   C130      1.0  0.22057  0.73020  0.63280  1.0000
  C   C131      1.0  0.27943  0.23020  0.36720  1.0000
  C   C132      1.0  0.72057  0.23020  0.63280  1.0000
  C   C133      1.0  0.90509  0.90740  0.59570  1.0000
  C   C134      1.0  0.09491  0.90740  0.40430  1.0000
  C   C135      1.0  0.40509  0.40740  0.59570  1.0000
  C   C136      1.0  0.59491  0.40740  0.40430  1.0000
  Mn  Mn1       1.0  0.75364  0.57025  0.25984  1.0000
  Mn  Mn2       1.0  0.24636  0.57025  0.74016  1.0000
  Mn  Mn3       1.0  0.25364  0.07025  0.25984  1.0000
  Mn  Mn4       1.0  0.74636  0.07025  0.74016  1.0000
  Mn  Mn5       1.0  0.60252  0.54568  0.25572  1.0000
  Mn  Mn6       1.0  0.39748  0.54568  0.74428  1.0000
  Mn  Mn7       1.0  0.10252  0.04568  0.25572  1.0000
  Mn  Mn8       1.0  0.89748  0.04568  0.74428  1.0000
  O   O1        1.0  0.77850  0.72440  0.19086  1.0000
  O   O2        1.0  0.22150  0.72440  0.80914  1.0000
  O   O3        1.0  0.27850  0.22440  0.19086  1.0000
  O   O4        1.0  0.72150  0.22440  0.80914  1.0000
  O   O5        1.0  0.70466  0.65820  0.16070  1.0000
  O   O6        1.0  0.29534  0.65820  0.83930  1.0000
  O   O7        1.0  0.20466  0.15820  0.16070  1.0000
  O   O8        1.0  0.79534  0.15820  0.83930  1.0000
  O   O9        1.0  0.56735  0.84570  0.96370  1.0000
  O   O10       1.0  0.43265  0.84570  0.03630  1.0000
  O   O11       1.0  0.06735  0.34570  0.96370  1.0000
  O   O12       1.0  0.93265  0.34570  0.03630  1.0000
  O   O13       1.0  0.58127  0.95890  0.88255  1.0000
  O   O14       1.0  0.41873  0.95890  0.11745  1.0000
  O   O15       1.0  0.08127  0.45890  0.88255  1.0000
  O   O16       1.0  0.91873  0.45890  0.11745  1.0000
  O   O17       1.0  0.73233  0.39130  0.16793  1.0000
  O   O18       1.0  0.26767  0.39130  0.83207  1.0000
  O   O19       1.0  0.23233  0.89130  0.16793  1.0000
  O   O20       1.0  0.76767  0.89130  0.83207  1.0000
  O   O21       1.0  0.80460  0.46330  0.22962  1.0000
  O   O22       1.0  0.19540  0.46330  0.77038  1.0000
  O   O23       1.0  0.30460  0.96330  0.22962  1.0000
  O   O24       1.0  0.69540  0.96330  0.77038  1.0000
  O   O25       1.0  0.94114  0.05230  0.20945  1.0000
  O   O26       1.0  0.05886  0.05230  0.79055  1.0000
  O   O27       1.0  0.44114  0.55230  0.20945  1.0000
  O   O28       1.0  0.55886  0.55230  0.79055  1.0000
  O   O29       1.0  0.94335  0.19990  0.28256  1.0000
  O   O30       1.0  0.05665  0.19990  0.71744  1.0000
  O   O31       1.0  0.44335  0.69990  0.28256  1.0000
  O   O32       1.0  0.55665  0.69990  0.71744  1.0000
  H   H65       1.0  0.95250  0.15460  0.32790  1.0000
  H   H66       1.0  0.04750  0.15460  0.67210  1.0000
  H   H67       1.0  0.45250  0.65460  0.32790  1.0000
  H   H68       1.0  0.54750  0.65460  0.67210  1.0000
  O   O33       1.0  0.75233  0.43450  0.33822  1.0000
  O   O34       1.0  0.24767  0.43450  0.66178  1.0000
  O   O35       1.0  0.25233  0.93450  0.33822  1.0000
  O   O36       1.0  0.74767  0.93450  0.66178  1.0000
  O   O37       1.0  0.67576  0.47920  0.27485  1.0000
  O   O38       1.0  0.32424  0.47920  0.72515  1.0000
  O   O39       1.0  0.17576  0.97920  0.27485  1.0000
  O   O40       1.0  0.82424  0.97920  0.72515  1.0000
  O   O41       1.0  0.55365  0.17980  0.22415  1.0000
  O   O42       1.0  0.44635  0.17980  0.77585  1.0000
  O   O43       1.0  0.05365  0.67980  0.22415  1.0000
  O   O44       1.0  0.94635  0.67980  0.77585  1.0000
  O   O45       1.0  0.56260  0.03100  0.30078  1.0000
  O   O46       1.0  0.43740  0.03100  0.69922  1.0000
  O   O47       1.0  0.06260  0.53100  0.30078  1.0000
  O   O48       1.0  0.93740  0.53100  0.69922  1.0000
  O   O49       1.0  0.73583  0.72000  0.32769  1.0000
  O   O50       1.0  0.26417  0.72000  0.67231  1.0000
  O   O51       1.0  0.23583  0.22000  0.32769  1.0000
  O   O52       1.0  0.76417  0.22000  0.67231  1.0000
  O   O53       1.0  0.81120  0.66260  0.35858  1.0000
  O   O54       1.0  0.18880  0.66260  0.64142  1.0000
  O   O55       1.0  0.31120  0.16260  0.35858  1.0000
  O   O56       1.0  0.68880  0.16260  0.64142  1.0000
  O   O57       1.0  0.93632  0.83890  0.58980  1.0000
  O   O58       1.0  0.06368  0.83890  0.41020  1.0000
  O   O59       1.0  0.43632  0.33890  0.58980  1.0000
  O   O60       1.0  0.56368  0.33890  0.41020  1.0000
  O   O61       1.0  0.91309  0.98060  0.64929  1.0000
  O   O62       1.0  0.08691  0.98060  0.35071  1.0000
  O   O63       1.0  0.41309  0.48060  0.64929  1.0000
  O   O64       1.0  0.58691  0.48060  0.35071  1.0000
  O   O65       1.0  0.64056  0.69340  0.31916  1.0000
  O   O66       1.0  0.35944  0.69340  0.68084  1.0000
  O   O67       1.0  0.14056  0.19340  0.31916  1.0000
  O   O68       1.0  0.85944  0.19340  0.68084  1.0000
  H   H69       1.0  0.61750  0.74190  0.30710  1.0000
  H   H70       1.0  0.38250  0.74190  0.69290  1.0000
  H   H71       1.0  0.11750  0.24190  0.30710  1.0000
  H   H72       1.0  0.88250  0.24190  0.69290  1.0000
  H   H73       1.0  0.66480  0.73870  0.33220  1.0000
  H   H74       1.0  0.33520  0.73870  0.66780  1.0000
  H   H75       1.0  0.16480  0.23870  0.33220  1.0000
  H   H76       1.0  0.83520  0.23870  0.66780  1.0000
  O   O69       1.0  0.61164  0.62100  0.15613  1.0000
  O   O70       1.0  0.38836  0.62100  0.84387  1.0000
  O   O71       1.0  0.11164  0.12100  0.15613  1.0000
  O   O72       1.0  0.88836  0.12100  0.84387  1.0000
  H   H77       1.0  0.59140  0.59070  0.11660  1.0000
  H   H78       1.0  0.40860  0.59070  0.88340  1.0000
  H   H79       1.0  0.09140  0.09070  0.11660  1.0000
  H   H80       1.0  0.90860  0.09070  0.88340  1.0000
  H   H81       1.0  0.63950  0.60930  0.15740  1.0000
  H   H82       1.0  0.36050  0.60930  0.84260  1.0000
  H   H83       1.0  0.13950  0.10930  0.15740  1.0000
  H   H84       1.0  0.86050  0.10930  0.84260  1.0000
  O   O73       1.0  0.55754  0.41050  0.18186  1.0000
  O   O74       1.0  0.44246  0.41050  0.81814  1.0000
  O   O75       1.0  0.05754  0.91050  0.18186  1.0000
  O   O76       1.0  0.94246  0.91050  0.81814  1.0000
  H   H85       1.0  0.54810  0.43600  0.13680  1.0000
  H   H86       1.0  0.45190  0.43600  0.86320  1.0000
  H   H87       1.0  0.04810  0.93600  0.13680  1.0000
  H   H88       1.0  0.95190  0.93600  0.86320  1.0000
  H   H89       1.0  0.53230  0.40240  0.19360  1.0000
  H   H90       1.0  0.46770  0.40240  0.80640  1.0000
  H   H91       1.0  0.03230  0.90240  0.19360  1.0000
  H   H92       1.0  0.96770  0.90240  0.80640  1.0000
  O   O77       1.0  0.53577  0.64410  0.22697  1.0000
  O   O78       1.0  0.46423  0.64410  0.77303  1.0000
  O   O79       1.0  0.03577  0.14410  0.22697  1.0000
  O   O80       1.0  0.96423  0.14410  0.77303  1.0000
  H   H93       1.0  0.51600  0.60990  0.24380  1.0000
  H   H94       1.0  0.48400  0.60990  0.75620  1.0000
  H   H95       1.0  0.01600  0.10990  0.24380  1.0000
  H   H96       1.0  0.98400  0.10990  0.75620  1.0000
  H   H97       1.0  0.54180  0.70830  0.24580  1.0000
  H   H98       1.0  0.45820  0.70830  0.75420  1.0000
  H   H99       1.0  0.04180  0.20830  0.24580  1.0000
  H   H100      1.0  0.95820  0.20830  0.75420  1.0000
