data_image0
_chemical_formula_structural       C8H4C8H4C8H4C4H8C8H4C8H4C8H4C24H4C8H4C8H4C4H8C8H4C8H4C8H4C16Mn8O20H4O48H8O4H8O4H8O4H8
_chemical_formula_sum              "C136 H100 Mn8 O80"
_cell_length_a       29.316
_cell_length_b       11.6564
_cell_length_c       18.852
_cell_angle_alpha    90
_cell_angle_beta     110.422
_cell_angle_gamma    90

_space_group_name_H-M_alt    "P 1"
_space_group_IT_number       1

loop_
  _space_group_symop_operation_xyz
  'x, y, z'

loop_
  _atom_site_type_symbol
  _atom_site_label
  _atom_site_symmetry_multiplicity
  _atom_site_fract_x
  _atom_site_fract_y
  _atom_site_fract_z
  _atom_site_occupancy
  C   C1        1.0  0.80048  0.09380  0.16030  1.0000
  C   C2        1.0  0.19952  0.09380  0.83970  1.0000
  C   C3        1.0  0.30048  0.59380  0.16030  1.0000
  C   C4        1.0  0.69952  0.59380  0.83970  1.0000
  C   C5        1.0  0.84808  0.11760  0.20040  1.0000
  C   C6        1.0  0.15192  0.11760  0.79960  1.0000
  C   C7        1.0  0.34808  0.61760  0.20040  1.0000
  C   C8        1.0  0.65192  0.61760  0.79960  1.0000
  H   H1        1.0  0.86610  0.07130  0.24060  1.0000
  H   H2        1.0  0.13390  0.07130  0.75940  1.0000
  H   H3        1.0  0.36610  0.57130  0.24060  1.0000
  H   H4        1.0  0.63390  0.57130  0.75940  1.0000
  C   C9        1.0  0.86981  0.21650  0.17870  1.0000
  C   C10       1.0  0.13019  0.21650  0.82130  1.0000
  C   C11       1.0  0.36981  0.71650  0.17870  1.0000
  C   C12       1.0  0.63019  0.71650  0.82130  1.0000
  C   C13       1.0  0.84291  0.27720  0.11600  1.0000
  C   C14       1.0  0.15709  0.27720  0.88400  1.0000
  C   C15       1.0  0.34291  0.77720  0.11600  1.0000
  C   C16       1.0  0.65709  0.77720  0.88400  1.0000
  H   H5        1.0  0.85760  0.33860  0.10090  1.0000
  H   H6        1.0  0.14240  0.33860  0.89910  1.0000
  H   H7        1.0  0.35760  0.83860  0.10090  1.0000
  H   H8        1.0  0.64240  0.83860  0.89910  1.0000
  C   C17       1.0  0.79583  0.25260  0.07470  1.0000
  C   C18       1.0  0.20417  0.25260  0.92530  1.0000
  C   C19       1.0  0.29583  0.75260  0.07470  1.0000
  C   C20       1.0  0.70417  0.75260  0.92530  1.0000
  C   C21       1.0  0.77519  0.16150  0.09890  1.0000
  C   C22       1.0  0.22481  0.16150  0.90110  1.0000
  C   C23       1.0  0.27519  0.66150  0.09890  1.0000
  C   C24       1.0  0.72481  0.66150  0.90110  1.0000
  H   H9        1.0  0.74260  0.14450  0.07260  1.0000
  H   H10       1.0  0.25740  0.14450  0.92740  1.0000
  H   H11       1.0  0.24260  0.64450  0.07260  1.0000
  H   H12       1.0  0.75740  0.64450  0.92740  1.0000
  C   C25       1.0  0.76861  0.32670  0.00770  1.0000
  C   C26       1.0  0.23139  0.32670  0.99230  1.0000
  C   C27       1.0  0.26861  0.82670  0.00770  1.0000
  C   C28       1.0  0.73139  0.82670  0.99230  1.0000
  H   H13       1.0  0.75140  0.27690  0.96560  1.0000
  H   H14       1.0  0.24860  0.27690  0.03440  1.0000
  H   H15       1.0  0.25140  0.77690  0.96560  1.0000
  H   H16       1.0  0.74860  0.77690  0.03440  1.0000
  H   H17       1.0  0.79220  0.37010  0.99310  1.0000
  H   H18       1.0  0.20780  0.37010  0.00690  1.0000
  H   H19       1.0  0.29220  0.87010  0.99310  1.0000
  H   H20       1.0  0.70780  0.87010  0.00690  1.0000
  C   C29       1.0  0.73202  0.41080  0.01980  1.0000
  C   C30       1.0  0.26798  0.41080  0.98020  1.0000
  C   C31       1.0  0.23202  0.91080  0.01980  1.0000
  C   C32       1.0  0.76798  0.91080  0.98020  1.0000
  C   C33       1.0  0.74792  0.49070  0.07560  1.0000
  C   C34       1.0  0.25208  0.49070  0.92440  1.0000
  C   C35       1.0  0.24792  0.99070  0.07560  1.0000
  C   C36       1.0  0.75208  0.99070  0.92440  1.0000
  H   H21       1.0  0.78060  0.49000  0.10630  1.0000
  H   H22       1.0  0.21940  0.49000  0.89370  1.0000
  H   H23       1.0  0.28060  0.99000  0.10630  1.0000
  H   H24       1.0  0.71940  0.99000  0.89370  1.0000
  C   C37       1.0  0.71812  0.57220  0.08860  1.0000
  C   C38       1.0  0.28188  0.57220  0.91140  1.0000
  C   C39       1.0  0.21812  0.07220  0.08860  1.0000
  C   C40       1.0  0.78188  0.07220  0.91140  1.0000
  C   C41       1.0  0.66748  0.57210  0.04210  1.0000
  C   C42       1.0  0.33252  0.57210  0.95790  1.0000
  C   C43       1.0  0.16748  0.07210  0.04210  1.0000
  C   C44       1.0  0.83252  0.07210  0.95790  1.0000
  H   H25       1.0  0.64700  0.62880  0.04870  1.0000
  H   H26       1.0  0.35300  0.62880  0.95130  1.0000
  H   H27       1.0  0.14700  0.12880  0.04870  1.0000
  H   H28       1.0  0.85300  0.12880  0.95130  1.0000
  C   C45       1.0  0.64839  0.48670  0.98610  1.0000
  C   C46       1.0  0.35161  0.48670  0.01390  1.0000
  C   C47       1.0  0.14839  0.98670  0.98610  1.0000
  C   C48       1.0  0.85161  0.98670  0.01390  1.0000
  C   C49       1.0  0.68221  0.40340  0.97570  1.0000
  C   C50       1.0  0.31779  0.40340  0.02430  1.0000
  C   C51       1.0  0.18221  0.90340  0.97570  1.0000
  C   C52       1.0  0.81779  0.90340  0.02430  1.0000
  H   H29       1.0  0.67110  0.34530  0.94010  1.0000
  H   H30       1.0  0.32890  0.34530  0.05990  1.0000
  H   H31       1.0  0.17110  0.84530  0.94010  1.0000
  H   H32       1.0  0.82890  0.84530  0.05990  1.0000
  C   C53       1.0  0.77620  0.99600  0.18510  1.0000
  C   C54       1.0  0.22380  0.99600  0.81490  1.0000
  C   C55       1.0  0.27620  0.49600  0.18510  1.0000
  C   C56       1.0  0.72380  0.49600  0.81490  1.0000
  C   C57       1.0  0.92267  0.24320  0.22470  1.0000
  C   C58       1.0  0.07733  0.24320  0.77530  1.0000
  C   C59       1.0  0.42267  0.74320  0.22470  1.0000
  C   C60       1.0  0.57733  0.74320  0.77530  1.0000
  C   C61       1.0  0.73430  0.65510  0.14840  1.0000
  C   C62       1.0  0.26570  0.65510  0.85160  1.0000
  C   C63       1.0  0.23430  0.15510  0.14840  1.0000
  C   C64       1.0  0.76570  0.15510  0.85160  1.0000
  C   C65       1.0  0.59740  0.48130  0.94340  1.0000
  C   C66       1.0  0.40260  0.48130  0.05660  1.0000
  C   C67       1.0  0.09740  0.98130  0.94340  1.0000
  C   C68       1.0  0.90260  0.98130  0.05660  1.0000
  C   C69       1.0  0.79396  0.56330  0.42840  1.0000
  C   C70       1.0  0.20604  0.56330  0.57160  1.0000
  C   C71       1.0  0.29396  0.06330  0.42840  1.0000
  C   C72       1.0  0.70604  0.06330  0.57160  1.0000
  C   C73       1.0  0.76070  0.48010  0.43130  1.0000
  C   C74       1.0  0.23930  0.48010  0.56870  1.0000
  C   C75       1.0  0.26070  0.98010  0.43130  1.0000
  C   C76       1.0  0.73930  0.98010  0.56870  1.0000
  H   H33       1.0  0.72910  0.48140  0.39640  1.0000
  H   H34       1.0  0.27090  0.48140  0.60360  1.0000
  H   H35       1.0  0.22910  0.98140  0.39640  1.0000
  H   H36       1.0  0.77090  0.98140  0.60360  1.0000
  C   C77       1.0  0.77462  0.39500  0.48630  1.0000
  C   C78       1.0  0.22538  0.39500  0.51370  1.0000
  C   C79       1.0  0.27462  0.89500  0.48630  1.0000
  C   C80       1.0  0.72538  0.89500  0.51370  1.0000
  C   C81       1.0  0.82182  0.39310  0.53840  1.0000
  C   C82       1.0  0.17818  0.39310  0.46160  1.0000
  C   C83       1.0  0.32182  0.89310  0.53840  1.0000
  C   C84       1.0  0.67818  0.89310  0.46160  1.0000
  H   H37       1.0  0.83110  0.33610  0.57530  1.0000
  H   H38       1.0  0.16890  0.33610  0.42470  1.0000
  H   H39       1.0  0.33110  0.83610  0.57530  1.0000
  H   H40       1.0  0.66890  0.83610  0.42470  1.0000
  C   C85       1.0  0.85509  0.47630  0.53560  1.0000
  C   C86       1.0  0.14491  0.47630  0.46440  1.0000
  C   C87       1.0  0.35509  0.97630  0.53560  1.0000
  C   C88       1.0  0.64491  0.97630  0.46440  1.0000
  C   C89       1.0  0.84116  0.56140  0.48050  1.0000
  C   C90       1.0  0.15884  0.56140  0.51950  1.0000
  C   C91       1.0  0.34116  0.06140  0.48050  1.0000
  C   C92       1.0  0.65884  0.06140  0.51950  1.0000
  H   H41       1.0  0.86340  0.61710  0.47860  1.0000
  H   H42       1.0  0.13660  0.61710  0.52140  1.0000
  H   H43       1.0  0.36340  0.11710  0.47860  1.0000
  H   H44       1.0  0.63660  0.11710  0.52140  1.0000
  C   C93       1.0  0.73771  0.31030  0.49540  1.0000
  C   C94       1.0  0.26229  0.31030  0.50460  1.0000
  C   C95       1.0  0.23771  0.81030  0.49540  1.0000
  C   C96       1.0  0.76229  0.81030  0.50460  1.0000
  H   H45       1.0  0.75500  0.25320  0.53240  1.0000
  H   H46       1.0  0.24500  0.25320  0.46760  1.0000
  H   H47       1.0  0.25500  0.75320  0.53240  1.0000
  H   H48       1.0  0.74500  0.75320  0.46760  1.0000
  H   H49       1.0  0.71630  0.35120  0.51600  1.0000
  H   H50       1.0  0.28370  0.35120  0.48400  1.0000
  H   H51       1.0  0.21630  0.85120  0.51600  1.0000
  H   H52       1.0  0.78370  0.85120  0.48400  1.0000
  C   C97       1.0  0.70664  0.24860  0.42430  1.0000
  C   C98       1.0  0.29336  0.24860  0.57570  1.0000
  C   C99       1.0  0.20664  0.74860  0.42430  1.0000
  C   C100      1.0  0.79336  0.74860  0.57570  1.0000
  C   C101      1.0  0.65969  0.28530  0.38580  1.0000
  C   C102      1.0  0.34031  0.28530  0.61420  1.0000
  C   C103      1.0  0.15969  0.78530  0.38580  1.0000
  C   C104      1.0  0.84031  0.78530  0.61420  1.0000
  H   H53       1.0  0.64800  0.35040  0.40230  1.0000
  H   H54       1.0  0.35200  0.35040  0.59770  1.0000
  H   H55       1.0  0.14800  0.85040  0.40230  1.0000
  H   H56       1.0  0.85200  0.85040  0.59770  1.0000
  C   C105      1.0  0.62904  0.22490  0.32140  1.0000
  C   C106      1.0  0.37096  0.22490  0.67860  1.0000
  C   C107      1.0  0.12904  0.72490  0.32140  1.0000
  C   C108      1.0  0.87096  0.72490  0.67860  1.0000
  C   C109      1.0  0.64581  0.12650  0.29820  1.0000
  C   C110      1.0  0.35419  0.12650  0.70180  1.0000
  C   C111      1.0  0.14581  0.62650  0.29820  1.0000
  C   C112      1.0  0.85419  0.62650  0.70180  1.0000
  H   H57       1.0  0.62650  0.08740  0.25520  1.0000
  H   H58       1.0  0.37350  0.08740  0.74480  1.0000
  H   H59       1.0  0.12650  0.58740  0.25520  1.0000
  H   H60       1.0  0.87350  0.58740  0.74480  1.0000
  C   C113      1.0  0.69306  0.08570  0.34110  1.0000
  C   C114      1.0  0.30694  0.08570  0.65890  1.0000
  C   C115      1.0  0.19306  0.58570  0.34110  1.0000
  C   C116      1.0  0.80694  0.58570  0.65890  1.0000
  C   C117      1.0  0.72163  0.14680  0.40100  1.0000
  C   C118      1.0  0.27837  0.14680  0.59900  1.0000
  C   C119      1.0  0.22163  0.64680  0.40100  1.0000
  C   C120      1.0  0.77837  0.64680  0.59900  1.0000
  H   H61       1.0  0.75270  0.11950  0.42790  1.0000
  H   H62       1.0  0.24730  0.11950  0.57210  1.0000
  H   H63       1.0  0.25270  0.61950  0.42790  1.0000
  H   H64       1.0  0.74730  0.61950  0.57210  1.0000
  C   C121      1.0  0.77976  0.65310  0.36670  1.0000
  C   C122      1.0  0.22024  0.65310  0.63330  1.0000
  C   C123      1.0  0.27976  0.15310  0.36670  1.0000
  C   C124      1.0  0.72024  0.15310  0.63330  1.0000
  C   C125      1.0  0.90453  0.47750  0.59560  1.0000
  C   C126      1.0  0.09547  0.47750  0.40440  1.0000
  C   C127      1.0  0.40453  0.97750  0.59560  1.0000
  C   C128      1.0  0.59547  0.97750  0.40440  1.0000
  C   C129      1.0  0.70827  0.97490  0.31810  1.0000
  C   C130      1.0  0.29173  0.97490  0.68190  1.0000
  C   C131      1.0  0.20827  0.47490  0.31810  1.0000
  C   C132      1.0  0.79173  0.47490  0.68190  1.0000
  C   C133      1.0  0.57732  0.26560  0.27920  1.0000
  C   C134      1.0  0.42268  0.26560  0.72080  1.0000
  C   C135      1.0  0.07732  0.76560  0.27920  1.0000
  C   C136      1.0  0.92268  0.76560  0.72080  1.0000
  Mn  Mn1       1.0  0.75365  0.81357  0.25998  1.0000
  Mn  Mn2       1.0  0.24635  0.81357  0.74002  1.0000
  Mn  Mn3       1.0  0.25365  0.31357  0.25998  1.0000
  Mn  Mn4       1.0  0.74635  0.31357  0.74002  1.0000
  Mn  Mn5       1.0  0.89757  0.33860  0.74437  1.0000
  Mn  Mn6       1.0  0.10243  0.33860  0.25563  1.0000
  Mn  Mn7       1.0  0.39757  0.83860  0.74437  1.0000
  Mn  Mn8       1.0  0.60243  0.83860  0.25563  1.0000
  O   O1        1.0  0.73204  0.99440  0.16850  1.0000
  O   O2        1.0  0.26796  0.99440  0.83150  1.0000
  O   O3        1.0  0.23204  0.49440  0.16850  1.0000
  O   O4        1.0  0.76796  0.49440  0.83150  1.0000
  O   O5        1.0  0.80262  0.91970  0.22749  1.0000
  O   O6        1.0  0.19738  0.91970  0.77251  1.0000
  O   O7        1.0  0.30262  0.41970  0.22749  1.0000
  O   O8        1.0  0.69738  0.41970  0.77251  1.0000
  O   O9        1.0  0.94217  0.33310  0.20949  1.0000
  O   O10       1.0  0.05783  0.33310  0.79051  1.0000
  O   O11       1.0  0.44217  0.83310  0.20949  1.0000
  O   O12       1.0  0.55783  0.83310  0.79051  1.0000
  O   O13       1.0  0.94344  0.18590  0.28240  1.0000
  O   O14       1.0  0.05656  0.18590  0.71760  1.0000
  O   O15       1.0  0.44344  0.68590  0.28240  1.0000
  O   O16       1.0  0.55656  0.68590  0.71760  1.0000
  O   O17       1.0  0.56687  0.54240  0.96100  1.0000
  O   O18       1.0  0.43313  0.54240  0.03900  1.0000
  O   O19       1.0  0.06687  0.04240  0.96100  1.0000
  O   O20       1.0  0.93313  0.04240  0.03900  1.0000
  H   H65       1.0  0.56990  0.51750  0.01100  1.0000
  H   H66       1.0  0.43010  0.51750  0.98900  1.0000
  H   H67       1.0  0.06990  0.01750  0.01100  1.0000
  H   H68       1.0  0.93010  0.01750  0.98900  1.0000
  O   O21       1.0  0.58127  0.42660  0.88370  1.0000
  O   O22       1.0  0.41873  0.42660  0.11630  1.0000
  O   O23       1.0  0.08127  0.92660  0.88370  1.0000
  O   O24       1.0  0.91873  0.92660  0.11630  1.0000
  O   O25       1.0  0.70488  0.72590  0.15978  1.0000
  O   O26       1.0  0.29512  0.72590  0.84022  1.0000
  O   O27       1.0  0.20488  0.22590  0.15978  1.0000
  O   O28       1.0  0.79512  0.22590  0.84022  1.0000
  O   O29       1.0  0.77824  0.65910  0.19017  1.0000
  O   O30       1.0  0.22176  0.65910  0.80983  1.0000
  O   O31       1.0  0.27824  0.15910  0.19017  1.0000
  O   O32       1.0  0.72176  0.15910  0.80983  1.0000
  O   O33       1.0  0.73543  0.66450  0.32783  1.0000
  O   O34       1.0  0.26457  0.66450  0.67217  1.0000
  O   O35       1.0  0.23543  0.16450  0.32783  1.0000
  O   O36       1.0  0.76457  0.16450  0.67217  1.0000
  O   O37       1.0  0.81103  0.72140  0.35893  1.0000
  O   O38       1.0  0.18897  0.72140  0.64107  1.0000
  O   O39       1.0  0.31103  0.22140  0.35893  1.0000
  O   O40       1.0  0.68897  0.22140  0.64107  1.0000
  O   O41       1.0  0.93633  0.54900  0.59330  1.0000
  O   O42       1.0  0.06367  0.54900  0.40670  1.0000
  O   O43       1.0  0.43633  0.04900  0.59330  1.0000
  O   O44       1.0  0.56367  0.04900  0.40670  1.0000
  O   O45       1.0  0.91339  0.40360  0.64856  1.0000
  O   O46       1.0  0.08661  0.40360  0.35144  1.0000
  O   O47       1.0  0.41339  0.90360  0.64856  1.0000
  O   O48       1.0  0.58661  0.90360  0.35144  1.0000
  O   O49       1.0  0.75254  0.95020  0.33856  1.0000
  O   O50       1.0  0.24746  0.95020  0.66144  1.0000
  O   O51       1.0  0.25254  0.45020  0.33856  1.0000
  O   O52       1.0  0.74746  0.45020  0.66144  1.0000
  O   O53       1.0  0.67577  0.90460  0.27523  1.0000
  O   O54       1.0  0.32423  0.90460  0.72477  1.0000
  O   O55       1.0  0.17577  0.40460  0.27523  1.0000
  O   O56       1.0  0.82423  0.40460  0.72477  1.0000
  O   O57       1.0  0.56210  0.35360  0.30180  1.0000
  O   O58       1.0  0.43790  0.35360  0.69820  1.0000
  O   O59       1.0  0.06210  0.85360  0.30180  1.0000
  O   O60       1.0  0.93790  0.85360  0.69820  1.0000
  O   O61       1.0  0.55450  0.20490  0.22516  1.0000
  O   O62       1.0  0.44550  0.20490  0.77484  1.0000
  O   O63       1.0  0.05450  0.70490  0.22516  1.0000
  O   O64       1.0  0.94550  0.70490  0.77484  1.0000
  O   O65       1.0  0.94256  0.47820  0.81699  1.0000
  O   O66       1.0  0.05744  0.47820  0.18301  1.0000
  O   O67       1.0  0.44256  0.97820  0.81699  1.0000
  O   O68       1.0  0.55744  0.97820  0.18301  1.0000
  H   H69       1.0  0.94860  0.44820  0.86040  1.0000
  H   H70       1.0  0.05140  0.44820  0.13960  1.0000
  H   H71       1.0  0.44860  0.94820  0.86040  1.0000
  H   H72       1.0  0.55140  0.94820  0.13960  1.0000
  H   H73       1.0  0.95310  0.54530  0.81420  1.0000
  H   H74       1.0  0.04690  0.54530  0.18580  1.0000
  H   H75       1.0  0.45310  0.04530  0.81420  1.0000
  H   H76       1.0  0.54690  0.04530  0.18580  1.0000
  O   O69       1.0  0.88876  0.27130  0.84506  1.0000
  O   O70       1.0  0.11124  0.27130  0.15494  1.0000
  O   O71       1.0  0.38876  0.77130  0.84506  1.0000
  O   O72       1.0  0.61124  0.77130  0.15494  1.0000
  H   H77       1.0  0.91100  0.22250  0.86560  1.0000
  H   H78       1.0  0.08900  0.22250  0.13440  1.0000
  H   H79       1.0  0.41100  0.72250  0.86560  1.0000
  H   H80       1.0  0.58900  0.72250  0.13440  1.0000
  H   H81       1.0  0.86200  0.24070  0.83410  1.0000
  H   H82       1.0  0.13800  0.24070  0.16590  1.0000
  H   H83       1.0  0.36200  0.74070  0.83410  1.0000
  H   H84       1.0  0.63800  0.74070  0.16590  1.0000
  O   O73       1.0  0.96517  0.24300  0.77401  1.0000
  O   O74       1.0  0.03483  0.24300  0.22599  1.0000
  O   O75       1.0  0.46517  0.74300  0.77401  1.0000
  O   O76       1.0  0.53483  0.74300  0.22599  1.0000
  H   H85       1.0  0.97950  0.25950  0.74320  1.0000
  H   H86       1.0  0.02050  0.25950  0.25680  1.0000
  H   H87       1.0  0.47950  0.75950  0.74320  1.0000
  H   H88       1.0  0.52050  0.75950  0.25680  1.0000
  H   H89       1.0  0.95940  0.17400  0.77220  1.0000
  H   H90       1.0  0.04060  0.17400  0.22780  1.0000
  H   H91       1.0  0.45940  0.67400  0.77220  1.0000
  H   H92       1.0  0.54060  0.67400  0.22780  1.0000
  O   O77       1.0  0.86013  0.18660  0.68170  1.0000
  O   O78       1.0  0.13987  0.18660  0.31830  1.0000
  O   O79       1.0  0.36013  0.68660  0.68170  1.0000
  O   O80       1.0  0.63987  0.68660  0.31830  1.0000
  H   H93       1.0  0.83410  0.20760  0.64700  1.0000
  H   H94       1.0  0.16590  0.20760  0.35300  1.0000
  H   H95       1.0  0.33410  0.70760  0.64700  1.0000
  H   H96       1.0  0.66590  0.70760  0.35300  1.0000
  H   H97       1.0  0.85250  0.14210  0.71150  1.0000
  H   H98       1.0  0.14750  0.14210  0.28850  1.0000
  H   H99       1.0  0.35250  0.64210  0.71150  1.0000
  H   H100      1.0  0.64750  0.64210  0.28850  1.0000
