data_image0
_chemical_formula_structural       C8H4C8H4C8H4C4H8C8H4C8H4C8H4C24H4C8H4C8H4C4H8C4H4C8H4C8H4C20Co4O64
_chemical_formula_sum              "C136 H64 Co4 O64"
_cell_length_a       11.873
_cell_length_b       19.291
_cell_length_c       27.158
_cell_angle_alpha    90
_cell_angle_beta     100.933
_cell_angle_gamma    90

_space_group_name_H-M_alt    "P 1"
_space_group_IT_number       1

loop_
  _space_group_symop_operation_xyz
  'x, y, z'

loop_
  _atom_site_type_symbol
  _atom_site_label
  _atom_site_symmetry_multiplicity
  _atom_site_fract_x
  _atom_site_fract_y
  _atom_site_fract_z
  _atom_site_occupancy
  C   C1        1.0  0.06730  0.82750  0.85930  1.0000
  C   C2        1.0  0.06730  0.17250  0.35930  1.0000
  C   C3        1.0  0.56730  0.32750  0.85930  1.0000
  C   C4        1.0  0.56730  0.67250  0.35930  1.0000
  C   C5        1.0  0.16470  0.84990  0.89200  1.0000
  C   C6        1.0  0.16470  0.15010  0.39200  1.0000
  C   C7        1.0  0.66470  0.34990  0.89200  1.0000
  C   C8        1.0  0.66470  0.65010  0.39200  1.0000
  H   H1        1.0  0.16190  0.85710  0.92560  1.0000
  H   H2        1.0  0.16190  0.14290  0.42560  1.0000
  H   H3        1.0  0.66190  0.35710  0.92560  1.0000
  H   H4        1.0  0.66190  0.64290  0.42560  1.0000
  C   C9        1.0  0.26490  0.86160  0.87540  1.0000
  C   C10       1.0  0.26490  0.13840  0.37540  1.0000
  C   C11       1.0  0.76490  0.36160  0.87540  1.0000
  C   C12       1.0  0.76490  0.63840  0.37540  1.0000
  C   C13       1.0  0.27200  0.85150  0.82540  1.0000
  C   C14       1.0  0.27200  0.14850  0.32540  1.0000
  C   C15       1.0  0.77200  0.35150  0.82540  1.0000
  C   C16       1.0  0.77200  0.64850  0.32540  1.0000
  H   H5        1.0  0.33980  0.86010  0.81400  1.0000
  H   H6        1.0  0.33980  0.13990  0.31400  1.0000
  H   H7        1.0  0.83980  0.36010  0.81400  1.0000
  H   H8        1.0  0.83980  0.63990  0.31400  1.0000
  C   C17       1.0  0.17230  0.82760  0.79196  1.0000
  C   C18       1.0  0.17230  0.17240  0.29196  1.0000
  C   C19       1.0  0.67230  0.32760  0.79196  1.0000
  C   C20       1.0  0.67230  0.67240  0.29196  1.0000
  C   C21       1.0  0.07250  0.81640  0.81062  1.0000
  C   C22       1.0  0.07250  0.18360  0.31062  1.0000
  C   C23       1.0  0.57250  0.31640  0.81062  1.0000
  C   C24       1.0  0.57250  0.68360  0.31062  1.0000
  H   H9        1.0  0.00720  0.80090  0.78890  1.0000
  H   H10       1.0  0.00720  0.19910  0.28890  1.0000
  H   H11       1.0  0.50720  0.30090  0.78890  1.0000
  H   H12       1.0  0.50720  0.69910  0.28890  1.0000
  C   C25       1.0  0.37640  0.88280  0.91380  1.0000
  C   C26       1.0  0.37640  0.11720  0.41380  1.0000
  C   C27       1.0  0.87640  0.38280  0.91380  1.0000
  C   C28       1.0  0.87640  0.61720  0.41380  1.0000
  H   H13       1.0  0.39580  0.84590  0.93820  1.0000
  H   H14       1.0  0.39580  0.15410  0.43820  1.0000
  H   H15       1.0  0.89580  0.34590  0.93820  1.0000
  H   H16       1.0  0.89580  0.65410  0.43820  1.0000
  H   H17       1.0  0.43940  0.88750  0.89590  1.0000
  H   H18       1.0  0.43940  0.11250  0.39590  1.0000
  H   H19       1.0  0.93940  0.38750  0.89590  1.0000
  H   H20       1.0  0.93940  0.61250  0.39590  1.0000
  C   C29       1.0  0.36410  0.94960  0.94113  1.0000
  C   C30       1.0  0.36410  0.05040  0.44113  1.0000
  C   C31       1.0  0.86410  0.44960  0.94113  1.0000
  C   C32       1.0  0.86410  0.55040  0.44113  1.0000
  C   C33       1.0  0.35040  0.94670  0.98980  1.0000
  C   C34       1.0  0.35040  0.05330  0.48980  1.0000
  C   C35       1.0  0.85040  0.44670  0.98980  1.0000
  C   C36       1.0  0.85040  0.55330  0.48980  1.0000
  H   H21       1.0  0.34770  0.90380  0.00520  1.0000
  H   H22       1.0  0.34770  0.09620  0.50520  1.0000
  H   H23       1.0  0.84770  0.40380  0.00520  1.0000
  H   H24       1.0  0.84770  0.59620  0.50520  1.0000
  C   C37       1.0  0.34040  0.00700  0.01690  1.0000
  C   C38       1.0  0.34040  0.99300  0.51690  1.0000
  C   C39       1.0  0.84040  0.50700  0.01690  1.0000
  C   C40       1.0  0.84040  0.49300  0.51690  1.0000
  C   C41       1.0  0.34250  0.07220  0.99280  1.0000
  C   C42       1.0  0.34250  0.92780  0.49280  1.0000
  C   C43       1.0  0.84250  0.57220  0.99280  1.0000
  C   C44       1.0  0.84250  0.42780  0.49280  1.0000
  H   H25       1.0  0.33960  0.11300  0.01070  1.0000
  H   H26       1.0  0.33960  0.88700  0.51070  1.0000
  H   H27       1.0  0.83960  0.61300  0.01070  1.0000
  H   H28       1.0  0.83960  0.38700  0.51070  1.0000
  C   C45       1.0  0.34920  0.07470  0.93970  1.0000
  C   C46       1.0  0.34920  0.92530  0.43970  1.0000
  C   C47       1.0  0.84920  0.57470  0.93970  1.0000
  C   C48       1.0  0.84920  0.42530  0.43970  1.0000
  C   C49       1.0  0.36450  0.01170  0.91670  1.0000
  C   C50       1.0  0.36450  0.98830  0.41670  1.0000
  C   C51       1.0  0.86450  0.51170  0.91670  1.0000
  C   C52       1.0  0.86450  0.48830  0.41670  1.0000
  H   H29       1.0  0.37530  0.01180  0.88370  1.0000
  H   H30       1.0  0.37530  0.98820  0.38370  1.0000
  H   H31       1.0  0.87530  0.51180  0.88370  1.0000
  H   H32       1.0  0.87530  0.48820  0.38370  1.0000
  C   C53       1.0  0.96220  0.81060  0.87760  1.0000
  C   C54       1.0  0.96220  0.18940  0.37760  1.0000
  C   C55       1.0  0.46220  0.31060  0.87760  1.0000
  C   C56       1.0  0.46220  0.68940  0.37760  1.0000
  C   C57       1.0  0.18220  0.81490  0.73820  1.0000
  C   C58       1.0  0.18220  0.18510  0.23820  1.0000
  C   C59       1.0  0.68220  0.31490  0.73820  1.0000
  C   C60       1.0  0.68220  0.68510  0.23820  1.0000
  C   C61       1.0  0.32300  0.00880  0.07010  1.0000
  C   C62       1.0  0.32300  0.99120  0.57010  1.0000
  C   C63       1.0  0.82300  0.50880  0.07010  1.0000
  C   C64       1.0  0.82300  0.49120  0.57010  1.0000
  C   C65       1.0  0.33600  0.14200  0.91210  1.0000
  C   C66       1.0  0.33600  0.85800  0.41210  1.0000
  C   C67       1.0  0.83600  0.64200  0.91210  1.0000
  C   C68       1.0  0.83600  0.35800  0.41210  1.0000
  C   C69       1.0  0.67650  0.97700  0.94040  1.0000
  C   C70       1.0  0.67650  0.02300  0.44040  1.0000
  C   C71       1.0  0.17650  0.47700  0.94040  1.0000
  C   C72       1.0  0.17650  0.52300  0.44040  1.0000
  C   C73       1.0  0.66500  0.98600  0.99061  1.0000
  C   C74       1.0  0.66500  0.01400  0.49061  1.0000
  C   C75       1.0  0.16500  0.48600  0.99061  1.0000
  C   C76       1.0  0.16500  0.51400  0.49061  1.0000
  H   H33       1.0  0.67020  0.94790  0.01190  1.0000
  H   H34       1.0  0.67020  0.05210  0.51190  1.0000
  H   H35       1.0  0.17020  0.44790  0.01190  1.0000
  H   H36       1.0  0.17020  0.55210  0.51190  1.0000
  C   C77       1.0  0.64570  0.05250  0.00870  1.0000
  C   C78       1.0  0.64570  0.94750  0.50870  1.0000
  C   C79       1.0  0.14570  0.55250  0.00870  1.0000
  C   C80       1.0  0.14570  0.44750  0.50870  1.0000
  C   C81       1.0  0.63690  0.10820  0.97550  1.0000
  C   C82       1.0  0.63690  0.89180  0.47550  1.0000
  C   C83       1.0  0.13690  0.60820  0.97550  1.0000
  C   C84       1.0  0.13690  0.39180  0.47550  1.0000
  H   H37       1.0  0.62140  0.15200  0.98690  1.0000
  H   H38       1.0  0.62140  0.84800  0.48690  1.0000
  H   H39       1.0  0.12140  0.65200  0.98690  1.0000
  H   H40       1.0  0.12140  0.34800  0.48690  1.0000
  C   C85       1.0  0.65020  0.10120  0.92679  1.0000
  C   C86       1.0  0.65020  0.89880  0.42679  1.0000
  C   C87       1.0  0.15020  0.60120  0.92679  1.0000
  C   C88       1.0  0.15020  0.39880  0.42679  1.0000
  C   C89       1.0  0.66720  0.03580  0.90980  1.0000
  C   C90       1.0  0.66720  0.96420  0.40980  1.0000
  C   C91       1.0  0.16720  0.53580  0.90980  1.0000
  C   C92       1.0  0.16720  0.46420  0.40980  1.0000
  H   H41       1.0  0.67290  0.03030  0.87630  1.0000
  H   H42       1.0  0.67290  0.96970  0.37630  1.0000
  H   H43       1.0  0.17290  0.53030  0.87630  1.0000
  H   H44       1.0  0.17290  0.46970  0.37630  1.0000
  C   C93       1.0  0.63700  0.16410  0.89270  1.0000
  C   C94       1.0  0.63700  0.83590  0.39270  1.0000
  C   C95       1.0  0.13700  0.66410  0.89270  1.0000
  C   C96       1.0  0.13700  0.33590  0.39270  1.0000
  H   H45       1.0  0.63340  0.20550  0.91260  1.0000
  H   H46       1.0  0.63340  0.79450  0.41260  1.0000
  H   H47       1.0  0.13340  0.70550  0.91260  1.0000
  H   H48       1.0  0.13340  0.29450  0.41260  1.0000
  H   H49       1.0  0.56540  0.16050  0.86870  1.0000
  H   H50       1.0  0.56540  0.83950  0.36870  1.0000
  H   H51       1.0  0.06540  0.66050  0.86870  1.0000
  H   H52       1.0  0.06540  0.33950  0.36870  1.0000
  C   C97       1.0  0.72210  0.15050  0.81440  1.0000
  C   C98       1.0  0.72210  0.84950  0.31440  1.0000
  C   C99       1.0  0.22210  0.65050  0.81440  1.0000
  C   C100      1.0  0.22210  0.34950  0.31440  1.0000
  H   H53       1.0  0.65110  0.13390  0.79830  1.0000
  H   H54       1.0  0.65110  0.86610  0.29830  1.0000
  H   H55       1.0  0.15110  0.63390  0.79830  1.0000
  H   H56       1.0  0.15110  0.36610  0.29830  1.0000
  C   C101      1.0  0.73570  0.17090  0.86460  1.0000
  C   C102      1.0  0.73570  0.82910  0.36460  1.0000
  C   C103      1.0  0.23570  0.67090  0.86460  1.0000
  C   C104      1.0  0.23570  0.32910  0.36460  1.0000
  C   C105      1.0  0.83920  0.19420  0.88800  1.0000
  C   C106      1.0  0.83920  0.80580  0.38800  1.0000
  C   C107      1.0  0.33920  0.69420  0.88800  1.0000
  C   C108      1.0  0.33920  0.30580  0.38800  1.0000
  H   H57       1.0  0.84990  0.20560  0.92180  1.0000
  H   H58       1.0  0.84990  0.79440  0.42180  1.0000
  H   H59       1.0  0.34990  0.70560  0.92180  1.0000
  H   H60       1.0  0.34990  0.29440  0.42180  1.0000
  C   C109      1.0  0.93080  0.20170  0.86280  1.0000
  C   C110      1.0  0.93080  0.79830  0.36280  1.0000
  C   C111      1.0  0.43080  0.70170  0.86280  1.0000
  C   C112      1.0  0.43080  0.29830  0.36280  1.0000
  C   C113      1.0  0.91690  0.18100  0.81300  1.0000
  C   C114      1.0  0.91690  0.81900  0.31300  1.0000
  C   C115      1.0  0.41690  0.68100  0.81300  1.0000
  C   C116      1.0  0.41690  0.31900  0.31300  1.0000
  H   H61       1.0  0.97770  0.18470  0.79610  1.0000
  H   H62       1.0  0.97770  0.81530  0.29610  1.0000
  H   H63       1.0  0.47770  0.68470  0.79610  1.0000
  H   H64       1.0  0.47770  0.31530  0.29610  1.0000
  C   C117      1.0  0.80960  0.15410  0.78810  1.0000
  C   C118      1.0  0.80960  0.84590  0.28810  1.0000
  C   C119      1.0  0.30960  0.65410  0.78810  1.0000
  C   C120      1.0  0.30960  0.34590  0.28810  1.0000
  C   C121      1.0  0.70260  0.90760  0.92050  1.0000
  C   C122      1.0  0.70260  0.09240  0.42050  1.0000
  C   C123      1.0  0.20260  0.40760  0.92050  1.0000
  C   C124      1.0  0.20260  0.59240  0.42050  1.0000
  C   C125      1.0  0.63110  0.06290  0.06190  1.0000
  C   C126      1.0  0.63110  0.93710  0.56190  1.0000
  C   C127      1.0  0.13110  0.56290  0.06190  1.0000
  C   C128      1.0  0.13110  0.43710  0.56190  1.0000
  C   C129      1.0  0.04250  0.23170  0.88840  1.0000
  C   C130      1.0  0.04250  0.76830  0.38840  1.0000
  C   C131      1.0  0.54250  0.73170  0.88840  1.0000
  C   C132      1.0  0.54250  0.26830  0.38840  1.0000
  C   C133      1.0  0.79680  0.13570  0.73300  1.0000
  C   C134      1.0  0.79680  0.86430  0.23300  1.0000
  C   C135      1.0  0.29680  0.63570  0.73300  1.0000
  C   C136      1.0  0.29680  0.36430  0.23300  1.0000
  Co  Co1       1.0  0.76650  0.78265  0.90043  1.0000
  Co  Co2       1.0  0.76650  0.21735  0.40043  1.0000
  Co  Co3       1.0  0.26650  0.28265  0.90043  1.0000
  Co  Co4       1.0  0.26650  0.71735  0.40043  1.0000
  O   O1        1.0  0.86540  0.80308  0.84709  1.0000
  O   O2        1.0  0.86540  0.19692  0.34709  1.0000
  O   O3        1.0  0.36540  0.30308  0.84709  1.0000
  O   O4        1.0  0.36540  0.69692  0.34709  1.0000
  O   O5        1.0  0.96350  0.80590  0.92481  1.0000
  O   O6        1.0  0.96350  0.19410  0.42481  1.0000
  O   O7        1.0  0.46350  0.30590  0.92481  1.0000
  O   O8        1.0  0.46350  0.69410  0.42481  1.0000
  O   O9        1.0  0.09380  0.79650  0.70910  1.0000
  O   O10       1.0  0.09380  0.20350  0.20910  1.0000
  O   O11       1.0  0.59380  0.29650  0.70910  1.0000
  O   O12       1.0  0.59380  0.70350  0.20910  1.0000
  O   O13       1.0  0.27970  0.82140  0.72584  1.0000
  O   O14       1.0  0.27970  0.17860  0.22584  1.0000
  O   O15       1.0  0.77970  0.32140  0.72584  1.0000
  O   O16       1.0  0.77970  0.67860  0.22584  1.0000
  O   O17       1.0  0.32460  0.95019  0.09242  1.0000
  O   O18       1.0  0.32460  0.04981  0.59242  1.0000
  O   O19       1.0  0.82460  0.45019  0.09242  1.0000
  O   O20       1.0  0.82460  0.54981  0.59242  1.0000
  O   O21       1.0  0.30560  0.06613  0.08932  1.0000
  O   O22       1.0  0.30560  0.93387  0.58932  1.0000
  O   O23       1.0  0.80560  0.56613  0.08932  1.0000
  O   O24       1.0  0.80560  0.43387  0.58932  1.0000
  O   O25       1.0  0.31580  0.19299  0.93683  1.0000
  O   O26       1.0  0.31580  0.80701  0.43683  1.0000
  O   O27       1.0  0.81580  0.69299  0.93683  1.0000
  O   O28       1.0  0.81580  0.30701  0.43683  1.0000
  O   O29       1.0  0.33980  0.14059  0.86718  1.0000
  O   O30       1.0  0.33980  0.85941  0.36718  1.0000
  O   O31       1.0  0.83980  0.64059  0.86718  1.0000
  O   O32       1.0  0.83980  0.35941  0.36718  1.0000
  O   O33       1.0  0.73850  0.85857  0.95208  1.0000
  O   O34       1.0  0.73850  0.14143  0.45208  1.0000
  O   O35       1.0  0.23850  0.35857  0.95208  1.0000
  O   O36       1.0  0.23850  0.64143  0.45208  1.0000
  O   O37       1.0  0.69520  0.89982  0.87587  1.0000
  O   O38       1.0  0.69520  0.10018  0.37587  1.0000
  O   O39       1.0  0.19520  0.39982  0.87587  1.0000
  O   O40       1.0  0.19520  0.60018  0.37587  1.0000
  O   O41       1.0  0.59870  0.12108  0.07400  1.0000
  O   O42       1.0  0.59870  0.87892  0.57400  1.0000
  O   O43       1.0  0.09870  0.62108  0.07400  1.0000
  O   O44       1.0  0.09870  0.37892  0.57400  1.0000
  O   O45       1.0  0.65270  0.01350  0.09143  1.0000
  O   O46       1.0  0.65270  0.98650  0.59143  1.0000
  O   O47       1.0  0.15270  0.51350  0.09143  1.0000
  O   O48       1.0  0.15270  0.48650  0.59143  1.0000
  O   O49       1.0  0.11140  0.25218  0.86116  1.0000
  O   O50       1.0  0.11140  0.74782  0.36116  1.0000
  O   O51       1.0  0.61140  0.75218  0.86116  1.0000
  O   O52       1.0  0.61140  0.24782  0.36116  1.0000
  O   O53       1.0  0.06460  0.23390  0.93479  1.0000
  O   O54       1.0  0.06460  0.76610  0.43479  1.0000
  O   O55       1.0  0.56460  0.73390  0.93479  1.0000
  O   O56       1.0  0.56460  0.26610  0.43479  1.0000
  O   O57       1.0  0.87580  0.14689  0.71179  1.0000
  O   O58       1.0  0.87580  0.85311  0.21179  1.0000
  O   O59       1.0  0.37580  0.64689  0.71179  1.0000
  O   O60       1.0  0.37580  0.35311  0.21179  1.0000
  O   O61       1.0  0.69700  0.11390  0.71286  1.0000
  O   O62       1.0  0.69700  0.88610  0.21286  1.0000
  O   O63       1.0  0.19700  0.61390  0.71286  1.0000
  O   O64       1.0  0.19700  0.38610  0.21286  1.0000
