data_image0
_chemical_formula_structural       C8H4C8H4C8H4C4H8C8H4C8H4C8H4C24H4C8H4C8H4C4H8C8H4C8H4C8H4C16Mn8O20H4O48H8O4H8O4H8O4H8
_chemical_formula_sum              "C136 H100 Mn8 O80"
_cell_length_a       29.4892
_cell_length_b       11.5511
_cell_length_c       19.1927
_cell_angle_alpha    90
_cell_angle_beta     111.283
_cell_angle_gamma    90

_space_group_name_H-M_alt    "P 1"
_space_group_IT_number       1

loop_
  _space_group_symop_operation_xyz
  'x, y, z'

loop_
  _atom_site_type_symbol
  _atom_site_label
  _atom_site_symmetry_multiplicity
  _atom_site_fract_x
  _atom_site_fract_y
  _atom_site_fract_z
  _atom_site_occupancy
  C   C1        1.0  0.20284  0.18030  0.33970  1.0000
  C   C2        1.0  0.79716  0.18030  0.66030  1.0000
  C   C3        1.0  0.70284  0.68030  0.33970  1.0000
  C   C4        1.0  0.29716  0.68030  0.66030  1.0000
  C   C5        1.0  0.22840  0.11820  0.40400  1.0000
  C   C6        1.0  0.77160  0.11820  0.59600  1.0000
  C   C7        1.0  0.72840  0.61820  0.40400  1.0000
  C   C8        1.0  0.27160  0.61820  0.59600  1.0000
  H   H1        1.0  0.26030  0.13880  0.43210  1.0000
  H   H2        1.0  0.73970  0.13880  0.56790  1.0000
  H   H3        1.0  0.76030  0.63880  0.43210  1.0000
  H   H4        1.0  0.23970  0.63880  0.56790  1.0000
  C   C9        1.0  0.20682  0.02410  0.42750  1.0000
  C   C10       1.0  0.79318  0.02410  0.57250  1.0000
  C   C11       1.0  0.70682  0.52410  0.42750  1.0000
  C   C12       1.0  0.29318  0.52410  0.57250  1.0000
  C   C13       1.0  0.15932  0.99650  0.38490  1.0000
  C   C14       1.0  0.84068  0.99650  0.61510  1.0000
  C   C15       1.0  0.65932  0.49650  0.38490  1.0000
  C   C16       1.0  0.34068  0.49650  0.61510  1.0000
  H   H5        1.0  0.14450  0.93520  0.39970  1.0000
  H   H6        1.0  0.85550  0.93520  0.60030  1.0000
  H   H7        1.0  0.64450  0.43520  0.39970  1.0000
  H   H8        1.0  0.35550  0.43520  0.60030  1.0000
  C   C17       1.0  0.13276  0.05790  0.32000  1.0000
  C   C18       1.0  0.86724  0.05790  0.68000  1.0000
  C   C19       1.0  0.63276  0.55790  0.32000  1.0000
  C   C20       1.0  0.36724  0.55790  0.68000  1.0000
  C   C21       1.0  0.15506  0.14850  0.29930  1.0000
  C   C22       1.0  0.84494  0.14850  0.70070  1.0000
  C   C23       1.0  0.65506  0.64850  0.29930  1.0000
  C   C24       1.0  0.34494  0.64850  0.70070  1.0000
  H   H9        1.0  0.13750  0.19030  0.25660  1.0000
  H   H10       1.0  0.86250  0.19030  0.74340  1.0000
  H   H11       1.0  0.63750  0.69030  0.25660  1.0000
  H   H12       1.0  0.36250  0.69030  0.74340  1.0000
  C   C25       1.0  0.23576  0.95470  0.49500  1.0000
  C   C26       1.0  0.76424  0.95470  0.50500  1.0000
  C   C27       1.0  0.73576  0.45470  0.49500  1.0000
  C   C28       1.0  0.26424  0.45470  0.50500  1.0000
  H   H13       1.0  0.21330  0.91490  0.51320  1.0000
  H   H14       1.0  0.78670  0.91490  0.48680  1.0000
  H   H15       1.0  0.71330  0.41490  0.51320  1.0000
  H   H16       1.0  0.28670  0.41490  0.48680  1.0000
  H   H17       1.0  0.25470  0.00770  0.53390  1.0000
  H   H18       1.0  0.74530  0.00770  0.46610  1.0000
  H   H19       1.0  0.75470  0.50770  0.53390  1.0000
  H   H20       1.0  0.24530  0.50770  0.46610  1.0000
  C   C29       1.0  0.27050  0.86470  0.48290  1.0000
  C   C30       1.0  0.72950  0.86470  0.51710  1.0000
  C   C31       1.0  0.77050  0.36470  0.48290  1.0000
  C   C32       1.0  0.22950  0.36470  0.51710  1.0000
  C   C33       1.0  0.32014  0.86410  0.52990  1.0000
  C   C34       1.0  0.67986  0.86410  0.47010  1.0000
  C   C35       1.0  0.82014  0.36410  0.52990  1.0000
  C   C36       1.0  0.17986  0.36410  0.47010  1.0000
  H   H21       1.0  0.33170  0.91820  0.56810  1.0000
  H   H22       1.0  0.66830  0.91820  0.43190  1.0000
  H   H23       1.0  0.83170  0.41820  0.56810  1.0000
  H   H24       1.0  0.16830  0.41820  0.43190  1.0000
  C   C37       1.0  0.35201  0.78200  0.51890  1.0000
  C   C38       1.0  0.64799  0.78200  0.48110  1.0000
  C   C39       1.0  0.85201  0.28200  0.51890  1.0000
  C   C40       1.0  0.14799  0.28200  0.48110  1.0000
  C   C41       1.0  0.33462  0.70490  0.46180  1.0000
  C   C42       1.0  0.66538  0.70490  0.53820  1.0000
  C   C43       1.0  0.83462  0.20490  0.46180  1.0000
  C   C44       1.0  0.16538  0.20490  0.53820  1.0000
  H   H25       1.0  0.35570  0.65070  0.45440  1.0000
  H   H26       1.0  0.64430  0.65070  0.54560  1.0000
  H   H27       1.0  0.85570  0.15070  0.45440  1.0000
  H   H28       1.0  0.14430  0.15070  0.54560  1.0000
  C   C45       1.0  0.28624  0.70510  0.41450  1.0000
  C   C46       1.0  0.71376  0.70510  0.58550  1.0000
  C   C47       1.0  0.78624  0.20510  0.41450  1.0000
  C   C48       1.0  0.21376  0.20510  0.58550  1.0000
  C   C49       1.0  0.25442  0.78360  0.42750  1.0000
  C   C50       1.0  0.74558  0.78360  0.57250  1.0000
  C   C51       1.0  0.75442  0.28360  0.42750  1.0000
  C   C52       1.0  0.24558  0.28360  0.57250  1.0000
  H   H29       1.0  0.22150  0.78090  0.39780  1.0000
  H   H30       1.0  0.77850  0.78090  0.60220  1.0000
  H   H31       1.0  0.72150  0.28090  0.39780  1.0000
  H   H32       1.0  0.27850  0.28090  0.60220  1.0000
  C   C53       1.0  0.22742  0.27760  0.31720  1.0000
  C   C54       1.0  0.77258  0.27760  0.68280  1.0000
  C   C55       1.0  0.72742  0.77760  0.31720  1.0000
  C   C56       1.0  0.27258  0.77760  0.68280  1.0000
  C   C57       1.0  0.08074  0.02540  0.27470  1.0000
  C   C58       1.0  0.91926  0.02540  0.72530  1.0000
  C   C59       1.0  0.58074  0.52540  0.27470  1.0000
  C   C60       1.0  0.41926  0.52540  0.72530  1.0000
  C   C61       1.0  0.40525  0.78420  0.56620  1.0000
  C   C62       1.0  0.59475  0.78420  0.43380  1.0000
  C   C63       1.0  0.90525  0.28420  0.56620  1.0000
  C   C64       1.0  0.09475  0.28420  0.43380  1.0000
  C   C65       1.0  0.26829  0.61980  0.35250  1.0000
  C   C66       1.0  0.73171  0.61980  0.64750  1.0000
  C   C67       1.0  0.76829  0.11980  0.35250  1.0000
  C   C68       1.0  0.23171  0.11980  0.64750  1.0000
  C   C69       1.0  0.20606  0.71620  0.07370  1.0000
  C   C70       1.0  0.79394  0.71620  0.92630  1.0000
  C   C71       1.0  0.70606  0.21620  0.07370  1.0000
  C   C72       1.0  0.29394  0.21620  0.92630  1.0000
  C   C73       1.0  0.15875  0.71880  0.02180  1.0000
  C   C74       1.0  0.84125  0.71880  0.97820  1.0000
  C   C75       1.0  0.65875  0.21880  0.02180  1.0000
  C   C76       1.0  0.34125  0.21880  0.97820  1.0000
  H   H33       1.0  0.13580  0.66610  0.02530  1.0000
  H   H34       1.0  0.86420  0.66610  0.97470  1.0000
  H   H35       1.0  0.63580  0.16610  0.02530  1.0000
  H   H36       1.0  0.36420  0.16610  0.97470  1.0000
  C   C77       1.0  0.14581  0.80090  0.96440  1.0000
  C   C78       1.0  0.85419  0.80090  0.03560  1.0000
  C   C79       1.0  0.64581  0.30090  0.96440  1.0000
  C   C80       1.0  0.35419  0.30090  0.03560  1.0000
  C   C81       1.0  0.18028  0.88410  0.96310  1.0000
  C   C82       1.0  0.81972  0.88410  0.03690  1.0000
  C   C83       1.0  0.68028  0.38410  0.96310  1.0000
  C   C84       1.0  0.31972  0.38410  0.03690  1.0000
  H   H37       1.0  0.17110  0.94150  0.92660  1.0000
  H   H38       1.0  0.82890  0.94150  0.07340  1.0000
  H   H39       1.0  0.67110  0.44150  0.92660  1.0000
  H   H40       1.0  0.32890  0.44150  0.07340  1.0000
  C   C85       1.0  0.22772  0.88300  0.01500  1.0000
  C   C86       1.0  0.77228  0.88300  0.98500  1.0000
  C   C87       1.0  0.72772  0.38300  0.01500  1.0000
  C   C88       1.0  0.27228  0.38300  0.98500  1.0000
  C   C89       1.0  0.24066  0.79940  0.06870  1.0000
  C   C90       1.0  0.75934  0.79940  0.93130  1.0000
  C   C91       1.0  0.74066  0.29940  0.06870  1.0000
  C   C92       1.0  0.25934  0.29940  0.93130  1.0000
  H   H41       1.0  0.27250  0.79630  0.10270  1.0000
  H   H42       1.0  0.72750  0.79630  0.89730  1.0000
  H   H43       1.0  0.77250  0.29630  0.10270  1.0000
  H   H44       1.0  0.22750  0.29630  0.89730  1.0000
  C   C93       1.0  0.26361  0.96500  0.00350  1.0000
  C   C94       1.0  0.73639  0.96500  0.99650  1.0000
  C   C95       1.0  0.76361  0.46500  0.00350  1.0000
  C   C96       1.0  0.23639  0.46500  0.99650  1.0000
  H   H45       1.0  0.24580  0.02060  0.96550  1.0000
  H   H46       1.0  0.75420  0.02060  0.03450  1.0000
  H   H47       1.0  0.74580  0.52060  0.96550  1.0000
  H   H48       1.0  0.25420  0.52060  0.03450  1.0000
  H   H49       1.0  0.28450  0.92150  0.98390  1.0000
  H   H50       1.0  0.71550  0.92150  0.01610  1.0000
  H   H51       1.0  0.78450  0.42150  0.98390  1.0000
  H   H52       1.0  0.21550  0.42150  0.01610  1.0000
  C   C97       1.0  0.29615  0.03230  0.07290  1.0000
  C   C98       1.0  0.70385  0.03230  0.92710  1.0000
  C   C99       1.0  0.79615  0.53230  0.07290  1.0000
  C   C100      1.0  0.20385  0.53230  0.92710  1.0000
  C   C101      1.0  0.28020  0.13370  0.09630  1.0000
  C   C102      1.0  0.71980  0.13370  0.90370  1.0000
  C   C103      1.0  0.78020  0.63370  0.09630  1.0000
  C   C104      1.0  0.21980  0.63370  0.90370  1.0000
  H   H53       1.0  0.24960  0.16310  0.06860  1.0000
  H   H54       1.0  0.75040  0.16310  0.93140  1.0000
  H   H55       1.0  0.74960  0.66310  0.06860  1.0000
  H   H56       1.0  0.25040  0.66310  0.93140  1.0000
  C   C105      1.0  0.30914  0.19090  0.15980  1.0000
  C   C106      1.0  0.69086  0.19090  0.84020  1.0000
  C   C107      1.0  0.80914  0.69090  0.15980  1.0000
  C   C108      1.0  0.19086  0.69090  0.84020  1.0000
  C   C109      1.0  0.35451  0.14920  0.20030  1.0000
  C   C110      1.0  0.64549  0.14920  0.79970  1.0000
  C   C111      1.0  0.85451  0.64920  0.20030  1.0000
  C   C112      1.0  0.14549  0.64920  0.79970  1.0000
  H   H57       1.0  0.37400  0.18750  0.24340  1.0000
  H   H58       1.0  0.62600  0.18750  0.75660  1.0000
  H   H59       1.0  0.87400  0.68750  0.24340  1.0000
  H   H60       1.0  0.12600  0.68750  0.75660  1.0000
  C   C113      1.0  0.37136  0.05020  0.17740  1.0000
  C   C114      1.0  0.62864  0.05020  0.82260  1.0000
  C   C115      1.0  0.87136  0.55020  0.17740  1.0000
  C   C116      1.0  0.12864  0.55020  0.82260  1.0000
  C   C117      1.0  0.34291  0.99000  0.11400  1.0000
  C   C118      1.0  0.65709  0.99000  0.88600  1.0000
  C   C119      1.0  0.84291  0.49000  0.11400  1.0000
  C   C120      1.0  0.15709  0.49000  0.88600  1.0000
  H   H61       1.0  0.35450  0.92330  0.09900  1.0000
  H   H62       1.0  0.64550  0.92330  0.90100  1.0000
  H   H63       1.0  0.85450  0.42330  0.09900  1.0000
  H   H64       1.0  0.14550  0.42330  0.90100  1.0000
  C   C121      1.0  0.22149  0.62450  0.13370  1.0000
  C   C122      1.0  0.77851  0.62450  0.86630  1.0000
  C   C123      1.0  0.72149  0.12450  0.13370  1.0000
  C   C124      1.0  0.27851  0.12450  0.86630  1.0000
  C   C125      1.0  0.09617  0.80040  0.90540  1.0000
  C   C126      1.0  0.90383  0.80040  0.09460  1.0000
  C   C127      1.0  0.59617  0.30040  0.90540  1.0000
  C   C128      1.0  0.40383  0.30040  0.09460  1.0000
  C   C129      1.0  0.29291  0.30400  0.18200  1.0000
  C   C130      1.0  0.70709  0.30400  0.81800  1.0000
  C   C131      1.0  0.79291  0.80400  0.18200  1.0000
  C   C132      1.0  0.20709  0.80400  0.81800  1.0000
  C   C133      1.0  0.42353  0.01160  0.21890  1.0000
  C   C134      1.0  0.57647  0.01160  0.78110  1.0000
  C   C135      1.0  0.92353  0.51160  0.21890  1.0000
  C   C136      1.0  0.07647  0.51160  0.78110  1.0000
  Mn  Mn1       1.0  0.24850  0.46373  0.24120  1.0000
  Mn  Mn2       1.0  0.75150  0.46373  0.75880  1.0000
  Mn  Mn3       1.0  0.74850  0.96373  0.24120  1.0000
  Mn  Mn4       1.0  0.25150  0.96373  0.75880  1.0000
  Mn  Mn5       1.0  0.10162  0.93743  0.75727  1.0000
  Mn  Mn6       1.0  0.89838  0.93743  0.24273  1.0000
  Mn  Mn7       1.0  0.60162  0.43743  0.75727  1.0000
  Mn  Mn8       1.0  0.39838  0.43743  0.24273  1.0000
  O   O1        1.0  0.19993  0.35200  0.27119  1.0000
  O   O2        1.0  0.80007  0.35200  0.72881  1.0000
  O   O3        1.0  0.69993  0.85200  0.27119  1.0000
  O   O4        1.0  0.30007  0.85200  0.72881  1.0000
  O   O5        1.0  0.27230  0.28200  0.33878  1.0000
  O   O6        1.0  0.72770  0.28200  0.66122  1.0000
  O   O7        1.0  0.77230  0.78200  0.33878  1.0000
  O   O8        1.0  0.22770  0.78200  0.66122  1.0000
  O   O9        1.0  0.05877  0.08920  0.21917  1.0000
  O   O10       1.0  0.94123  0.08920  0.78083  1.0000
  O   O11       1.0  0.55877  0.58920  0.21917  1.0000
  O   O12       1.0  0.44123  0.58920  0.78083  1.0000
  O   O13       1.0  0.06201  0.94170  0.29144  1.0000
  O   O14       1.0  0.93799  0.94170  0.70856  1.0000
  O   O15       1.0  0.56201  0.44170  0.29144  1.0000
  O   O16       1.0  0.43799  0.44170  0.70856  1.0000
  O   O17       1.0  0.41883  0.83800  0.62860  1.0000
  O   O18       1.0  0.58117  0.83800  0.37140  1.0000
  O   O19       1.0  0.91883  0.33800  0.62860  1.0000
  O   O20       1.0  0.08117  0.33800  0.37140  1.0000
  H   H65       1.0  0.39210  0.84300  0.64570  1.0000
  H   H66       1.0  0.60790  0.84300  0.35430  1.0000
  H   H67       1.0  0.89210  0.34300  0.64570  1.0000
  H   H68       1.0  0.10790  0.34300  0.35430  1.0000
  O   O21       1.0  0.43466  0.73120  0.54600  1.0000
  O   O22       1.0  0.56534  0.73120  0.45400  1.0000
  O   O23       1.0  0.93466  0.23120  0.54600  1.0000
  O   O24       1.0  0.06534  0.23120  0.45400  1.0000
  O   O25       1.0  0.22384  0.61390  0.31155  1.0000
  O   O26       1.0  0.77616  0.61390  0.68845  1.0000
  O   O27       1.0  0.72384  0.11390  0.31155  1.0000
  O   O28       1.0  0.27616  0.11390  0.68845  1.0000
  O   O29       1.0  0.29790  0.55150  0.33938  1.0000
  O   O30       1.0  0.70210  0.55150  0.66062  1.0000
  O   O31       1.0  0.79790  0.05150  0.33938  1.0000
  O   O32       1.0  0.20210  0.05150  0.66062  1.0000
  O   O33       1.0  0.18989  0.55960  0.14315  1.0000
  O   O34       1.0  0.81011  0.55960  0.85685  1.0000
  O   O35       1.0  0.68989  0.05960  0.14315  1.0000
  O   O36       1.0  0.31011  0.05960  0.85685  1.0000
  O   O37       1.0  0.26514  0.61160  0.17138  1.0000
  O   O38       1.0  0.73486  0.61160  0.82862  1.0000
  O   O39       1.0  0.76514  0.11160  0.17138  1.0000
  O   O40       1.0  0.23486  0.11160  0.82862  1.0000
  O   O41       1.0  0.06417  0.73480  0.91042  1.0000
  O   O42       1.0  0.93583  0.73480  0.08958  1.0000
  O   O43       1.0  0.56417  0.23480  0.91042  1.0000
  O   O44       1.0  0.43583  0.23480  0.08958  1.0000
  O   O45       1.0  0.08725  0.87650  0.85340  1.0000
  O   O46       1.0  0.91275  0.87650  0.14660  1.0000
  O   O47       1.0  0.58725  0.37650  0.85340  1.0000
  O   O48       1.0  0.41275  0.37650  0.14660  1.0000
  O   O49       1.0  0.24885  0.32540  0.16295  1.0000
  O   O50       1.0  0.75115  0.32540  0.83705  1.0000
  O   O51       1.0  0.74885  0.82540  0.16295  1.0000
  O   O52       1.0  0.25115  0.82540  0.83705  1.0000
  O   O53       1.0  0.32530  0.37340  0.22460  1.0000
  O   O54       1.0  0.67470  0.37340  0.77540  1.0000
  O   O55       1.0  0.82530  0.87340  0.22460  1.0000
  O   O56       1.0  0.17470  0.87340  0.77540  1.0000
  O   O57       1.0  0.43857  0.92220  0.19738  1.0000
  O   O58       1.0  0.56143  0.92220  0.80262  1.0000
  O   O59       1.0  0.93857  0.42220  0.19738  1.0000
  O   O60       1.0  0.06143  0.42220  0.80262  1.0000
  O   O61       1.0  0.44902  0.07320  0.27350  1.0000
  O   O62       1.0  0.55098  0.07320  0.72650  1.0000
  O   O63       1.0  0.94902  0.57320  0.27350  1.0000
  O   O64       1.0  0.05098  0.57320  0.72650  1.0000
  O   O65       1.0  0.05527  0.80160  0.68536  1.0000
  O   O66       1.0  0.94473  0.80160  0.31464  1.0000
  O   O67       1.0  0.55527  0.30160  0.68536  1.0000
  O   O68       1.0  0.44473  0.30160  0.31464  1.0000
  H   H69       1.0  0.04180  0.75460  0.71430  1.0000
  H   H70       1.0  0.95820  0.75460  0.28570  1.0000
  H   H71       1.0  0.54180  0.25460  0.71430  1.0000
  H   H72       1.0  0.45820  0.25460  0.28570  1.0000
  H   H73       1.0  0.02940  0.83720  0.64510  1.0000
  H   H74       1.0  0.97060  0.83720  0.35490  1.0000
  H   H75       1.0  0.52940  0.33720  0.64510  1.0000
  H   H76       1.0  0.47060  0.33720  0.35490  1.0000
  O   O69       1.0  0.03485  0.03740  0.72788  1.0000
  O   O70       1.0  0.96515  0.03740  0.27212  1.0000
  O   O71       1.0  0.53485  0.53740  0.72788  1.0000
  O   O72       1.0  0.46515  0.53740  0.27212  1.0000
  H   H77       1.0  0.04190  0.10760  0.74020  1.0000
  H   H78       1.0  0.95810  0.10760  0.25980  1.0000
  H   H79       1.0  0.54190  0.60760  0.74020  1.0000
  H   H80       1.0  0.45810  0.60760  0.25980  1.0000
  H   H81       1.0  0.01820  0.01150  0.75250  1.0000
  H   H82       1.0  0.98180  0.01150  0.24750  1.0000
  H   H83       1.0  0.51820  0.51150  0.75250  1.0000
  H   H84       1.0  0.48180  0.51150  0.24750  1.0000
  O   O73       1.0  0.10852  0.00490  0.65370  1.0000
  O   O74       1.0  0.89148  0.00490  0.34630  1.0000
  O   O75       1.0  0.60852  0.50490  0.65370  1.0000
  O   O76       1.0  0.39148  0.50490  0.34630  1.0000
  H   H85       1.0  0.13220  0.05210  0.66460  1.0000
  H   H86       1.0  0.86780  0.05210  0.33540  1.0000
  H   H87       1.0  0.63220  0.55210  0.66460  1.0000
  H   H88       1.0  0.36780  0.55210  0.33540  1.0000
  H   H89       1.0  0.08250  0.03800  0.62600  1.0000
  H   H90       1.0  0.91750  0.03800  0.37400  1.0000
  H   H91       1.0  0.58250  0.53800  0.62600  1.0000
  H   H92       1.0  0.41750  0.53800  0.37400  1.0000
  O   O77       1.0  0.14022  0.08980  0.81845  1.0000
  O   O78       1.0  0.85978  0.08980  0.18155  1.0000
  O   O79       1.0  0.64022  0.58980  0.81845  1.0000
  O   O80       1.0  0.35978  0.58980  0.18155  1.0000
  H   H93       1.0  0.14030  0.08860  0.86850  1.0000
  H   H94       1.0  0.85970  0.08860  0.13150  1.0000
  H   H95       1.0  0.64030  0.58860  0.86850  1.0000
  H   H96       1.0  0.35970  0.58860  0.13150  1.0000
  H   H97       1.0  0.17310  0.08920  0.82000  1.0000
  H   H98       1.0  0.82690  0.08920  0.18000  1.0000
  H   H99       1.0  0.67310  0.58920  0.82000  1.0000
  H   H100      1.0  0.32690  0.58920  0.18000  1.0000
