data_image0
_chemical_formula_structural       C8H4C8H4C8H4C4H8C8H4C8H4C8H4C24H4C8H4C8H4C4H8C8H4C8H4C8H4C16Mn8O20H4O48H8O4H8O4H8O4H8
_chemical_formula_sum              "C136 H100 Mn8 O80"
_cell_length_a       29.406
_cell_length_b       11.4951
_cell_length_c       19.0459
_cell_angle_alpha    90
_cell_angle_beta     110.651
_cell_angle_gamma    90

_space_group_name_H-M_alt    "P 1"
_space_group_IT_number       1

loop_
  _space_group_symop_operation_xyz
  'x, y, z'

loop_
  _atom_site_type_symbol
  _atom_site_label
  _atom_site_symmetry_multiplicity
  _atom_site_fract_x
  _atom_site_fract_y
  _atom_site_fract_z
  _atom_site_occupancy
  C   C1        1.0  0.71725  0.73970  0.58650  1.0000
  C   C2        1.0  0.28275  0.73970  0.41350  1.0000
  C   C3        1.0  0.21725  0.23970  0.58650  1.0000
  C   C4        1.0  0.78275  0.23970  0.41350  1.0000
  C   C5        1.0  0.74863  0.66130  0.57460  1.0000
  C   C6        1.0  0.25137  0.66130  0.42540  1.0000
  C   C7        1.0  0.24863  0.16130  0.57460  1.0000
  C   C8        1.0  0.75137  0.16130  0.42540  1.0000
  H   H1        1.0  0.78140  0.66440  0.60410  1.0000
  H   H2        1.0  0.21860  0.66440  0.39590  1.0000
  H   H3        1.0  0.28140  0.16440  0.60410  1.0000
  H   H4        1.0  0.71860  0.16440  0.39590  1.0000
  C   C9        1.0  0.73223  0.57690  0.51910  1.0000
  C   C10       1.0  0.26777  0.57690  0.48090  1.0000
  C   C11       1.0  0.23223  0.07690  0.51910  1.0000
  C   C12       1.0  0.76777  0.07690  0.48090  1.0000
  C   C13       1.0  0.68284  0.57240  0.47600  1.0000
  C   C14       1.0  0.31716  0.57240  0.52400  1.0000
  C   C15       1.0  0.18284  0.07240  0.47600  1.0000
  C   C16       1.0  0.81716  0.07240  0.52400  1.0000
  H   H5        1.0  0.67160  0.51580  0.43900  1.0000
  H   H6        1.0  0.32840  0.51580  0.56100  1.0000
  H   H7        1.0  0.17160  0.01580  0.43900  1.0000
  H   H8        1.0  0.82840  0.01580  0.56100  1.0000
  C   C17       1.0  0.65049  0.65020  0.48730  1.0000
  C   C18       1.0  0.34951  0.65020  0.51270  1.0000
  C   C19       1.0  0.15049  0.15020  0.48730  1.0000
  C   C20       1.0  0.84951  0.15020  0.51270  1.0000
  C   C21       1.0  0.66776  0.73420  0.54300  1.0000
  C   C22       1.0  0.33224  0.73420  0.45700  1.0000
  C   C23       1.0  0.16776  0.23420  0.54300  1.0000
  C   C24       1.0  0.83224  0.23420  0.45700  1.0000
  H   H9        1.0  0.64630  0.78700  0.55130  1.0000
  H   H10       1.0  0.35370  0.78700  0.44870  1.0000
  H   H11       1.0  0.14630  0.28700  0.55130  1.0000
  H   H12       1.0  0.85370  0.28700  0.44870  1.0000
  C   C25       1.0  0.76872  0.49190  0.50700  1.0000
  C   C26       1.0  0.23128  0.49190  0.49300  1.0000
  C   C27       1.0  0.26872  0.99190  0.50700  1.0000
  C   C28       1.0  0.73128  0.99190  0.49300  1.0000
  H   H13       1.0  0.75130  0.44050  0.46590  1.0000
  H   H14       1.0  0.24870  0.44050  0.53410  1.0000
  H   H15       1.0  0.25130  0.94050  0.46590  1.0000
  H   H16       1.0  0.74870  0.94050  0.53410  1.0000
  H   H17       1.0  0.79170  0.53600  0.49150  1.0000
  H   H18       1.0  0.20830  0.53600  0.50850  1.0000
  H   H19       1.0  0.29170  0.03600  0.49150  1.0000
  H   H20       1.0  0.70830  0.03600  0.50850  1.0000
  C   C29       1.0  0.79707  0.41780  0.57360  1.0000
  C   C30       1.0  0.20293  0.41780  0.42640  1.0000
  C   C31       1.0  0.29707  0.91780  0.57360  1.0000
  C   C32       1.0  0.70293  0.91780  0.42640  1.0000
  C   C33       1.0  0.84409  0.44870  0.61610  1.0000
  C   C34       1.0  0.15591  0.44870  0.38390  1.0000
  C   C35       1.0  0.34409  0.94870  0.61610  1.0000
  C   C36       1.0  0.65591  0.94870  0.38390  1.0000
  H   H21       1.0  0.85840  0.51250  0.60220  1.0000
  H   H22       1.0  0.14160  0.51250  0.39780  1.0000
  H   H23       1.0  0.35840  0.01250  0.60220  1.0000
  H   H24       1.0  0.64160  0.01250  0.39780  1.0000
  C   C37       1.0  0.87033  0.38460  0.68010  1.0000
  C   C38       1.0  0.12967  0.38460  0.31990  1.0000
  C   C39       1.0  0.37033  0.88460  0.68010  1.0000
  C   C40       1.0  0.62967  0.88460  0.31990  1.0000
  C   C41       1.0  0.84776  0.28700  0.70020  1.0000
  C   C42       1.0  0.15224  0.28700  0.29980  1.0000
  C   C43       1.0  0.34776  0.78700  0.70020  1.0000
  C   C44       1.0  0.65224  0.78700  0.29980  1.0000
  H   H25       1.0  0.86530  0.24080  0.74080  1.0000
  H   H26       1.0  0.13470  0.24080  0.25920  1.0000
  H   H27       1.0  0.36530  0.74080  0.74080  1.0000
  H   H28       1.0  0.63470  0.74080  0.25920  1.0000
  C   C45       1.0  0.79991  0.26090  0.65950  1.0000
  C   C46       1.0  0.20009  0.26090  0.34050  1.0000
  C   C47       1.0  0.29991  0.76090  0.65950  1.0000
  C   C48       1.0  0.70009  0.76090  0.34050  1.0000
  C   C49       1.0  0.77491  0.32770  0.59680  1.0000
  C   C50       1.0  0.22509  0.32770  0.40320  1.0000
  C   C51       1.0  0.27491  0.82770  0.59680  1.0000
  C   C52       1.0  0.72509  0.82770  0.40320  1.0000
  H   H29       1.0  0.74250  0.31100  0.56990  1.0000
  H   H30       1.0  0.25750  0.31100  0.43010  1.0000
  H   H31       1.0  0.24250  0.81100  0.56990  1.0000
  H   H32       1.0  0.75750  0.81100  0.43010  1.0000
  C   C53       1.0  0.73405  0.82620  0.64770  1.0000
  C   C54       1.0  0.26595  0.82620  0.35230  1.0000
  C   C55       1.0  0.23405  0.32620  0.64770  1.0000
  C   C56       1.0  0.76595  0.32620  0.35230  1.0000
  C   C57       1.0  0.59653  0.64460  0.44370  1.0000
  C   C58       1.0  0.40347  0.64460  0.55630  1.0000
  C   C59       1.0  0.09653  0.14460  0.44370  1.0000
  C   C60       1.0  0.90347  0.14460  0.55630  1.0000
  C   C61       1.0  0.92239  0.41360  0.72680  1.0000
  C   C62       1.0  0.07761  0.41360  0.27320  1.0000
  C   C63       1.0  0.42239  0.91360  0.72680  1.0000
  C   C64       1.0  0.57761  0.91360  0.27320  1.0000
  C   C65       1.0  0.77569  0.16710  0.68360  1.0000
  C   C66       1.0  0.22431  0.16710  0.31640  1.0000
  C   C67       1.0  0.27569  0.66710  0.68360  1.0000
  C   C68       1.0  0.72431  0.66710  0.31640  1.0000
  C   C69       1.0  0.79394  0.72580  0.92700  1.0000
  C   C70       1.0  0.20606  0.72580  0.07300  1.0000
  C   C71       1.0  0.29394  0.22580  0.92700  1.0000
  C   C72       1.0  0.70606  0.22580  0.07300  1.0000
  C   C73       1.0  0.76057  0.64500  0.93220  1.0000
  C   C74       1.0  0.23943  0.64500  0.06780  1.0000
  C   C75       1.0  0.26057  0.14500  0.93220  1.0000
  C   C76       1.0  0.73943  0.14500  0.06780  1.0000
  H   H33       1.0  0.72890  0.64810  0.89800  1.0000
  H   H34       1.0  0.27110  0.64810  0.10200  1.0000
  H   H35       1.0  0.22890  0.14810  0.89800  1.0000
  H   H36       1.0  0.77110  0.14810  0.10200  1.0000
  C   C77       1.0  0.77233  0.56170  0.98530  1.0000
  C   C78       1.0  0.22767  0.56170  0.01470  1.0000
  C   C79       1.0  0.27233  0.06170  0.98530  1.0000
  C   C80       1.0  0.72767  0.06170  0.01470  1.0000
  C   C81       1.0  0.81984  0.55920  0.03740  1.0000
  C   C82       1.0  0.18016  0.55920  0.96260  1.0000
  C   C83       1.0  0.31984  0.05920  0.03740  1.0000
  C   C84       1.0  0.68016  0.05920  0.96260  1.0000
  H   H37       1.0  0.82840  0.50140  0.07390  1.0000
  H   H38       1.0  0.17160  0.50140  0.92610  1.0000
  H   H39       1.0  0.32840  0.00140  0.07390  1.0000
  H   H40       1.0  0.67160  0.00140  0.92610  1.0000
  C   C85       1.0  0.85463  0.64000  0.03640  1.0000
  C   C86       1.0  0.14537  0.64000  0.96360  1.0000
  C   C87       1.0  0.35463  0.14000  0.03640  1.0000
  C   C88       1.0  0.64537  0.14000  0.96360  1.0000
  C   C89       1.0  0.84102  0.72220  0.97990  1.0000
  C   C90       1.0  0.15898  0.72220  0.02010  1.0000
  C   C91       1.0  0.34102  0.22220  0.97990  1.0000
  C   C92       1.0  0.65898  0.22220  0.02010  1.0000
  H   H41       1.0  0.86380  0.77650  0.97710  1.0000
  H   H42       1.0  0.13620  0.77650  0.02290  1.0000
  H   H43       1.0  0.36380  0.27650  0.97710  1.0000
  H   H44       1.0  0.63620  0.27650  0.02290  1.0000
  C   C93       1.0  0.73630  0.47590  0.99705  1.0000
  C   C94       1.0  0.26370  0.47590  0.00295  1.0000
  C   C95       1.0  0.23630  0.97590  0.99705  1.0000
  C   C96       1.0  0.76370  0.97590  0.00295  1.0000
  H   H45       1.0  0.75420  0.41810  0.03340  1.0000
  H   H46       1.0  0.24580  0.41810  0.96660  1.0000
  H   H47       1.0  0.25420  0.91810  0.03340  1.0000
  H   H48       1.0  0.74580  0.91810  0.96660  1.0000
  H   H49       1.0  0.71540  0.51730  0.01820  1.0000
  H   H50       1.0  0.28460  0.51730  0.98180  1.0000
  H   H51       1.0  0.21540  0.01730  0.01820  1.0000
  H   H52       1.0  0.78460  0.01730  0.98180  1.0000
  C   C97       1.0  0.70480  0.41410  0.92660  1.0000
  C   C98       1.0  0.29520  0.41410  0.07340  1.0000
  C   C99       1.0  0.20480  0.91410  0.92660  1.0000
  C   C100      1.0  0.79520  0.91410  0.07340  1.0000
  C   C101      1.0  0.72059  0.31190  0.90350  1.0000
  C   C102      1.0  0.27941  0.31190  0.09650  1.0000
  C   C103      1.0  0.22059  0.81190  0.90350  1.0000
  C   C104      1.0  0.77941  0.81190  0.09650  1.0000
  H   H53       1.0  0.75150  0.28430  0.93070  1.0000
  H   H54       1.0  0.24850  0.28430  0.06930  1.0000
  H   H55       1.0  0.25150  0.78430  0.93070  1.0000
  H   H56       1.0  0.74850  0.78430  0.06930  1.0000
  C   C105      1.0  0.69194  0.25000  0.84160  1.0000
  C   C106      1.0  0.30806  0.25000  0.15840  1.0000
  C   C107      1.0  0.19194  0.75000  0.84160  1.0000
  C   C108      1.0  0.80806  0.75000  0.15840  1.0000
  C   C109      1.0  0.64607  0.29610  0.79993  1.0000
  C   C110      1.0  0.35393  0.29610  0.20007  1.0000
  C   C111      1.0  0.14607  0.79610  0.79993  1.0000
  C   C112      1.0  0.85393  0.79610  0.20007  1.0000
  H   H57       1.0  0.62700  0.25870  0.75610  1.0000
  H   H58       1.0  0.37300  0.25870  0.24390  1.0000
  H   H59       1.0  0.12700  0.75870  0.75610  1.0000
  H   H60       1.0  0.87300  0.75870  0.24390  1.0000
  C   C113      1.0  0.62870  0.39420  0.82210  1.0000
  C   C114      1.0  0.37130  0.39420  0.17790  1.0000
  C   C115      1.0  0.12870  0.89420  0.82210  1.0000
  C   C116      1.0  0.87130  0.89420  0.17790  1.0000
  C   C117      1.0  0.65895  0.45190  0.88730  1.0000
  C   C118      1.0  0.34105  0.45190  0.11270  1.0000
  C   C119      1.0  0.15895  0.95190  0.88730  1.0000
  C   C120      1.0  0.84105  0.95190  0.11270  1.0000
  H   H61       1.0  0.64720  0.51760  0.90380  1.0000
  H   H62       1.0  0.35280  0.51760  0.09620  1.0000
  H   H63       1.0  0.14720  0.01760  0.90380  1.0000
  H   H64       1.0  0.85280  0.01760  0.09620  1.0000
  C   C121      1.0  0.77990  0.81680  0.86600  1.0000
  C   C122      1.0  0.22010  0.81680  0.13400  1.0000
  C   C123      1.0  0.27990  0.31680  0.86600  1.0000
  C   C124      1.0  0.72010  0.31680  0.13400  1.0000
  C   C125      1.0  0.90340  0.63970  0.09570  1.0000
  C   C126      1.0  0.09660  0.63970  0.90430  1.0000
  C   C127      1.0  0.40340  0.13970  0.09570  1.0000
  C   C128      1.0  0.59660  0.13970  0.90430  1.0000
  C   C129      1.0  0.70749  0.14060  0.81732  1.0000
  C   C130      1.0  0.29251  0.14060  0.18268  1.0000
  C   C131      1.0  0.20749  0.64060  0.81732  1.0000
  C   C132      1.0  0.79251  0.64060  0.18268  1.0000
  C   C133      1.0  0.57819  0.43390  0.78020  1.0000
  C   C134      1.0  0.42181  0.43390  0.21980  1.0000
  C   C135      1.0  0.07819  0.93390  0.78020  1.0000
  C   C136      1.0  0.92181  0.93390  0.21980  1.0000
  Mn  Mn1       1.0  0.75355  0.98004  0.75979  1.0000
  Mn  Mn2       1.0  0.24645  0.98004  0.24021  1.0000
  Mn  Mn3       1.0  0.25355  0.48004  0.75979  1.0000
  Mn  Mn4       1.0  0.74645  0.48004  0.24021  1.0000
  Mn  Mn5       1.0  0.89745  0.50428  0.24460  1.0000
  Mn  Mn6       1.0  0.10255  0.50428  0.75540  1.0000
  Mn  Mn7       1.0  0.39745  0.00428  0.24460  1.0000
  Mn  Mn8       1.0  0.60255  0.00428  0.75540  1.0000
  O   O1        1.0  0.70452  0.89140  0.66135  1.0000
  O   O2        1.0  0.29548  0.89140  0.33865  1.0000
  O   O3        1.0  0.20452  0.39140  0.66135  1.0000
  O   O4        1.0  0.79548  0.39140  0.33865  1.0000
  O   O5        1.0  0.77813  0.83020  0.68877  1.0000
  O   O6        1.0  0.22187  0.83020  0.31123  1.0000
  O   O7        1.0  0.27813  0.33020  0.68877  1.0000
  O   O8        1.0  0.72187  0.33020  0.31123  1.0000
  O   O9        1.0  0.56859  0.69790  0.46538  1.0000
  O   O10       1.0  0.43141  0.69790  0.53462  1.0000
  O   O11       1.0  0.06859  0.19790  0.46538  1.0000
  O   O12       1.0  0.93141  0.19790  0.53462  1.0000
  O   O13       1.0  0.58331  0.58580  0.38423  1.0000
  O   O14       1.0  0.41669  0.58580  0.61577  1.0000
  O   O15       1.0  0.08331  0.08580  0.38423  1.0000
  O   O16       1.0  0.91669  0.08580  0.61577  1.0000
  O   O17       1.0  0.94208  0.49920  0.70931  1.0000
  O   O18       1.0  0.05792  0.49920  0.29069  1.0000
  O   O19       1.0  0.44208  0.99920  0.70931  1.0000
  O   O20       1.0  0.55792  0.99920  0.29069  1.0000
  H   H65       1.0  0.97020  0.47430  0.69880  1.0000
  H   H66       1.0  0.02980  0.47430  0.30120  1.0000
  H   H67       1.0  0.47020  0.97430  0.69880  1.0000
  H   H68       1.0  0.52980  0.97430  0.30120  1.0000
  O   O21       1.0  0.94310  0.35020  0.78236  1.0000
  O   O22       1.0  0.05690  0.35020  0.21764  1.0000
  O   O23       1.0  0.44310  0.85020  0.78236  1.0000
  O   O24       1.0  0.55690  0.85020  0.21764  1.0000
  O   O25       1.0  0.80251  0.08990  0.72791  1.0000
  O   O26       1.0  0.19749  0.08990  0.27209  1.0000
  O   O27       1.0  0.30251  0.58990  0.72791  1.0000
  O   O28       1.0  0.69749  0.58990  0.27209  1.0000
  O   O29       1.0  0.73219  0.16100  0.66563  1.0000
  O   O30       1.0  0.26781  0.16100  0.33437  1.0000
  O   O31       1.0  0.23219  0.66100  0.66563  1.0000
  O   O32       1.0  0.76781  0.66100  0.33437  1.0000
  O   O33       1.0  0.81147  0.88340  0.85747  1.0000
  O   O34       1.0  0.18853  0.88340  0.14253  1.0000
  O   O35       1.0  0.31147  0.38340  0.85747  1.0000
  O   O36       1.0  0.68853  0.38340  0.14253  1.0000
  O   O37       1.0  0.73599  0.83160  0.82760  1.0000
  O   O38       1.0  0.26401  0.83160  0.17240  1.0000
  O   O39       1.0  0.23599  0.33160  0.82760  1.0000
  O   O40       1.0  0.76401  0.33160  0.17240  1.0000
  O   O41       1.0  0.93546  0.70800  0.09022  1.0000
  O   O42       1.0  0.06454  0.70800  0.90978  1.0000
  O   O43       1.0  0.43546  0.20800  0.09022  1.0000
  O   O44       1.0  0.56454  0.20800  0.90978  1.0000
  O   O45       1.0  0.91158  0.56490  0.14781  1.0000
  O   O46       1.0  0.08842  0.56490  0.85219  1.0000
  O   O47       1.0  0.41158  0.06490  0.14781  1.0000
  O   O48       1.0  0.58842  0.06490  0.85219  1.0000
  O   O49       1.0  0.75198  0.11720  0.83673  1.0000
  O   O50       1.0  0.24802  0.11720  0.16327  1.0000
  O   O51       1.0  0.25198  0.61720  0.83673  1.0000
  O   O52       1.0  0.74802  0.61720  0.16327  1.0000
  O   O53       1.0  0.67574  0.07260  0.77503  1.0000
  O   O54       1.0  0.32426  0.07260  0.22497  1.0000
  O   O55       1.0  0.17574  0.57260  0.77503  1.0000
  O   O56       1.0  0.82426  0.57260  0.22497  1.0000
  O   O57       1.0  0.56250  0.52180  0.80188  1.0000
  O   O58       1.0  0.43750  0.52180  0.19812  1.0000
  O   O59       1.0  0.06250  0.02180  0.80188  1.0000
  O   O60       1.0  0.93750  0.02180  0.19812  1.0000
  O   O61       1.0  0.55366  0.37200  0.72587  1.0000
  O   O62       1.0  0.44634  0.37200  0.27413  1.0000
  O   O63       1.0  0.05366  0.87200  0.72587  1.0000
  O   O64       1.0  0.94634  0.87200  0.27413  1.0000
  O   O65       1.0  0.86077  0.35160  0.18294  1.0000
  O   O66       1.0  0.13923  0.35160  0.81706  1.0000
  O   O67       1.0  0.36077  0.85160  0.18294  1.0000
  O   O68       1.0  0.63923  0.85160  0.81706  1.0000
  H   H69       1.0  0.83450  0.37230  0.14890  1.0000
  H   H70       1.0  0.16550  0.37230  0.85110  1.0000
  H   H71       1.0  0.33450  0.87230  0.14890  1.0000
  H   H72       1.0  0.66550  0.87230  0.85110  1.0000
  H   H73       1.0  0.85380  0.30610  0.21280  1.0000
  H   H74       1.0  0.14620  0.30610  0.78720  1.0000
  H   H75       1.0  0.35380  0.80610  0.21280  1.0000
  H   H76       1.0  0.64620  0.80610  0.78720  1.0000
  O   O69       1.0  0.94214  0.64190  0.31594  1.0000
  O   O70       1.0  0.05786  0.64190  0.68406  1.0000
  O   O71       1.0  0.44214  0.14190  0.31594  1.0000
  O   O72       1.0  0.55786  0.14190  0.68406  1.0000
  H   H77       1.0  0.95560  0.69040  0.28700  1.0000
  H   H78       1.0  0.04440  0.69040  0.71300  1.0000
  H   H79       1.0  0.45560  0.19040  0.28700  1.0000
  H   H80       1.0  0.54440  0.19040  0.71300  1.0000
  H   H81       1.0  0.96800  0.60710  0.35650  1.0000
  H   H82       1.0  0.03200  0.60710  0.64350  1.0000
  H   H83       1.0  0.46800  0.10710  0.35650  1.0000
  H   H84       1.0  0.53200  0.10710  0.64350  1.0000
  O   O73       1.0  0.96420  0.40670  0.27128  1.0000
  O   O74       1.0  0.03580  0.40670  0.72872  1.0000
  O   O75       1.0  0.46420  0.90670  0.27128  1.0000
  O   O76       1.0  0.53580  0.90670  0.72872  1.0000
  H   H85       1.0  0.96620  0.38110  0.31410  1.0000
  H   H86       1.0  0.03380  0.38110  0.68590  1.0000
  H   H87       1.0  0.46620  0.88110  0.31410  1.0000
  H   H88       1.0  0.53380  0.88110  0.68590  1.0000
  H   H89       1.0  0.95370  0.34610  0.24490  1.0000
  H   H90       1.0  0.04630  0.34610  0.75510  1.0000
  H   H91       1.0  0.45370  0.84610  0.24490  1.0000
  H   H92       1.0  0.54630  0.84610  0.75510  1.0000
  O   O77       1.0  0.88932  0.43510  0.34604  1.0000
  O   O78       1.0  0.11068  0.43510  0.65396  1.0000
  O   O79       1.0  0.38932  0.93510  0.34604  1.0000
  O   O80       1.0  0.61068  0.93510  0.65396  1.0000
  H   H93       1.0  0.85900  0.39440  0.33310  1.0000
  H   H94       1.0  0.14100  0.39440  0.66690  1.0000
  H   H95       1.0  0.35900  0.89440  0.33310  1.0000
  H   H96       1.0  0.64100  0.89440  0.66690  1.0000
  H   H97       1.0  0.88980  0.49810  0.37940  1.0000
  H   H98       1.0  0.11020  0.49810  0.62060  1.0000
  H   H99       1.0  0.38980  0.99810  0.37940  1.0000
  H   H100      1.0  0.61020  0.99810  0.62060  1.0000
