data_image0
_chemical_formula_structural       Pb2O12C24H10C4H4C2H2C2O4
_chemical_formula_sum              "Pb2 O16 C32 H16"
_cell_length_a       10.848
_cell_length_b       14.117
_cell_length_c       14.758
_cell_angle_alpha    100.95
_cell_angle_beta     101.97
_cell_angle_gamma    90.31

_space_group_name_H-M_alt    "P 1"
_space_group_IT_number       1

loop_
  _space_group_symop_operation_xyz
  'x, y, z'

loop_
  _atom_site_type_symbol
  _atom_site_label
  _atom_site_symmetry_multiplicity
  _atom_site_fract_x
  _atom_site_fract_y
  _atom_site_fract_z
  _atom_site_occupancy
  Pb  Pb1       1.0  0.54169  0.95501  0.11018  1.0000
  Pb  Pb2       1.0  0.45831  0.04499  0.88982  1.0000
  O   O1        1.0  0.48590  0.01400  0.25430  1.0000
  O   O2        1.0  0.51410  0.98600  0.74570  1.0000
  O   O3        1.0  0.60360  0.89050  0.28330  1.0000
  O   O4        1.0  0.39640  0.10950  0.71670  1.0000
  O   O5        1.0  0.34530  0.01660  0.05110  1.0000
  O   O6        1.0  0.65470  0.98340  0.94890  1.0000
  O   O7        1.0  0.28870  0.87610  0.08040  1.0000
  O   O8        1.0  0.71130  0.12390  0.91960  1.0000
  O   O9        1.0  0.56010  0.12790  0.10560  1.0000
  O   O10       1.0  0.43990  0.87210  0.89440  1.0000
  O   O11       1.0  0.72560  0.08130  0.19750  1.0000
  O   O12       1.0  0.27440  0.91870  0.80250  1.0000
  C   C1        1.0  0.54010  0.96050  0.30760  1.0000
  C   C2        1.0  0.45990  0.03950  0.69240  1.0000
  C   C3        1.0  0.26220  0.95360  0.05430  1.0000
  C   C4        1.0  0.73780  0.04640  0.94570  1.0000
  C   C5        1.0  0.66360  0.14640  0.16450  1.0000
  C   C6        1.0  0.33640  0.85360  0.83550  1.0000
  C   C7        1.0  0.52000  0.98110  0.40870  1.0000
  C   C8        1.0  0.48000  0.01890  0.59130  1.0000
  C   C9        1.0  0.12690  0.97680  0.02580  1.0000
  C   C10       1.0  0.87310  0.02320  0.97420  1.0000
  C   C11       1.0  0.71060  0.24960  0.19930  1.0000
  C   C12       1.0  0.28940  0.75040  0.80070  1.0000
  C   C13       1.0  0.53290  0.90730  0.46080  1.0000
  C   C14       1.0  0.46710  0.09270  0.53920  1.0000
  C   C15       1.0  0.48770  0.07240  0.44840  1.0000
  C   C16       1.0  0.51230  0.92760  0.55160  1.0000
  C   C17       1.0  0.09510  0.06360  0.99520  1.0000
  C   C18       1.0  0.90490  0.93640  0.00480  1.0000
  C   C19       1.0  0.02940  0.91520  0.02990  1.0000
  C   C20       1.0  0.97060  0.08480  0.97010  1.0000
  C   C21       1.0  0.79150  0.27650  0.28760  1.0000
  C   C22       1.0  0.20850  0.72350  0.71240  1.0000
  C   C23       1.0  0.66520  0.32070  0.14900  1.0000
  C   C24       1.0  0.33480  0.67930  0.85100  1.0000
  H   H1        1.0  0.55480  0.84610  0.43490  1.0000
  H   H2        1.0  0.44520  0.15390  0.56510  1.0000
  H   H3        1.0  0.47990  0.12090  0.41310  1.0000
  H   H4        1.0  0.52010  0.87910  0.58690  1.0000
  H   H5        1.0  0.15840  0.10670  0.99200  1.0000
  H   H6        1.0  0.84160  0.89330  0.00800  1.0000
  H   H7        1.0  0.04870  0.85760  0.05030  1.0000
  H   H8        1.0  0.95130  0.14240  0.94970  1.0000
  H   H9        1.0  0.82390  0.22940  0.32110  1.0000
  H   H10       1.0  0.17610  0.77060  0.67890  1.0000
  C   C25       1.0  0.82400  0.37350  0.32590  1.0000
  C   C26       1.0  0.17600  0.62650  0.67410  1.0000
  C   C27       1.0  0.69890  0.41610  0.18730  1.0000
  C   C28       1.0  0.30110  0.58390  0.81270  1.0000
  H   H11       1.0  0.61210  0.30360  0.08970  1.0000
  H   H12       1.0  0.38790  0.69640  0.91030  1.0000
  H   H13       1.0  0.87710  0.39100  0.38520  1.0000
  H   H14       1.0  0.12290  0.60900  0.61480  1.0000
  C   C29       1.0  0.77790  0.44430  0.27610  1.0000
  C   C30       1.0  0.22210  0.55570  0.72390  1.0000
  H   H15       1.0  0.66840  0.46300  0.15300  1.0000
  H   H16       1.0  0.33160  0.53700  0.84700  1.0000
  C   C31       1.0  0.80660  0.54960  0.31920  1.0000
  C   C32       1.0  0.19340  0.45040  0.68080  1.0000
  O   O13       1.0  0.75180  0.61250  0.27800  1.0000
  O   O14       1.0  0.24820  0.38750  0.72200  1.0000
  O   O15       1.0  0.88410  0.57080  0.40020  1.0000
  O   O16       1.0  0.11590  0.42920  0.59980  1.0000
