data_image0
_chemical_formula_structural       Co4N16O40C4H4C4H4C4H4C4H4C20H4C4H4C4H4C4H4C8H4C8H4C8H4C12H24
_chemical_formula_sum              "Co4 N16 O40 C84 H68"
_cell_length_a       6.8766
_cell_length_b       20.0531
_cell_length_c       20.8273
_cell_angle_alpha    90
_cell_angle_beta     95.478
_cell_angle_gamma    90

_space_group_name_H-M_alt    "P 1"
_space_group_IT_number       1

loop_
  _space_group_symop_operation_xyz
  'x, y, z'

loop_
  _atom_site_type_symbol
  _atom_site_label
  _atom_site_symmetry_multiplicity
  _atom_site_fract_x
  _atom_site_fract_y
  _atom_site_fract_z
  _atom_site_occupancy
  Co  Co1       1.0  0.37180  0.31244  0.43659  1.0000
  Co  Co2       1.0  0.62820  0.81244  0.06341  1.0000
  Co  Co3       1.0  0.62820  0.68756  0.56341  1.0000
  Co  Co4       1.0  0.37180  0.18756  0.93659  1.0000
  N   N1        1.0  0.22490  0.40743  0.43168  1.0000
  N   N2        1.0  0.77510  0.90743  0.06832  1.0000
  N   N3        1.0  0.77510  0.59257  0.56832  1.0000
  N   N4        1.0  0.22490  0.09257  0.93168  1.0000
  N   N5        1.0  0.70620  0.77560  0.15999  1.0000
  N   N6        1.0  0.29380  0.27560  0.34001  1.0000
  N   N7        1.0  0.29380  0.22440  0.84001  1.0000
  N   N8        1.0  0.70620  0.72440  0.65999  1.0000
  N   N9        1.0  0.00260  0.65535  0.43514  1.0000
  N   N10       1.0  0.99740  0.15535  0.06486  1.0000
  N   N11       1.0  0.99740  0.34465  0.56486  1.0000
  N   N12       1.0  0.00260  0.84465  0.93514  1.0000
  N   N13       1.0  0.92890  0.70794  0.39542  1.0000
  N   N14       1.0  0.07110  0.20794  0.10458  1.0000
  N   N15       1.0  0.07110  0.29206  0.60458  1.0000
  N   N16       1.0  0.92890  0.79206  0.89542  1.0000
  O   O1        1.0  0.61310  0.36083  0.40188  1.0000
  O   O2        1.0  0.38690  0.86083  0.09812  1.0000
  O   O3        1.0  0.38690  0.63917  0.59812  1.0000
  O   O4        1.0  0.61310  0.13917  0.90188  1.0000
  O   O5        1.0  0.52090  0.22041  0.45014  1.0000
  O   O6        1.0  0.47910  0.72041  0.04986  1.0000
  O   O7        1.0  0.47910  0.77959  0.54986  1.0000
  O   O8        1.0  0.52090  0.27959  0.95014  1.0000
  O   O9        1.0  0.09730  0.27071  0.45619  1.0000
  O   O10       1.0  0.90270  0.77071  0.04381  1.0000
  O   O11       1.0  0.90270  0.72929  0.54381  1.0000
  O   O12       1.0  0.09730  0.22929  0.95619  1.0000
  O   O13       1.0  0.45760  0.33463  0.53407  1.0000
  O   O14       1.0  0.54240  0.83463  0.96593  1.0000
  O   O15       1.0  0.54240  0.66537  0.46593  1.0000
  O   O16       1.0  0.45760  0.16537  0.03407  1.0000
  O   O17       1.0  0.58340  0.23844  0.57174  1.0000
  O   O18       1.0  0.41660  0.73844  0.92826  1.0000
  O   O19       1.0  0.41660  0.76156  0.42826  1.0000
  O   O20       1.0  0.58340  0.26156  0.07174  1.0000
  O   O21       1.0  0.46570  0.52833  0.66942  1.0000
  O   O22       1.0  0.53430  0.02833  0.83058  1.0000
  O   O23       1.0  0.53430  0.47167  0.33058  1.0000
  O   O24       1.0  0.46570  0.97167  0.16942  1.0000
  O   O25       1.0  0.56350  0.52644  0.77472  1.0000
  O   O26       1.0  0.43650  0.02644  0.72528  1.0000
  O   O27       1.0  0.43650  0.47356  0.22528  1.0000
  O   O28       1.0  0.56350  0.97356  0.27472  1.0000
  O   O29       1.0  0.80410  0.30394  0.86977  1.0000
  O   O30       1.0  0.19590  0.80394  0.63023  1.0000
  O   O31       1.0  0.19590  0.69606  0.13023  1.0000
  O   O32       1.0  0.80410  0.19606  0.36977  1.0000
  O   O33       1.0  0.77290  0.21372  0.80792  1.0000
  O   O34       1.0  0.22710  0.71372  0.69208  1.0000
  O   O35       1.0  0.22710  0.78628  0.19208  1.0000
  O   O36       1.0  0.77290  0.28628  0.30792  1.0000
  O   O37       1.0  0.94100  0.61717  0.33606  1.0000
  O   O38       1.0  0.05900  0.11717  0.16394  1.0000
  O   O39       1.0  0.05900  0.38283  0.66394  1.0000
  O   O40       1.0  0.94100  0.88283  0.83606  1.0000
  C   C1        1.0  0.01110  0.48384  0.37103  1.0000
  C   C2        1.0  0.98890  0.98384  0.12897  1.0000
  C   C3        1.0  0.98890  0.51616  0.62897  1.0000
  C   C4        1.0  0.01110  0.01616  0.87103  1.0000
  H   H1        1.0  0.91710  0.49160  0.33540  1.0000
  H   H2        1.0  0.08290  0.99160  0.16460  1.0000
  H   H3        1.0  0.08290  0.50840  0.66460  1.0000
  H   H4        1.0  0.91710  0.00840  0.83540  1.0000
  C   C5        1.0  0.08750  0.42074  0.38309  1.0000
  C   C6        1.0  0.91250  0.92074  0.11691  1.0000
  C   C7        1.0  0.91250  0.57926  0.61691  1.0000
  C   C8        1.0  0.08750  0.07926  0.88309  1.0000
  H   H5        1.0  0.04060  0.38520  0.35570  1.0000
  H   H6        1.0  0.95940  0.88520  0.14430  1.0000
  H   H7        1.0  0.95940  0.61480  0.64430  1.0000
  H   H8        1.0  0.04060  0.11480  0.85570  1.0000
  C   C9        1.0  0.28040  0.45786  0.47197  1.0000
  C   C10       1.0  0.71960  0.95786  0.02803  1.0000
  C   C11       1.0  0.71960  0.54214  0.52803  1.0000
  C   C12       1.0  0.28040  0.04214  0.97197  1.0000
  H   H9        1.0  0.37380  0.44870  0.50750  1.0000
  H   H10       1.0  0.62620  0.94870  0.99250  1.0000
  H   H11       1.0  0.62620  0.55130  0.49250  1.0000
  H   H12       1.0  0.37380  0.05130  0.00750  1.0000
  C   C13       1.0  0.20940  0.52197  0.46467  1.0000
  C   C14       1.0  0.79060  0.02197  0.03533  1.0000
  C   C15       1.0  0.79060  0.47803  0.53533  1.0000
  C   C16       1.0  0.20940  0.97803  0.96467  1.0000
  H   H13       1.0  0.25130  0.55600  0.49460  1.0000
  H   H14       1.0  0.74870  0.05600  0.00540  1.0000
  H   H15       1.0  0.74870  0.44400  0.50540  1.0000
  H   H16       1.0  0.25130  0.94400  0.99460  1.0000
  C   C17       1.0  0.07440  0.53547  0.41204  1.0000
  C   C18       1.0  0.92560  0.03547  0.08796  1.0000
  C   C19       1.0  0.92560  0.46453  0.58796  1.0000
  C   C20       1.0  0.07440  0.96453  0.91204  1.0000
  C   C21       1.0  0.00630  0.60370  0.39801  1.0000
  C   C22       1.0  0.99370  0.10370  0.10199  1.0000
  C   C23       1.0  0.99370  0.39630  0.60199  1.0000
  C   C24       1.0  0.00630  0.89630  0.89801  1.0000
  C   C25       1.0  0.89680  0.68330  0.33828  1.0000
  C   C26       1.0  0.10320  0.18330  0.16172  1.0000
  C   C27       1.0  0.10320  0.31670  0.66172  1.0000
  C   C28       1.0  0.89680  0.81670  0.83828  1.0000
  C   C29       1.0  0.82700  0.71540  0.27775  1.0000
  C   C30       1.0  0.17300  0.21540  0.22225  1.0000
  C   C31       1.0  0.17300  0.28460  0.72225  1.0000
  C   C32       1.0  0.82700  0.78460  0.77775  1.0000
  C   C33       1.0  0.77100  0.78212  0.27516  1.0000
  C   C34       1.0  0.22900  0.28212  0.22484  1.0000
  C   C35       1.0  0.22900  0.21788  0.72484  1.0000
  C   C36       1.0  0.77100  0.71788  0.77516  1.0000
  H   H17       1.0  0.77410  0.80810  0.31340  1.0000
  H   H18       1.0  0.22590  0.30810  0.18660  1.0000
  H   H19       1.0  0.22590  0.19190  0.68660  1.0000
  H   H20       1.0  0.77410  0.69190  0.81340  1.0000
  C   C37       1.0  0.71100  0.80970  0.21602  1.0000
  C   C38       1.0  0.28900  0.30970  0.28398  1.0000
  C   C39       1.0  0.28900  0.19030  0.78398  1.0000
  C   C40       1.0  0.71100  0.69030  0.71602  1.0000
  H   H21       1.0  0.67100  0.85510  0.21460  1.0000
  H   H22       1.0  0.32900  0.35510  0.28540  1.0000
  H   H23       1.0  0.32900  0.14490  0.78540  1.0000
  H   H24       1.0  0.67100  0.64490  0.71460  1.0000
  C   C41       1.0  0.75760  0.71108  0.16388  1.0000
  C   C42       1.0  0.24240  0.21108  0.33612  1.0000
  C   C43       1.0  0.24240  0.28892  0.83612  1.0000
  C   C44       1.0  0.75760  0.78892  0.66388  1.0000
  H   H25       1.0  0.75300  0.68610  0.12500  1.0000
  H   H26       1.0  0.24700  0.18610  0.37500  1.0000
  H   H27       1.0  0.24700  0.31390  0.87500  1.0000
  H   H28       1.0  0.75300  0.81390  0.62500  1.0000
  C   C45       1.0  0.81680  0.67887  0.22097  1.0000
  C   C46       1.0  0.18320  0.17887  0.27903  1.0000
  C   C47       1.0  0.18320  0.32113  0.77903  1.0000
  C   C48       1.0  0.81680  0.82113  0.72097  1.0000
  H   H29       1.0  0.84970  0.63290  0.22140  1.0000
  H   H30       1.0  0.15030  0.13290  0.27860  1.0000
  H   H31       1.0  0.15030  0.36710  0.77860  1.0000
  H   H32       1.0  0.84970  0.86710  0.72140  1.0000
  C   C49       1.0  0.57880  0.32887  0.64472  1.0000
  C   C50       1.0  0.42120  0.82887  0.85528  1.0000
  C   C51       1.0  0.42120  0.67113  0.35528  1.0000
  C   C52       1.0  0.57880  0.17113  0.14472  1.0000
  C   C53       1.0  0.53860  0.39545  0.65393  1.0000
  C   C54       1.0  0.46140  0.89545  0.84607  1.0000
  C   C55       1.0  0.46140  0.60455  0.34607  1.0000
  C   C56       1.0  0.53860  0.10455  0.15393  1.0000
  H   H33       1.0  0.48630  0.42150  0.61830  1.0000
  H   H34       1.0  0.51370  0.92150  0.88170  1.0000
  H   H35       1.0  0.51370  0.57850  0.38170  1.0000
  H   H36       1.0  0.48630  0.07850  0.11830  1.0000
  C   C57       1.0  0.57340  0.42534  0.71456  1.0000
  C   C58       1.0  0.42660  0.92534  0.78544  1.0000
  C   C59       1.0  0.42660  0.57466  0.28544  1.0000
  C   C60       1.0  0.57340  0.07466  0.21456  1.0000
  C   C61       1.0  0.64520  0.38622  0.76649  1.0000
  C   C62       1.0  0.35480  0.88622  0.73351  1.0000
  C   C63       1.0  0.35480  0.61378  0.23351  1.0000
  C   C64       1.0  0.64520  0.11378  0.26649  1.0000
  H   H37       1.0  0.66670  0.40570  0.80810  1.0000
  H   H38       1.0  0.33330  0.90570  0.69190  1.0000
  H   H39       1.0  0.33330  0.59430  0.19190  1.0000
  H   H40       1.0  0.66670  0.09430  0.30810  1.0000
  C   C65       1.0  0.68610  0.31871  0.75849  1.0000
  C   C66       1.0  0.31390  0.81871  0.74151  1.0000
  C   C67       1.0  0.31390  0.68129  0.24151  1.0000
  C   C68       1.0  0.68610  0.18129  0.25849  1.0000
  C   C69       1.0  0.65340  0.29033  0.69740  1.0000
  C   C70       1.0  0.34660  0.79033  0.80260  1.0000
  C   C71       1.0  0.34660  0.70967  0.30260  1.0000
  C   C72       1.0  0.65340  0.20967  0.19740  1.0000
  H   H41       1.0  0.68200  0.24450  0.69150  1.0000
  H   H42       1.0  0.31800  0.74450  0.80850  1.0000
  H   H43       1.0  0.31800  0.75550  0.30850  1.0000
  H   H44       1.0  0.68200  0.25550  0.19150  1.0000
  C   C73       1.0  0.53900  0.29832  0.57868  1.0000
  C   C74       1.0  0.46100  0.79832  0.92132  1.0000
  C   C75       1.0  0.46100  0.70168  0.42132  1.0000
  C   C76       1.0  0.53900  0.20168  0.07868  1.0000
  C   C77       1.0  0.53050  0.49899  0.71984  1.0000
  C   C78       1.0  0.46950  0.99899  0.78016  1.0000
  C   C79       1.0  0.46950  0.50101  0.28016  1.0000
  C   C80       1.0  0.53050  0.00101  0.21984  1.0000
  C   C81       1.0  0.75970  0.27559  0.81567  1.0000
  C   C82       1.0  0.24030  0.77559  0.68433  1.0000
  C   C83       1.0  0.24030  0.72441  0.18433  1.0000
  C   C84       1.0  0.75970  0.22441  0.31567  1.0000
  H   H45       1.0  0.57280  0.21950  0.48890  1.0000
  H   H46       1.0  0.42720  0.71950  0.01110  1.0000
  H   H47       1.0  0.42720  0.78050  0.51110  1.0000
  H   H48       1.0  0.57280  0.28050  0.98890  1.0000
  H   H49       1.0  0.00410  0.25560  0.43060  1.0000
  H   H50       1.0  0.99590  0.75560  0.06940  1.0000
  H   H51       1.0  0.99590  0.74440  0.56940  1.0000
  H   H52       1.0  0.00410  0.24440  0.93060  1.0000
  H   H53       1.0  0.58530  0.39600  0.38010  1.0000
  H   H54       1.0  0.41470  0.89600  0.11990  1.0000
  H   H55       1.0  0.41470  0.60400  0.61990  1.0000
  H   H56       1.0  0.58530  0.10400  0.88010  1.0000
  H   H57       1.0  0.67450  0.34080  0.37400  1.0000
  H   H58       1.0  0.32550  0.84080  0.12600  1.0000
  H   H59       1.0  0.32550  0.65920  0.62600  1.0000
  H   H60       1.0  0.67450  0.15920  0.87400  1.0000
  H   H61       1.0  0.62370  0.21430  0.43120  1.0000
  H   H62       1.0  0.37630  0.71430  0.06880  1.0000
  H   H63       1.0  0.37630  0.78570  0.56880  1.0000
  H   H64       1.0  0.62370  0.28570  0.93120  1.0000
  H   H65       1.0  0.03360  0.29510  0.48010  1.0000
  H   H66       1.0  0.96640  0.79510  0.01990  1.0000
  H   H67       1.0  0.96640  0.70490  0.51990  1.0000
  H   H68       1.0  0.03360  0.20490  0.98010  1.0000
