data_image0
_chemical_formula_structural       S32K16C16H16O16C16H16C48O32C16O32H32C48O16H32O16H32
_chemical_formula_sum              "S32 K16 C144 H128 O112"
_cell_length_a       28.524
_cell_length_b       41.512
_cell_length_c       6.8873
_cell_angle_alpha    90
_cell_angle_beta     90
_cell_angle_gamma    90

_space_group_name_H-M_alt    "P 1"
_space_group_IT_number       1

loop_
  _space_group_symop_operation_xyz
  'x, y, z'

loop_
  _atom_site_type_symbol
  _atom_site_label
  _atom_site_symmetry_multiplicity
  _atom_site_fract_x
  _atom_site_fract_y
  _atom_site_fract_z
  _atom_site_occupancy
  S   S1        1.0  0.55287  0.46192  0.60192  1.0000
  S   S2        1.0  0.44713  0.53808  0.60192  1.0000
  S   S3        1.0  0.80287  0.78808  0.85192  1.0000
  S   S4        1.0  0.69713  0.71192  0.85192  1.0000
  S   S5        1.0  0.55287  0.96192  0.10192  1.0000
  S   S6        1.0  0.44713  0.03808  0.10192  1.0000
  S   S7        1.0  0.80287  0.28808  0.35192  1.0000
  S   S8        1.0  0.69713  0.21192  0.35192  1.0000
  S   S9        1.0  0.05287  0.46192  0.10192  1.0000
  S   S10       1.0  0.94713  0.53808  0.10192  1.0000
  S   S11       1.0  0.30287  0.78808  0.35192  1.0000
  S   S12       1.0  0.19713  0.71192  0.35192  1.0000
  S   S13       1.0  0.05287  0.96192  0.60192  1.0000
  S   S14       1.0  0.94713  0.03808  0.60192  1.0000
  S   S15       1.0  0.30287  0.28808  0.85192  1.0000
  S   S16       1.0  0.19713  0.21192  0.85192  1.0000
  S   S17       1.0  0.44869  0.46067  0.61383  1.0000
  S   S18       1.0  0.55131  0.53933  0.61383  1.0000
  S   S19       1.0  0.69869  0.78933  0.86383  1.0000
  S   S20       1.0  0.80131  0.71067  0.86383  1.0000
  S   S21       1.0  0.44869  0.96067  0.11383  1.0000
  S   S22       1.0  0.55131  0.03933  0.11383  1.0000
  S   S23       1.0  0.69869  0.28933  0.36383  1.0000
  S   S24       1.0  0.80131  0.21067  0.36383  1.0000
  S   S25       1.0  0.94869  0.46067  0.11383  1.0000
  S   S26       1.0  0.05131  0.53933  0.11383  1.0000
  S   S27       1.0  0.19869  0.78933  0.36383  1.0000
  S   S28       1.0  0.30131  0.71067  0.36383  1.0000
  S   S29       1.0  0.94869  0.96067  0.61383  1.0000
  S   S30       1.0  0.05131  0.03933  0.61383  1.0000
  S   S31       1.0  0.19869  0.28933  0.86383  1.0000
  S   S32       1.0  0.30131  0.21067  0.86383  1.0000
  K   K1        1.0  0.51496  0.26894  0.87705  1.0000
  K   K2        1.0  0.48504  0.73106  0.87705  1.0000
  K   K3        1.0  0.76496  0.98106  0.12705  1.0000
  K   K4        1.0  0.73504  0.51894  0.12705  1.0000
  K   K5        1.0  0.51496  0.76894  0.37705  1.0000
  K   K6        1.0  0.48504  0.23106  0.37705  1.0000
  K   K7        1.0  0.76496  0.48106  0.62705  1.0000
  K   K8        1.0  0.73504  0.01894  0.62705  1.0000
  K   K9        1.0  0.01496  0.26894  0.37705  1.0000
  K   K10       1.0  0.98504  0.73106  0.37705  1.0000
  K   K11       1.0  0.26496  0.98106  0.62705  1.0000
  K   K12       1.0  0.23504  0.51894  0.62705  1.0000
  K   K13       1.0  0.01496  0.76894  0.87705  1.0000
  K   K14       1.0  0.98504  0.23106  0.87705  1.0000
  K   K15       1.0  0.26496  0.48106  0.12705  1.0000
  K   K16       1.0  0.23504  0.01894  0.12705  1.0000
  C   C1        1.0  0.55172  0.39548  0.63080  1.0000
  C   C2        1.0  0.44828  0.60452  0.63080  1.0000
  C   C3        1.0  0.80172  0.85452  0.88080  1.0000
  C   C4        1.0  0.69828  0.64548  0.88080  1.0000
  C   C5        1.0  0.55172  0.89548  0.13080  1.0000
  C   C6        1.0  0.44828  0.10452  0.13080  1.0000
  C   C7        1.0  0.80172  0.35452  0.38080  1.0000
  C   C8        1.0  0.69828  0.14548  0.38080  1.0000
  C   C9        1.0  0.05172  0.39548  0.13080  1.0000
  C   C10       1.0  0.94828  0.60452  0.13080  1.0000
  C   C11       1.0  0.30172  0.85452  0.38080  1.0000
  C   C12       1.0  0.19828  0.64548  0.38080  1.0000
  C   C13       1.0  0.05172  0.89548  0.63080  1.0000
  C   C14       1.0  0.94828  0.10452  0.63080  1.0000
  C   C15       1.0  0.30172  0.35452  0.88080  1.0000
  C   C16       1.0  0.19828  0.14548  0.88080  1.0000
  H   H1        1.0  0.58430  0.39590  0.62240  1.0000
  H   H2        1.0  0.41570  0.60410  0.62240  1.0000
  H   H3        1.0  0.83430  0.85410  0.87240  1.0000
  H   H4        1.0  0.66570  0.64590  0.87240  1.0000
  H   H5        1.0  0.58430  0.89590  0.12240  1.0000
  H   H6        1.0  0.41570  0.10410  0.12240  1.0000
  H   H7        1.0  0.83430  0.35410  0.37240  1.0000
  H   H8        1.0  0.66570  0.14590  0.37240  1.0000
  H   H9        1.0  0.08430  0.39590  0.12240  1.0000
  H   H10       1.0  0.91570  0.60410  0.12240  1.0000
  H   H11       1.0  0.33430  0.85410  0.37240  1.0000
  H   H12       1.0  0.16570  0.64590  0.37240  1.0000
  H   H13       1.0  0.08430  0.89590  0.62240  1.0000
  H   H14       1.0  0.91570  0.10410  0.62240  1.0000
  H   H15       1.0  0.33430  0.35410  0.87240  1.0000
  H   H16       1.0  0.16570  0.14590  0.87240  1.0000
  O   O1        1.0  0.47064  0.30919  0.63250  1.0000
  O   O2        1.0  0.52936  0.69081  0.63250  1.0000
  O   O3        1.0  0.72064  0.94081  0.88250  1.0000
  O   O4        1.0  0.77936  0.55919  0.88250  1.0000
  O   O5        1.0  0.47064  0.80919  0.13250  1.0000
  O   O6        1.0  0.52936  0.19081  0.13250  1.0000
  O   O7        1.0  0.72064  0.44081  0.38250  1.0000
  O   O8        1.0  0.77936  0.05919  0.38250  1.0000
  O   O9        1.0  0.97064  0.30919  0.13250  1.0000
  O   O10       1.0  0.02936  0.69081  0.13250  1.0000
  O   O11       1.0  0.22064  0.94081  0.38250  1.0000
  O   O12       1.0  0.27936  0.55919  0.38250  1.0000
  O   O13       1.0  0.97064  0.80919  0.63250  1.0000
  O   O14       1.0  0.02936  0.19081  0.63250  1.0000
  O   O15       1.0  0.22064  0.44081  0.88250  1.0000
  O   O16       1.0  0.27936  0.05919  0.88250  1.0000
  C   C17       1.0  0.45407  0.39429  0.65430  1.0000
  C   C18       1.0  0.54593  0.60571  0.65430  1.0000
  C   C19       1.0  0.70407  0.85571  0.90430  1.0000
  C   C20       1.0  0.79593  0.64429  0.90430  1.0000
  C   C21       1.0  0.45407  0.89429  0.15430  1.0000
  C   C22       1.0  0.54593  0.10571  0.15430  1.0000
  C   C23       1.0  0.70407  0.35571  0.40430  1.0000
  C   C24       1.0  0.79593  0.14429  0.40430  1.0000
  C   C25       1.0  0.95407  0.39429  0.15430  1.0000
  C   C26       1.0  0.04593  0.60571  0.15430  1.0000
  C   C27       1.0  0.20407  0.85571  0.40430  1.0000
  C   C28       1.0  0.29593  0.64429  0.40430  1.0000
  C   C29       1.0  0.95407  0.89429  0.65430  1.0000
  C   C30       1.0  0.04593  0.10571  0.65430  1.0000
  C   C31       1.0  0.20407  0.35571  0.90430  1.0000
  C   C32       1.0  0.29593  0.14429  0.90430  1.0000
  H   H17       1.0  0.42150  0.39400  0.66080  1.0000
  H   H18       1.0  0.57850  0.60600  0.66080  1.0000
  H   H19       1.0  0.67150  0.85600  0.91080  1.0000
  H   H20       1.0  0.82850  0.64400  0.91080  1.0000
  H   H21       1.0  0.42150  0.89400  0.16080  1.0000
  H   H22       1.0  0.57850  0.10600  0.16080  1.0000
  H   H23       1.0  0.67150  0.35600  0.41080  1.0000
  H   H24       1.0  0.82850  0.14400  0.41080  1.0000
  H   H25       1.0  0.92150  0.39400  0.16080  1.0000
  H   H26       1.0  0.07850  0.60600  0.16080  1.0000
  H   H27       1.0  0.17150  0.85600  0.41080  1.0000
  H   H28       1.0  0.32850  0.64400  0.41080  1.0000
  H   H29       1.0  0.92150  0.89400  0.66080  1.0000
  H   H30       1.0  0.07850  0.10600  0.66080  1.0000
  H   H31       1.0  0.17150  0.35600  0.91080  1.0000
  H   H32       1.0  0.32850  0.14400  0.91080  1.0000
  C   C33       1.0  0.47929  0.36564  0.66530  1.0000
  C   C34       1.0  0.52071  0.63436  0.66530  1.0000
  C   C35       1.0  0.72929  0.88436  0.91530  1.0000
  C   C36       1.0  0.77071  0.61564  0.91530  1.0000
  C   C37       1.0  0.47929  0.86564  0.16530  1.0000
  C   C38       1.0  0.52071  0.13436  0.16530  1.0000
  C   C39       1.0  0.72929  0.38436  0.41530  1.0000
  C   C40       1.0  0.77071  0.11564  0.41530  1.0000
  C   C41       1.0  0.97929  0.36564  0.16530  1.0000
  C   C42       1.0  0.02071  0.63436  0.16530  1.0000
  C   C43       1.0  0.22929  0.88436  0.41530  1.0000
  C   C44       1.0  0.27071  0.61564  0.41530  1.0000
  C   C45       1.0  0.97929  0.86564  0.66530  1.0000
  C   C46       1.0  0.02071  0.13436  0.66530  1.0000
  C   C47       1.0  0.22929  0.38436  0.91530  1.0000
  C   C48       1.0  0.27071  0.11564  0.91530  1.0000
  C   C49       1.0  0.55813  0.33592  0.66200  1.0000
  C   C50       1.0  0.44187  0.66408  0.66200  1.0000
  C   C51       1.0  0.80813  0.91408  0.91200  1.0000
  C   C52       1.0  0.69187  0.58592  0.91200  1.0000
  C   C53       1.0  0.55813  0.83592  0.16200  1.0000
  C   C54       1.0  0.44187  0.16408  0.16200  1.0000
  C   C55       1.0  0.80813  0.41408  0.41200  1.0000
  C   C56       1.0  0.69187  0.08592  0.41200  1.0000
  C   C57       1.0  0.05813  0.33592  0.16200  1.0000
  C   C58       1.0  0.94187  0.66408  0.16200  1.0000
  C   C59       1.0  0.30813  0.91408  0.41200  1.0000
  C   C60       1.0  0.19187  0.58592  0.41200  1.0000
  C   C61       1.0  0.05813  0.83592  0.66200  1.0000
  C   C62       1.0  0.94187  0.16408  0.66200  1.0000
  C   C63       1.0  0.30813  0.41408  0.91200  1.0000
  C   C64       1.0  0.19187  0.08592  0.91200  1.0000
  C   C65       1.0  0.52828  0.36602  0.65120  1.0000
  C   C66       1.0  0.47172  0.63398  0.65120  1.0000
  C   C67       1.0  0.77828  0.88398  0.90120  1.0000
  C   C68       1.0  0.72172  0.61602  0.90120  1.0000
  C   C69       1.0  0.52828  0.86602  0.15120  1.0000
  C   C70       1.0  0.47172  0.13398  0.15120  1.0000
  C   C71       1.0  0.77828  0.38398  0.40120  1.0000
  C   C72       1.0  0.72172  0.11602  0.40120  1.0000
  C   C73       1.0  0.02828  0.36602  0.15120  1.0000
  C   C74       1.0  0.97172  0.63398  0.15120  1.0000
  C   C75       1.0  0.27828  0.88398  0.40120  1.0000
  C   C76       1.0  0.22172  0.61602  0.40120  1.0000
  C   C77       1.0  0.02828  0.86602  0.65120  1.0000
  C   C78       1.0  0.97172  0.13398  0.65120  1.0000
  C   C79       1.0  0.27828  0.38398  0.90120  1.0000
  C   C80       1.0  0.22172  0.11602  0.90120  1.0000
  O   O17       1.0  0.56362  0.32344  0.82550  1.0000
  O   O18       1.0  0.43638  0.67656  0.82550  1.0000
  O   O19       1.0  0.81362  0.92656  0.07550  1.0000
  O   O20       1.0  0.68638  0.57344  0.07550  1.0000
  O   O21       1.0  0.56362  0.82344  0.32550  1.0000
  O   O22       1.0  0.43638  0.17656  0.32550  1.0000
  O   O23       1.0  0.81362  0.42656  0.57550  1.0000
  O   O24       1.0  0.68638  0.07344  0.57550  1.0000
  O   O25       1.0  0.06362  0.32344  0.32550  1.0000
  O   O26       1.0  0.93638  0.67656  0.32550  1.0000
  O   O27       1.0  0.31362  0.92656  0.57550  1.0000
  O   O28       1.0  0.18638  0.57344  0.57550  1.0000
  O   O29       1.0  0.06362  0.82344  0.82550  1.0000
  O   O30       1.0  0.93638  0.17656  0.82550  1.0000
  O   O31       1.0  0.31362  0.42656  0.07550  1.0000
  O   O32       1.0  0.18638  0.07344  0.07550  1.0000
  O   O33       1.0  0.57769  0.32700  0.50730  1.0000
  O   O34       1.0  0.42231  0.67300  0.50730  1.0000
  O   O35       1.0  0.82769  0.92300  0.75730  1.0000
  O   O36       1.0  0.67231  0.57700  0.75730  1.0000
  O   O37       1.0  0.57769  0.82700  0.00730  1.0000
  O   O38       1.0  0.42231  0.17300  0.00730  1.0000
  O   O39       1.0  0.82769  0.42300  0.25730  1.0000
  O   O40       1.0  0.67231  0.07700  0.25730  1.0000
  O   O41       1.0  0.07769  0.32700  0.00730  1.0000
  O   O42       1.0  0.92231  0.67300  0.00730  1.0000
  O   O43       1.0  0.32769  0.92300  0.25730  1.0000
  O   O44       1.0  0.17231  0.57700  0.25730  1.0000
  O   O45       1.0  0.07769  0.82700  0.50730  1.0000
  O   O46       1.0  0.92231  0.17300  0.50730  1.0000
  O   O47       1.0  0.32769  0.42300  0.75730  1.0000
  O   O48       1.0  0.17231  0.07700  0.75730  1.0000
  C   C81       1.0  0.45215  0.33442  0.68940  1.0000
  C   C82       1.0  0.54785  0.66558  0.68940  1.0000
  C   C83       1.0  0.70215  0.91558  0.93940  1.0000
  C   C84       1.0  0.79785  0.58442  0.93940  1.0000
  C   C85       1.0  0.45215  0.83442  0.18940  1.0000
  C   C86       1.0  0.54785  0.16558  0.18940  1.0000
  C   C87       1.0  0.70215  0.41558  0.43940  1.0000
  C   C88       1.0  0.79785  0.08442  0.43940  1.0000
  C   C89       1.0  0.95215  0.33442  0.18940  1.0000
  C   C90       1.0  0.04785  0.66558  0.18940  1.0000
  C   C91       1.0  0.20215  0.91558  0.43940  1.0000
  C   C92       1.0  0.29785  0.58442  0.43940  1.0000
  C   C93       1.0  0.95215  0.83442  0.68940  1.0000
  C   C94       1.0  0.04785  0.16558  0.68940  1.0000
  C   C95       1.0  0.20215  0.41558  0.93940  1.0000
  C   C96       1.0  0.29785  0.08442  0.93940  1.0000
  O   O49       1.0  0.41154  0.33673  0.76020  1.0000
  O   O50       1.0  0.58846  0.66327  0.76020  1.0000
  O   O51       1.0  0.66154  0.91327  0.01020  1.0000
  O   O52       1.0  0.83846  0.58673  0.01020  1.0000
  O   O53       1.0  0.41154  0.83673  0.26020  1.0000
  O   O54       1.0  0.58846  0.16327  0.26020  1.0000
  O   O55       1.0  0.66154  0.41327  0.51020  1.0000
  O   O56       1.0  0.83846  0.08673  0.51020  1.0000
  O   O57       1.0  0.91154  0.33673  0.26020  1.0000
  O   O58       1.0  0.08846  0.66327  0.26020  1.0000
  O   O59       1.0  0.16154  0.91327  0.51020  1.0000
  O   O60       1.0  0.33846  0.58673  0.51020  1.0000
  O   O61       1.0  0.91154  0.83673  0.76020  1.0000
  O   O62       1.0  0.08846  0.16327  0.76020  1.0000
  O   O63       1.0  0.16154  0.41327  0.01020  1.0000
  O   O64       1.0  0.33846  0.08673  0.01020  1.0000
  O   O65       1.0  0.42647  0.23983  0.98990  1.0000
  O   O66       1.0  0.57353  0.76017  0.98990  1.0000
  O   O67       1.0  0.67647  0.01017  0.23990  1.0000
  O   O68       1.0  0.82353  0.48983  0.23990  1.0000
  O   O69       1.0  0.42647  0.73983  0.48990  1.0000
  O   O70       1.0  0.57353  0.26017  0.48990  1.0000
  O   O71       1.0  0.67647  0.51017  0.73990  1.0000
  O   O72       1.0  0.82353  0.98983  0.73990  1.0000
  O   O73       1.0  0.92647  0.23983  0.48990  1.0000
  O   O74       1.0  0.07353  0.76017  0.48990  1.0000
  O   O75       1.0  0.17647  0.01017  0.73990  1.0000
  O   O76       1.0  0.32353  0.48983  0.73990  1.0000
  O   O77       1.0  0.92647  0.73983  0.98990  1.0000
  O   O78       1.0  0.07353  0.26017  0.98990  1.0000
  O   O79       1.0  0.17647  0.51017  0.23990  1.0000
  O   O80       1.0  0.32353  0.98983  0.23990  1.0000
  H   H33       1.0  0.41480  0.22080  0.98650  1.0000
  H   H34       1.0  0.58520  0.77920  0.98650  1.0000
  H   H35       1.0  0.66480  0.02920  0.23650  1.0000
  H   H36       1.0  0.83520  0.47080  0.23650  1.0000
  H   H37       1.0  0.41480  0.72080  0.48650  1.0000
  H   H38       1.0  0.58520  0.27920  0.48650  1.0000
  H   H39       1.0  0.66480  0.52920  0.73650  1.0000
  H   H40       1.0  0.83520  0.97080  0.73650  1.0000
  H   H41       1.0  0.91480  0.22080  0.48650  1.0000
  H   H42       1.0  0.08520  0.77920  0.48650  1.0000
  H   H43       1.0  0.16480  0.02920  0.73650  1.0000
  H   H44       1.0  0.33520  0.47080  0.73650  1.0000
  H   H45       1.0  0.91480  0.72080  0.98650  1.0000
  H   H46       1.0  0.08520  0.27920  0.98650  1.0000
  H   H47       1.0  0.16480  0.52920  0.23650  1.0000
  H   H48       1.0  0.33520  0.97080  0.23650  1.0000
  H   H49       1.0  0.41020  0.25590  0.02940  1.0000
  H   H50       1.0  0.58980  0.74410  0.02940  1.0000
  H   H51       1.0  0.66020  0.99410  0.27940  1.0000
  H   H52       1.0  0.83980  0.50590  0.27940  1.0000
  H   H53       1.0  0.41020  0.75590  0.52940  1.0000
  H   H54       1.0  0.58980  0.24410  0.52940  1.0000
  H   H55       1.0  0.66020  0.49410  0.77940  1.0000
  H   H56       1.0  0.83980  0.00590  0.77940  1.0000
  H   H57       1.0  0.91020  0.25590  0.52940  1.0000
  H   H58       1.0  0.08980  0.74410  0.52940  1.0000
  H   H59       1.0  0.16020  0.99410  0.77940  1.0000
  H   H60       1.0  0.33980  0.50590  0.77940  1.0000
  H   H61       1.0  0.91020  0.75590  0.02940  1.0000
  H   H62       1.0  0.08980  0.24410  0.02940  1.0000
  H   H63       1.0  0.16020  0.49410  0.27940  1.0000
  H   H64       1.0  0.33980  0.00590  0.27940  1.0000
  C   C97       1.0  0.50027  0.48378  0.60740  1.0000
  C   C98       1.0  0.49973  0.51622  0.60740  1.0000
  C   C99       1.0  0.75027  0.76622  0.85740  1.0000
  C   C100      1.0  0.74973  0.73378  0.85740  1.0000
  C   C101      1.0  0.50027  0.98378  0.10740  1.0000
  C   C102      1.0  0.49973  0.01622  0.10740  1.0000
  C   C103      1.0  0.75027  0.26622  0.35740  1.0000
  C   C104      1.0  0.74973  0.23378  0.35740  1.0000
  C   C105      1.0  0.00027  0.48378  0.10740  1.0000
  C   C106      1.0  0.99973  0.51622  0.10740  1.0000
  C   C107      1.0  0.25027  0.76622  0.35740  1.0000
  C   C108      1.0  0.24973  0.73378  0.35740  1.0000
  C   C109      1.0  0.00027  0.98378  0.60740  1.0000
  C   C110      1.0  0.99973  0.01622  0.60740  1.0000
  C   C111      1.0  0.25027  0.26622  0.85740  1.0000
  C   C112      1.0  0.24973  0.23378  0.85740  1.0000
  C   C113      1.0  0.47763  0.42340  0.63370  1.0000
  C   C114      1.0  0.52237  0.57660  0.63370  1.0000
  C   C115      1.0  0.72763  0.82660  0.88370  1.0000
  C   C116      1.0  0.77237  0.67340  0.88370  1.0000
  C   C117      1.0  0.47763  0.92340  0.13370  1.0000
  C   C118      1.0  0.52237  0.07660  0.13370  1.0000
  C   C119      1.0  0.72763  0.32660  0.38370  1.0000
  C   C120      1.0  0.77237  0.17340  0.38370  1.0000
  C   C121      1.0  0.97763  0.42340  0.13370  1.0000
  C   C122      1.0  0.02237  0.57660  0.13370  1.0000
  C   C123      1.0  0.22763  0.82660  0.38370  1.0000
  C   C124      1.0  0.27237  0.67340  0.38370  1.0000
  C   C125      1.0  0.97763  0.92340  0.63370  1.0000
  C   C126      1.0  0.02237  0.07660  0.63370  1.0000
  C   C127      1.0  0.22763  0.32660  0.88370  1.0000
  C   C128      1.0  0.27237  0.17340  0.88370  1.0000
  C   C129      1.0  0.52651  0.42401  0.62320  1.0000
  C   C130      1.0  0.47349  0.57599  0.62320  1.0000
  C   C131      1.0  0.77651  0.82599  0.87320  1.0000
  C   C132      1.0  0.72349  0.67401  0.87320  1.0000
  C   C133      1.0  0.52651  0.92401  0.12320  1.0000
  C   C134      1.0  0.47349  0.07599  0.12320  1.0000
  C   C135      1.0  0.77651  0.32599  0.37320  1.0000
  C   C136      1.0  0.72349  0.17401  0.37320  1.0000
  C   C137      1.0  0.02651  0.42401  0.12320  1.0000
  C   C138      1.0  0.97349  0.57599  0.12320  1.0000
  C   C139      1.0  0.27651  0.82599  0.37320  1.0000
  C   C140      1.0  0.22349  0.67401  0.37320  1.0000
  C   C141      1.0  0.02651  0.92401  0.62320  1.0000
  C   C142      1.0  0.97349  0.07599  0.62320  1.0000
  C   C143      1.0  0.27651  0.32599  0.87320  1.0000
  C   C144      1.0  0.22349  0.17401  0.87320  1.0000
  O   O81       1.0  0.59102  0.24411  0.06580  1.0000
  O   O82       1.0  0.40898  0.75589  0.06580  1.0000
  O   O83       1.0  0.84102  0.00589  0.31580  1.0000
  O   O84       1.0  0.65898  0.49411  0.31580  1.0000
  O   O85       1.0  0.59102  0.74411  0.56580  1.0000
  O   O86       1.0  0.40898  0.25589  0.56580  1.0000
  O   O87       1.0  0.84102  0.50589  0.81580  1.0000
  O   O88       1.0  0.65898  0.99411  0.81580  1.0000
  O   O89       1.0  0.09102  0.24411  0.56580  1.0000
  O   O90       1.0  0.90898  0.75589  0.56580  1.0000
  O   O91       1.0  0.34102  0.00589  0.81580  1.0000
  O   O92       1.0  0.15898  0.49411  0.81580  1.0000
  O   O93       1.0  0.09102  0.74411  0.06580  1.0000
  O   O94       1.0  0.90898  0.25589  0.06580  1.0000
  O   O95       1.0  0.34102  0.50589  0.31580  1.0000
  O   O96       1.0  0.15898  0.99411  0.31580  1.0000
  H   H65       1.0  0.59890  0.25530  0.16480  1.0000
  H   H66       1.0  0.40110  0.74470  0.16480  1.0000
  H   H67       1.0  0.84890  0.99470  0.41480  1.0000
  H   H68       1.0  0.65110  0.50530  0.41480  1.0000
  H   H69       1.0  0.59890  0.75530  0.66480  1.0000
  H   H70       1.0  0.40110  0.24470  0.66480  1.0000
  H   H71       1.0  0.84890  0.49470  0.91480  1.0000
  H   H72       1.0  0.65110  0.00530  0.91480  1.0000
  H   H73       1.0  0.09890  0.25530  0.66480  1.0000
  H   H74       1.0  0.90110  0.74470  0.66480  1.0000
  H   H75       1.0  0.34890  0.99470  0.91480  1.0000
  H   H76       1.0  0.15110  0.50530  0.91480  1.0000
  H   H77       1.0  0.09890  0.75530  0.16480  1.0000
  H   H78       1.0  0.90110  0.24470  0.16480  1.0000
  H   H79       1.0  0.34890  0.49470  0.41480  1.0000
  H   H80       1.0  0.15110  0.00530  0.41480  1.0000
  H   H81       1.0  0.58120  0.22480  0.07610  1.0000
  H   H82       1.0  0.41880  0.77520  0.07610  1.0000
  H   H83       1.0  0.83120  0.02520  0.32610  1.0000
  H   H84       1.0  0.66880  0.47480  0.32610  1.0000
  H   H85       1.0  0.58120  0.72480  0.57610  1.0000
  H   H86       1.0  0.41880  0.27520  0.57610  1.0000
  H   H87       1.0  0.83120  0.52520  0.82610  1.0000
  H   H88       1.0  0.66880  0.97480  0.82610  1.0000
  H   H89       1.0  0.08120  0.22480  0.57610  1.0000
  H   H90       1.0  0.91880  0.77520  0.57610  1.0000
  H   H91       1.0  0.33120  0.02520  0.82610  1.0000
  H   H92       1.0  0.16880  0.47480  0.82610  1.0000
  H   H93       1.0  0.08120  0.72480  0.07610  1.0000
  H   H94       1.0  0.91880  0.27520  0.07610  1.0000
  H   H95       1.0  0.33120  0.52520  0.32610  1.0000
  H   H96       1.0  0.16880  0.97480  0.32610  1.0000
  O   O97       1.0  0.50576  0.20761  0.72650  1.0000
  O   O98       1.0  0.49424  0.79239  0.72650  1.0000
  O   O99       1.0  0.75576  0.04239  0.97650  1.0000
  O   O100      1.0  0.74424  0.45761  0.97650  1.0000
  O   O101      1.0  0.50576  0.70761  0.22650  1.0000
  O   O102      1.0  0.49424  0.29239  0.22650  1.0000
  O   O103      1.0  0.75576  0.54239  0.47650  1.0000
  O   O104      1.0  0.74424  0.95761  0.47650  1.0000
  O   O105      1.0  0.00576  0.20761  0.22650  1.0000
  O   O106      1.0  0.99424  0.79239  0.22650  1.0000
  O   O107      1.0  0.25576  0.04239  0.47650  1.0000
  O   O108      1.0  0.24424  0.45761  0.47650  1.0000
  O   O109      1.0  0.00576  0.70761  0.72650  1.0000
  O   O110      1.0  0.99424  0.29239  0.72650  1.0000
  O   O111      1.0  0.25576  0.54239  0.97650  1.0000
  O   O112      1.0  0.24424  0.95761  0.97650  1.0000
  H   H97       1.0  0.52340  0.19480  0.78920  1.0000
  H   H98       1.0  0.47660  0.80520  0.78920  1.0000
  H   H99       1.0  0.77340  0.05520  0.03920  1.0000
  H   H100      1.0  0.72660  0.44480  0.03920  1.0000
  H   H101      1.0  0.52340  0.69480  0.28920  1.0000
  H   H102      1.0  0.47660  0.30520  0.28920  1.0000
  H   H103      1.0  0.77340  0.55520  0.53920  1.0000
  H   H104      1.0  0.72660  0.94480  0.53920  1.0000
  H   H105      1.0  0.02340  0.19480  0.28920  1.0000
  H   H106      1.0  0.97660  0.80520  0.28920  1.0000
  H   H107      1.0  0.27340  0.05520  0.53920  1.0000
  H   H108      1.0  0.22660  0.44480  0.53920  1.0000
  H   H109      1.0  0.02340  0.69480  0.78920  1.0000
  H   H110      1.0  0.97660  0.30520  0.78920  1.0000
  H   H111      1.0  0.27340  0.55520  0.03920  1.0000
  H   H112      1.0  0.22660  0.94480  0.03920  1.0000
  H   H113      1.0  0.51380  0.20770  0.60770  1.0000
  H   H114      1.0  0.48620  0.79230  0.60770  1.0000
  H   H115      1.0  0.76380  0.04230  0.85770  1.0000
  H   H116      1.0  0.73620  0.45770  0.85770  1.0000
  H   H117      1.0  0.51380  0.70770  0.10770  1.0000
  H   H118      1.0  0.48620  0.29230  0.10770  1.0000
  H   H119      1.0  0.76380  0.54230  0.35770  1.0000
  H   H120      1.0  0.73620  0.95770  0.35770  1.0000
  H   H121      1.0  0.01380  0.20770  0.10770  1.0000
  H   H122      1.0  0.98620  0.79230  0.10770  1.0000
  H   H123      1.0  0.26380  0.04230  0.35770  1.0000
  H   H124      1.0  0.23620  0.45770  0.35770  1.0000
  H   H125      1.0  0.01380  0.70770  0.60770  1.0000
  H   H126      1.0  0.98620  0.29230  0.60770  1.0000
  H   H127      1.0  0.26380  0.54230  0.85770  1.0000
  H   H128      1.0  0.23620  0.95770  0.85770  1.0000
