data_image0
_chemical_formula_structural       Th4C4H4C4H4C8H4C4H4C20Cl12O8C8H4C12H4C4H4C4H4C4H4C4H4C4H4C8H4C4H4C4H4C12H4O16
_chemical_formula_sum              "Th4 C108 H60 Cl12 O24"
_cell_length_a       17.273
_cell_length_b       15.263
_cell_length_c       17.298
_cell_angle_alpha    90
_cell_angle_beta     118.669
_cell_angle_gamma    90

_space_group_name_H-M_alt    "P 1"
_space_group_IT_number       1

loop_
  _space_group_symop_operation_xyz
  'x, y, z'

loop_
  _atom_site_type_symbol
  _atom_site_label
  _atom_site_symmetry_multiplicity
  _atom_site_fract_x
  _atom_site_fract_y
  _atom_site_fract_z
  _atom_site_occupancy
  Th  Th1       1.0  0.71782  0.08494  0.77262  1.0000
  Th  Th2       1.0  0.28218  0.58494  0.72738  1.0000
  Th  Th3       1.0  0.28218  0.91506  0.22738  1.0000
  Th  Th4       1.0  0.71782  0.41506  0.27262  1.0000
  C   C1        1.0  0.38730  0.07570  0.53940  1.0000
  C   C2        1.0  0.61270  0.57570  0.96060  1.0000
  C   C3        1.0  0.61270  0.92430  0.46060  1.0000
  C   C4        1.0  0.38730  0.42430  0.03940  1.0000
  H   H1        1.0  0.41950  0.04570  0.51580  1.0000
  H   H2        1.0  0.58050  0.54570  0.98420  1.0000
  H   H3        1.0  0.58050  0.95430  0.48420  1.0000
  H   H4        1.0  0.41950  0.45430  0.01580  1.0000
  C   C5        1.0  0.29580  0.07440  0.49490  1.0000
  C   C6        1.0  0.70420  0.57440  0.00510  1.0000
  C   C7        1.0  0.70420  0.92560  0.50510  1.0000
  C   C8        1.0  0.29580  0.42560  0.99490  1.0000
  H   H5        1.0  0.26560  0.04250  0.44140  1.0000
  H   H6        1.0  0.73440  0.54250  0.05860  1.0000
  H   H7        1.0  0.73440  0.95750  0.55860  1.0000
  H   H8        1.0  0.26560  0.45750  0.94140  1.0000
  C   C9        1.0  0.24720  0.12000  0.52840  1.0000
  C   C10       1.0  0.75280  0.62000  0.97160  1.0000
  C   C11       1.0  0.75280  0.88000  0.47160  1.0000
  C   C12       1.0  0.24720  0.38000  0.02840  1.0000
  C   C13       1.0  0.29290  0.16640  0.60640  1.0000
  C   C14       1.0  0.70710  0.66640  0.89360  1.0000
  C   C15       1.0  0.70710  0.83360  0.39360  1.0000
  C   C16       1.0  0.29290  0.33360  0.10640  1.0000
  H   H9        1.0  0.26100  0.19860  0.62890  1.0000
  H   H10       1.0  0.73900  0.69860  0.87110  1.0000
  H   H11       1.0  0.73900  0.80140  0.37110  1.0000
  H   H12       1.0  0.26100  0.30140  0.12890  1.0000
  C   C17       1.0  0.38440  0.16660  0.65210  1.0000
  C   C18       1.0  0.61560  0.66660  0.84790  1.0000
  C   C19       1.0  0.61560  0.83340  0.34790  1.0000
  C   C20       1.0  0.38440  0.33340  0.15210  1.0000
  H   H13       1.0  0.41460  0.19760  0.70610  1.0000
  H   H14       1.0  0.58540  0.69760  0.79390  1.0000
  H   H15       1.0  0.58540  0.80240  0.29390  1.0000
  H   H16       1.0  0.41460  0.30240  0.20610  1.0000
  C   C21       1.0  0.14930  0.11670  0.47980  1.0000
  C   C22       1.0  0.85070  0.61670  0.02020  1.0000
  C   C23       1.0  0.85070  0.88330  0.52020  1.0000
  C   C24       1.0  0.14930  0.38330  0.97980  1.0000
  C   C25       1.0  0.53080  0.11550  0.67040  1.0000
  C   C26       1.0  0.46920  0.61550  0.82960  1.0000
  C   C27       1.0  0.46920  0.88450  0.32960  1.0000
  C   C28       1.0  0.53080  0.38450  0.17040  1.0000
  C   C29       1.0  0.43220  0.12120  0.61870  1.0000
  C   C30       1.0  0.56780  0.62120  0.88130  1.0000
  C   C31       1.0  0.56780  0.87880  0.38130  1.0000
  C   C32       1.0  0.43220  0.37880  0.11870  1.0000
  C   C33       1.0  0.01190  0.11280  0.34180  1.0000
  C   C34       1.0  0.98810  0.61280  0.15820  1.0000
  C   C35       1.0  0.98810  0.88720  0.65820  1.0000
  C   C36       1.0  0.01190  0.38720  0.84180  1.0000
  C   C37       1.0  0.96350  0.11080  0.24370  1.0000
  C   C38       1.0  0.03650  0.61080  0.25630  1.0000
  C   C39       1.0  0.03650  0.88920  0.75630  1.0000
  C   C40       1.0  0.96350  0.38920  0.74370  1.0000
  Cl  Cl1       1.0  0.73717  0.26630  0.76830  1.0000
  Cl  Cl2       1.0  0.26283  0.76630  0.73170  1.0000
  Cl  Cl3       1.0  0.26283  0.73370  0.23170  1.0000
  Cl  Cl4       1.0  0.73717  0.23370  0.26830  1.0000
  Cl  Cl5       1.0  0.75170  0.92000  0.73550  1.0000
  Cl  Cl6       1.0  0.24830  0.42000  0.76450  1.0000
  Cl  Cl7       1.0  0.24830  0.08000  0.26450  1.0000
  Cl  Cl8       1.0  0.75170  0.58000  0.23550  1.0000
  Cl  Cl9       1.0  0.63657  0.97070  0.84160  1.0000
  Cl  Cl10      1.0  0.36343  0.47070  0.65840  1.0000
  Cl  Cl11      1.0  0.36343  0.02930  0.15840  1.0000
  Cl  Cl12      1.0  0.63657  0.52930  0.34160  1.0000
  O   O1        1.0  0.57160  0.06710  0.64260  1.0000
  O   O2        1.0  0.42840  0.56710  0.85740  1.0000
  O   O3        1.0  0.42840  0.93290  0.35740  1.0000
  O   O4        1.0  0.57160  0.43290  0.14260  1.0000
  O   O5        1.0  0.57190  0.15600  0.74180  1.0000
  O   O6        1.0  0.42810  0.65600  0.75820  1.0000
  O   O7        1.0  0.42810  0.84400  0.25820  1.0000
  O   O8        1.0  0.57190  0.34400  0.24180  1.0000
  C   C41       1.0  0.00810  0.11980  0.48150  1.0000
  C   C42       1.0  0.99190  0.61980  0.01850  1.0000
  C   C43       1.0  0.99190  0.88020  0.51850  1.0000
  C   C44       1.0  0.00810  0.38020  0.98150  1.0000
  C   C45       1.0  0.88380  0.15620  0.19850  1.0000
  C   C46       1.0  0.11620  0.65620  0.30150  1.0000
  C   C47       1.0  0.11620  0.84380  0.80150  1.0000
  C   C48       1.0  0.88380  0.34380  0.69850  1.0000
  H   H17       1.0  0.86160  0.18950  0.22990  1.0000
  H   H18       1.0  0.13840  0.68950  0.27010  1.0000
  H   H19       1.0  0.13840  0.81050  0.77010  1.0000
  H   H20       1.0  0.86160  0.31050  0.72990  1.0000
  C   C49       1.0  0.86830  0.10420  0.06030  1.0000
  C   C50       1.0  0.13170  0.60420  0.43970  1.0000
  C   C51       1.0  0.13170  0.89580  0.93970  1.0000
  C   C52       1.0  0.86830  0.39580  0.56030  1.0000
  C   C53       1.0  0.95790  0.12210  0.53070  1.0000
  C   C54       1.0  0.04210  0.62210  0.96930  1.0000
  C   C55       1.0  0.04210  0.87790  0.46930  1.0000
  C   C56       1.0  0.95790  0.37790  0.03070  1.0000
  C   C57       1.0  0.94790  0.05920  0.10560  1.0000
  C   C58       1.0  0.05210  0.55920  0.39440  1.0000
  C   C59       1.0  0.05210  0.94080  0.89440  1.0000
  C   C60       1.0  0.94790  0.44080  0.60560  1.0000
  H   H21       1.0  0.96960  0.02550  0.07390  1.0000
  H   H22       1.0  0.03040  0.52550  0.42610  1.0000
  H   H23       1.0  0.03040  0.97450  0.92610  1.0000
  H   H24       1.0  0.96960  0.47450  0.57390  1.0000
  C   C61       1.0  0.10090  0.12080  0.52490  1.0000
  C   C62       1.0  0.89910  0.62080  0.97510  1.0000
  C   C63       1.0  0.89910  0.87920  0.47510  1.0000
  C   C64       1.0  0.10090  0.37920  0.02490  1.0000
  H   H25       1.0  0.13180  0.12450  0.58740  1.0000
  H   H26       1.0  0.86820  0.62450  0.91260  1.0000
  H   H27       1.0  0.86820  0.87550  0.41260  1.0000
  H   H28       1.0  0.13180  0.37550  0.08740  1.0000
  C   C65       1.0  0.99520  0.06350  0.19620  1.0000
  C   C66       1.0  0.00480  0.56350  0.30380  1.0000
  C   C67       1.0  0.00480  0.93650  0.80380  1.0000
  C   C68       1.0  0.99520  0.43650  0.69620  1.0000
  H   H29       1.0  0.05010  0.03380  0.22640  1.0000
  H   H30       1.0  0.94990  0.53380  0.27360  1.0000
  H   H31       1.0  0.94990  0.96620  0.77360  1.0000
  H   H32       1.0  0.05010  0.46620  0.72640  1.0000
  C   C69       1.0  0.96570  0.11650  0.38950  1.0000
  C   C70       1.0  0.03430  0.61650  0.11050  1.0000
  C   C71       1.0  0.03430  0.88350  0.61050  1.0000
  C   C72       1.0  0.96570  0.38350  0.88950  1.0000
  H   H33       1.0  0.90300  0.11680  0.35820  1.0000
  H   H34       1.0  0.09700  0.61680  0.14180  1.0000
  H   H35       1.0  0.09700  0.88320  0.64180  1.0000
  H   H36       1.0  0.90300  0.38320  0.85820  1.0000
  C   C73       1.0  0.83790  0.15220  0.10770  1.0000
  C   C74       1.0  0.16210  0.65220  0.39230  1.0000
  C   C75       1.0  0.16210  0.84780  0.89230  1.0000
  C   C76       1.0  0.83790  0.34780  0.60770  1.0000
  H   H37       1.0  0.78380  0.18330  0.07710  1.0000
  H   H38       1.0  0.21620  0.68330  0.42290  1.0000
  H   H39       1.0  0.21620  0.81670  0.92290  1.0000
  H   H40       1.0  0.78380  0.31670  0.57710  1.0000
  C   C77       1.0  0.10530  0.11200  0.38810  1.0000
  C   C78       1.0  0.89470  0.61200  0.11190  1.0000
  C   C79       1.0  0.89470  0.88800  0.61190  1.0000
  C   C80       1.0  0.10530  0.38800  0.88810  1.0000
  H   H41       1.0  0.13780  0.10820  0.35680  1.0000
  H   H42       1.0  0.86220  0.60820  0.14320  1.0000
  H   H43       1.0  0.86220  0.89180  0.64320  1.0000
  H   H44       1.0  0.13780  0.39180  0.85680  1.0000
  C   C81       1.0  0.81900  0.10170  0.96260  1.0000
  C   C82       1.0  0.18100  0.60170  0.53740  1.0000
  C   C83       1.0  0.18100  0.89830  0.03740  1.0000
  C   C84       1.0  0.81900  0.39830  0.46260  1.0000
  C   C85       1.0  0.86700  0.13270  0.48840  1.0000
  C   C86       1.0  0.13300  0.63270  0.01160  1.0000
  C   C87       1.0  0.13300  0.86730  0.51160  1.0000
  C   C88       1.0  0.86700  0.36730  0.98840  1.0000
  H   H45       1.0  0.83640  0.14270  0.42670  1.0000
  H   H46       1.0  0.16360  0.64270  0.07330  1.0000
  H   H47       1.0  0.16360  0.85730  0.57330  1.0000
  H   H48       1.0  0.83640  0.35730  0.92670  1.0000
  C   C89       1.0  0.99950  0.11060  0.62180  1.0000
  C   C90       1.0  0.00050  0.61060  0.87820  1.0000
  C   C91       1.0  0.00050  0.88940  0.37820  1.0000
  C   C92       1.0  0.99950  0.38940  0.12180  1.0000
  H   H49       1.0  0.06180  0.10350  0.65330  1.0000
  H   H50       1.0  0.93820  0.60350  0.84670  1.0000
  H   H51       1.0  0.93820  0.89650  0.34670  1.0000
  H   H52       1.0  0.06180  0.39650  0.15330  1.0000
  C   C93       1.0  0.81980  0.12890  0.53490  1.0000
  C   C94       1.0  0.18020  0.62890  0.96510  1.0000
  C   C95       1.0  0.18020  0.87110  0.46510  1.0000
  C   C96       1.0  0.81980  0.37110  0.03490  1.0000
  H   H53       1.0  0.75730  0.13420  0.50390  1.0000
  H   H54       1.0  0.24270  0.63420  0.99610  1.0000
  H   H55       1.0  0.24270  0.86580  0.49610  1.0000
  H   H56       1.0  0.75730  0.36580  0.00390  1.0000
  C   C97       1.0  0.86150  0.11780  0.62390  1.0000
  C   C98       1.0  0.13850  0.61780  0.87610  1.0000
  C   C99       1.0  0.13850  0.88220  0.37610  1.0000
  C   C100      1.0  0.86150  0.38220  0.12390  1.0000
  C   C101      1.0  0.81080  0.11150  0.67320  1.0000
  C   C102      1.0  0.18920  0.61150  0.82680  1.0000
  C   C103      1.0  0.18920  0.88850  0.32680  1.0000
  C   C104      1.0  0.81080  0.38850  0.17320  1.0000
  C   C105      1.0  0.95270  0.10940  0.66690  1.0000
  C   C106      1.0  0.04730  0.60940  0.83310  1.0000
  C   C107      1.0  0.04730  0.89060  0.33310  1.0000
  C   C108      1.0  0.95270  0.39060  0.16690  1.0000
  H   H57       1.0  0.98320  0.10270  0.72910  1.0000
  H   H58       1.0  0.01680  0.60270  0.77090  1.0000
  H   H59       1.0  0.01680  0.89730  0.27090  1.0000
  H   H60       1.0  0.98320  0.39730  0.22910  1.0000
  O   O9        1.0  0.72890  0.11450  0.63450  1.0000
  O   O10       1.0  0.27110  0.61450  0.86550  1.0000
  O   O11       1.0  0.27110  0.88550  0.36550  1.0000
  O   O12       1.0  0.72890  0.38550  0.13450  1.0000
  O   O13       1.0  0.85380  0.10480  0.75800  1.0000
  O   O14       1.0  0.14620  0.60480  0.74200  1.0000
  O   O15       1.0  0.14620  0.89520  0.24200  1.0000
  O   O16       1.0  0.85380  0.39520  0.25800  1.0000
  O   O17       1.0  0.84650  0.05610  0.92000  1.0000
  O   O18       1.0  0.15350  0.55610  0.58000  1.0000
  O   O19       1.0  0.15350  0.94390  0.08000  1.0000
  O   O20       1.0  0.84650  0.44390  0.42000  1.0000
  O   O21       1.0  0.74810  0.14400  0.92170  1.0000
  O   O22       1.0  0.25190  0.64400  0.57830  1.0000
  O   O23       1.0  0.25190  0.85600  0.07830  1.0000
  O   O24       1.0  0.74810  0.35600  0.42170  1.0000
