data_image0
_chemical_formula_structural       Mn4O24C8H8C4H4
_chemical_formula_sum              "Mn4 O24 C12 H12"
_cell_length_a       8.6773
_cell_length_b       11.9514
_cell_length_c       8.1697
_cell_angle_alpha    90
_cell_angle_beta     90
_cell_angle_gamma    90

_space_group_name_H-M_alt    "P 1"
_space_group_IT_number       1

loop_
  _space_group_symop_operation_xyz
  'x, y, z'

loop_
  _atom_site_type_symbol
  _atom_site_label
  _atom_site_symmetry_multiplicity
  _atom_site_fract_x
  _atom_site_fract_y
  _atom_site_fract_z
  _atom_site_occupancy
  Mn  Mn1       1.0  0.00000  0.50000  0.00000  1.0000
  Mn  Mn2       1.0  0.50000  0.50000  0.50000  1.0000
  Mn  Mn3       1.0  0.00000  0.00000  0.00000  1.0000
  Mn  Mn4       1.0  0.50000  0.00000  0.50000  1.0000
  O   O1        1.0  0.09958  0.56999  0.22217  1.0000
  O   O2        1.0  0.40042  0.43001  0.72217  1.0000
  O   O3        1.0  0.90042  0.06999  0.77783  1.0000
  O   O4        1.0  0.59958  0.93001  0.27783  1.0000
  O   O5        1.0  0.90042  0.43001  0.77783  1.0000
  O   O6        1.0  0.59958  0.56999  0.27783  1.0000
  O   O7        1.0  0.09958  0.93001  0.22217  1.0000
  O   O8        1.0  0.40042  0.06999  0.72217  1.0000
  O   O9        1.0  0.27576  0.56425  0.41808  1.0000
  O   O10       1.0  0.22424  0.43575  0.91808  1.0000
  O   O11       1.0  0.72424  0.06425  0.58192  1.0000
  O   O12       1.0  0.77576  0.93575  0.08192  1.0000
  O   O13       1.0  0.72424  0.43575  0.58192  1.0000
  O   O14       1.0  0.77576  0.56425  0.08192  1.0000
  O   O15       1.0  0.27576  0.93575  0.41808  1.0000
  O   O16       1.0  0.22424  0.06425  0.91808  1.0000
  O   O17       1.0  0.96596  0.34236  0.13117  1.0000
  O   O18       1.0  0.53404  0.65764  0.63117  1.0000
  O   O19       1.0  0.03404  0.84236  0.86883  1.0000
  O   O20       1.0  0.46596  0.15764  0.36883  1.0000
  O   O21       1.0  0.03404  0.65764  0.86883  1.0000
  O   O22       1.0  0.46596  0.34236  0.36883  1.0000
  O   O23       1.0  0.96596  0.15764  0.13117  1.0000
  O   O24       1.0  0.53404  0.84236  0.63117  1.0000
  C   C1        1.0  0.21887  0.53287  0.28457  1.0000
  C   C2        1.0  0.28113  0.46713  0.78457  1.0000
  C   C3        1.0  0.78113  0.03287  0.71543  1.0000
  C   C4        1.0  0.71887  0.96713  0.21543  1.0000
  C   C5        1.0  0.78113  0.46713  0.71543  1.0000
  C   C6        1.0  0.71887  0.53287  0.21543  1.0000
  C   C7        1.0  0.21887  0.96713  0.28457  1.0000
  C   C8        1.0  0.28113  0.03287  0.78457  1.0000
  H   H1        1.0  0.27080  0.47700  0.22780  1.0000
  H   H2        1.0  0.22920  0.52300  0.72780  1.0000
  H   H3        1.0  0.72920  0.97700  0.77220  1.0000
  H   H4        1.0  0.77080  0.02300  0.27220  1.0000
  H   H5        1.0  0.72920  0.52300  0.77220  1.0000
  H   H6        1.0  0.77080  0.47700  0.27220  1.0000
  H   H7        1.0  0.27080  0.02300  0.22780  1.0000
  H   H8        1.0  0.22920  0.97700  0.72780  1.0000
  C   C9        1.0  0.98170  0.25000  0.06360  1.0000
  C   C10       1.0  0.51830  0.75000  0.56360  1.0000
  C   C11       1.0  0.01830  0.75000  0.93640  1.0000
  C   C12       1.0  0.48170  0.25000  0.43640  1.0000
  H   H9        1.0  0.00750  0.25000  0.95310  1.0000
  H   H10       1.0  0.49250  0.75000  0.45310  1.0000
  H   H11       1.0  0.99250  0.75000  0.04690  1.0000
  H   H12       1.0  0.50750  0.25000  0.54690  1.0000
