data_image0
_chemical_formula_structural       Mn4O24C12H12
_chemical_formula_sum              "Mn4 O24 C12 H12"
_cell_length_a       8.679
_cell_length_b       11.955
_cell_length_c       8.164
_cell_angle_alpha    90
_cell_angle_beta     90
_cell_angle_gamma    90

_space_group_name_H-M_alt    "P 1"
_space_group_IT_number       1

loop_
  _space_group_symop_operation_xyz
  'x, y, z'

loop_
  _atom_site_type_symbol
  _atom_site_label
  _atom_site_symmetry_multiplicity
  _atom_site_fract_x
  _atom_site_fract_y
  _atom_site_fract_z
  _atom_site_occupancy
  Mn  Mn1       1.0  0.00000  0.50000  0.00000  1.0000
  Mn  Mn2       1.0  0.50000  0.50000  0.50000  1.0000
  Mn  Mn3       1.0  0.00000  0.00000  0.00000  1.0000
  Mn  Mn4       1.0  0.50000  0.00000  0.50000  1.0000
  O   O1        1.0  0.09951  0.57001  0.22240  1.0000
  O   O2        1.0  0.40049  0.42999  0.72240  1.0000
  O   O3        1.0  0.90049  0.07001  0.77760  1.0000
  O   O4        1.0  0.59951  0.92999  0.27760  1.0000
  O   O5        1.0  0.90049  0.42999  0.77760  1.0000
  O   O6        1.0  0.59951  0.57001  0.27760  1.0000
  O   O7        1.0  0.09951  0.92999  0.22240  1.0000
  O   O8        1.0  0.40049  0.07001  0.72240  1.0000
  O   O9        1.0  0.27585  0.56433  0.41790  1.0000
  O   O10       1.0  0.22415  0.43567  0.91790  1.0000
  O   O11       1.0  0.72415  0.06433  0.58210  1.0000
  O   O12       1.0  0.77585  0.93567  0.08210  1.0000
  O   O13       1.0  0.72415  0.43567  0.58210  1.0000
  O   O14       1.0  0.77585  0.56433  0.08210  1.0000
  O   O15       1.0  0.27585  0.93567  0.41790  1.0000
  O   O16       1.0  0.22415  0.06433  0.91790  1.0000
  O   O17       1.0  0.96573  0.34237  0.13060  1.0000
  O   O18       1.0  0.53427  0.65763  0.63060  1.0000
  O   O19       1.0  0.03427  0.84237  0.86940  1.0000
  O   O20       1.0  0.46573  0.15763  0.36940  1.0000
  O   O21       1.0  0.03427  0.65763  0.86940  1.0000
  O   O22       1.0  0.46573  0.34237  0.36940  1.0000
  O   O23       1.0  0.96573  0.15763  0.13060  1.0000
  O   O24       1.0  0.53427  0.84237  0.63060  1.0000
  C   C1        1.0  0.21910  0.53290  0.28450  1.0000
  C   C2        1.0  0.28090  0.46710  0.78450  1.0000
  C   C3        1.0  0.78090  0.03290  0.71550  1.0000
  C   C4        1.0  0.71910  0.96710  0.21550  1.0000
  C   C5        1.0  0.78090  0.46710  0.71550  1.0000
  C   C6        1.0  0.71910  0.53290  0.21550  1.0000
  C   C7        1.0  0.21910  0.96710  0.28450  1.0000
  C   C8        1.0  0.28090  0.03290  0.78450  1.0000
  C   C9        1.0  0.98280  0.25000  0.06310  1.0000
  C   C10       1.0  0.51720  0.75000  0.56310  1.0000
  C   C11       1.0  0.01720  0.75000  0.93690  1.0000
  C   C12       1.0  0.48280  0.25000  0.43690  1.0000
  H   H1        1.0  0.26700  0.47200  0.22900  1.0000
  H   H2        1.0  0.23300  0.52800  0.72900  1.0000
  H   H3        1.0  0.73300  0.97200  0.77100  1.0000
  H   H4        1.0  0.76700  0.02800  0.27100  1.0000
  H   H5        1.0  0.73300  0.52800  0.77100  1.0000
  H   H6        1.0  0.76700  0.47200  0.27100  1.0000
  H   H7        1.0  0.26700  0.02800  0.22900  1.0000
  H   H8        1.0  0.23300  0.97200  0.72900  1.0000
  H   H9        1.0  0.00000  0.25000  0.93500  1.0000
  H   H10       1.0  0.50000  0.75000  0.43500  1.0000
  H   H11       1.0  0.00000  0.75000  0.06500  1.0000
  H   H12       1.0  0.50000  0.25000  0.56500  1.0000
