data_image0
_chemical_formula_structural       Mn4O24C12H12
_chemical_formula_sum              "Mn4 O24 C12 H12"
_cell_length_a       8.7674
_cell_length_b       11.9638
_cell_length_c       8.1177
_cell_angle_alpha    90
_cell_angle_beta     90
_cell_angle_gamma    90

_space_group_name_H-M_alt    "P 1"
_space_group_IT_number       1

loop_
  _space_group_symop_operation_xyz
  'x, y, z'

loop_
  _atom_site_type_symbol
  _atom_site_label
  _atom_site_symmetry_multiplicity
  _atom_site_fract_x
  _atom_site_fract_y
  _atom_site_fract_z
  _atom_site_occupancy
  Mn  Mn1       1.0  0.00000  0.50000  0.00000  1.0000
  Mn  Mn2       1.0  0.50000  0.50000  0.50000  1.0000
  Mn  Mn3       1.0  0.00000  0.00000  0.00000  1.0000
  Mn  Mn4       1.0  0.50000  0.00000  0.50000  1.0000
  O   O1        1.0  0.10109  0.56837  0.22381  1.0000
  O   O2        1.0  0.39891  0.43163  0.72381  1.0000
  O   O3        1.0  0.89891  0.06837  0.77619  1.0000
  O   O4        1.0  0.60109  0.93163  0.27619  1.0000
  O   O5        1.0  0.89891  0.43163  0.77619  1.0000
  O   O6        1.0  0.60109  0.56837  0.27619  1.0000
  O   O7        1.0  0.10109  0.93163  0.22381  1.0000
  O   O8        1.0  0.39891  0.06837  0.72381  1.0000
  O   O9        1.0  0.27873  0.56454  0.41629  1.0000
  O   O10       1.0  0.22127  0.43546  0.91629  1.0000
  O   O11       1.0  0.72127  0.06454  0.58371  1.0000
  O   O12       1.0  0.77873  0.93546  0.08371  1.0000
  O   O13       1.0  0.72127  0.43546  0.58371  1.0000
  O   O14       1.0  0.77873  0.56454  0.08371  1.0000
  O   O15       1.0  0.27873  0.93546  0.41629  1.0000
  O   O16       1.0  0.22127  0.06454  0.91629  1.0000
  O   O17       1.0  0.96470  0.34200  0.13042  1.0000
  O   O18       1.0  0.53530  0.65800  0.63042  1.0000
  O   O19       1.0  0.03530  0.84200  0.86958  1.0000
  O   O20       1.0  0.46470  0.15800  0.36958  1.0000
  O   O21       1.0  0.03530  0.65800  0.86958  1.0000
  O   O22       1.0  0.46470  0.34200  0.36958  1.0000
  O   O23       1.0  0.96470  0.15800  0.13042  1.0000
  O   O24       1.0  0.53530  0.84200  0.63042  1.0000
  C   C1        1.0  0.21970  0.53229  0.28480  1.0000
  C   C2        1.0  0.28030  0.46771  0.78480  1.0000
  C   C3        1.0  0.78030  0.03229  0.71520  1.0000
  C   C4        1.0  0.71970  0.96771  0.21520  1.0000
  C   C5        1.0  0.78030  0.46771  0.71520  1.0000
  C   C6        1.0  0.71970  0.53229  0.21520  1.0000
  C   C7        1.0  0.21970  0.96771  0.28480  1.0000
  C   C8        1.0  0.28030  0.03229  0.78480  1.0000
  C   C9        1.0  0.98110  0.25000  0.06290  1.0000
  C   C10       1.0  0.51890  0.75000  0.56290  1.0000
  C   C11       1.0  0.01890  0.75000  0.93710  1.0000
  C   C12       1.0  0.48110  0.25000  0.43710  1.0000
  H   H1        1.0  0.27000  0.47700  0.22900  1.0000
  H   H2        1.0  0.23000  0.52300  0.72900  1.0000
  H   H3        1.0  0.73000  0.97700  0.77100  1.0000
  H   H4        1.0  0.77000  0.02300  0.27100  1.0000
  H   H5        1.0  0.73000  0.52300  0.77100  1.0000
  H   H6        1.0  0.77000  0.47700  0.27100  1.0000
  H   H7        1.0  0.27000  0.02300  0.22900  1.0000
  H   H8        1.0  0.23000  0.97700  0.72900  1.0000
  H   H9        1.0  0.99900  0.25000  0.94400  1.0000
  H   H10       1.0  0.50100  0.75000  0.44400  1.0000
  H   H11       1.0  0.00100  0.75000  0.05600  1.0000
  H   H12       1.0  0.49900  0.25000  0.55600  1.0000
