data_image0
_chemical_formula_structural       Mn4O24C12H12
_chemical_formula_sum              "Mn4 O24 C12 H12"
_cell_length_a       8.567
_cell_length_b       11.934
_cell_length_c       8.232
_cell_angle_alpha    90
_cell_angle_beta     90
_cell_angle_gamma    90

_space_group_name_H-M_alt    "P 1"
_space_group_IT_number       1

loop_
  _space_group_symop_operation_xyz
  'x, y, z'

loop_
  _atom_site_type_symbol
  _atom_site_label
  _atom_site_symmetry_multiplicity
  _atom_site_fract_x
  _atom_site_fract_y
  _atom_site_fract_z
  _atom_site_occupancy
  Mn  Mn1       1.0  0.00000  0.50000  0.00000  1.0000
  Mn  Mn2       1.0  0.50000  0.50000  0.50000  1.0000
  Mn  Mn3       1.0  0.00000  0.00000  0.00000  1.0000
  Mn  Mn4       1.0  0.50000  0.00000  0.50000  1.0000
  O   O1        1.0  0.09810  0.57200  0.22010  1.0000
  O   O2        1.0  0.40190  0.42800  0.72010  1.0000
  O   O3        1.0  0.90190  0.07200  0.77990  1.0000
  O   O4        1.0  0.59810  0.92800  0.27990  1.0000
  O   O5        1.0  0.90190  0.42800  0.77990  1.0000
  O   O6        1.0  0.59810  0.57200  0.27990  1.0000
  O   O7        1.0  0.09810  0.92800  0.22010  1.0000
  O   O8        1.0  0.40190  0.07200  0.72010  1.0000
  O   O9        1.0  0.27250  0.56380  0.41950  1.0000
  O   O10       1.0  0.22750  0.43620  0.91950  1.0000
  O   O11       1.0  0.72750  0.06380  0.58050  1.0000
  O   O12       1.0  0.77250  0.93620  0.08050  1.0000
  O   O13       1.0  0.72750  0.43620  0.58050  1.0000
  O   O14       1.0  0.77250  0.56380  0.08050  1.0000
  O   O15       1.0  0.27250  0.93620  0.41950  1.0000
  O   O16       1.0  0.22750  0.06380  0.91950  1.0000
  O   O17       1.0  0.96760  0.34250  0.13170  1.0000
  O   O18       1.0  0.53240  0.65750  0.63170  1.0000
  O   O19       1.0  0.03240  0.84250  0.86830  1.0000
  O   O20       1.0  0.46760  0.15750  0.36830  1.0000
  O   O21       1.0  0.03240  0.65750  0.86830  1.0000
  O   O22       1.0  0.46760  0.34250  0.36830  1.0000
  O   O23       1.0  0.96760  0.15750  0.13170  1.0000
  O   O24       1.0  0.53240  0.84250  0.63170  1.0000
  C   C1        1.0  0.21850  0.53380  0.28390  1.0000
  C   C2        1.0  0.28150  0.46620  0.78390  1.0000
  C   C3        1.0  0.78150  0.03380  0.71610  1.0000
  C   C4        1.0  0.71850  0.96620  0.21610  1.0000
  C   C5        1.0  0.78150  0.46620  0.71610  1.0000
  C   C6        1.0  0.71850  0.53380  0.21610  1.0000
  C   C7        1.0  0.21850  0.96620  0.28390  1.0000
  C   C8        1.0  0.28150  0.03380  0.78390  1.0000
  C   C9        1.0  0.98270  0.25000  0.06310  1.0000
  C   C10       1.0  0.51730  0.75000  0.56310  1.0000
  C   C11       1.0  0.01730  0.75000  0.93690  1.0000
  C   C12       1.0  0.48270  0.25000  0.43690  1.0000
  H   H1        1.0  0.26900  0.47100  0.22500  1.0000
  H   H2        1.0  0.23100  0.52900  0.72500  1.0000
  H   H3        1.0  0.73100  0.97100  0.77500  1.0000
  H   H4        1.0  0.76900  0.02900  0.27500  1.0000
  H   H5        1.0  0.73100  0.52900  0.77500  1.0000
  H   H6        1.0  0.76900  0.47100  0.27500  1.0000
  H   H7        1.0  0.26900  0.02900  0.22500  1.0000
  H   H8        1.0  0.23100  0.97100  0.72500  1.0000
  H   H9        1.0  0.99600  0.25000  0.93400  1.0000
  H   H10       1.0  0.50400  0.75000  0.43400  1.0000
  H   H11       1.0  0.00400  0.75000  0.06600  1.0000
  H   H12       1.0  0.49600  0.25000  0.56600  1.0000
