data_image0
_chemical_formula_structural       Mn8O48C24H24
_chemical_formula_sum              "Mn8 O48 C24 H24"
_cell_length_a       12.3773
_cell_length_b       12.2976
_cell_length_c       12.3805
_cell_angle_alpha    90
_cell_angle_beta     92.048
_cell_angle_gamma    90

_space_group_name_H-M_alt    "P 1"
_space_group_IT_number       1

loop_
  _space_group_symop_operation_xyz
  'x, y, z'

loop_
  _atom_site_type_symbol
  _atom_site_label
  _atom_site_symmetry_multiplicity
  _atom_site_fract_x
  _atom_site_fract_y
  _atom_site_fract_z
  _atom_site_occupancy
  Mn  Mn1       1.0  0.25178  0.02555  0.24451  1.0000
  Mn  Mn2       1.0  0.24822  0.52555  0.25549  1.0000
  Mn  Mn3       1.0  0.74822  0.97445  0.75549  1.0000
  Mn  Mn4       1.0  0.75178  0.47445  0.74451  1.0000
  Mn  Mn5       1.0  0.75085  0.00054  0.25712  1.0000
  Mn  Mn6       1.0  0.74915  0.50054  0.24288  1.0000
  Mn  Mn7       1.0  0.24915  0.99946  0.74288  1.0000
  Mn  Mn8       1.0  0.25085  0.49946  0.75712  1.0000
  O   O1        1.0  0.41441  0.08031  0.20076  1.0000
  O   O2        1.0  0.08559  0.58031  0.29924  1.0000
  O   O3        1.0  0.58559  0.91969  0.79924  1.0000
  O   O4        1.0  0.91441  0.41969  0.70076  1.0000
  O   O5        1.0  0.59217  0.05680  0.19895  1.0000
  O   O6        1.0  0.90783  0.55680  0.30105  1.0000
  O   O7        1.0  0.40783  0.94320  0.80105  1.0000
  O   O8        1.0  0.09217  0.44320  0.69895  1.0000
  O   O9        1.0  0.19810  0.07674  0.07970  1.0000
  O   O10       1.0  0.30190  0.57674  0.42030  1.0000
  O   O11       1.0  0.80190  0.92326  0.92030  1.0000
  O   O12       1.0  0.69810  0.42326  0.57970  1.0000
  O   O13       1.0  0.20670  0.06320  0.90195  1.0000
  O   O14       1.0  0.29330  0.56320  0.59805  1.0000
  O   O15       1.0  0.79330  0.93680  0.09805  1.0000
  O   O16       1.0  0.70670  0.43680  0.40195  1.0000
  O   O17       1.0  0.09443  0.96540  0.29390  1.0000
  O   O18       1.0  0.40557  0.46540  0.20610  1.0000
  O   O19       1.0  0.90557  0.03460  0.70610  1.0000
  O   O20       1.0  0.59443  0.53460  0.79390  1.0000
  O   O21       1.0  0.91802  0.95940  0.31423  1.0000
  O   O22       1.0  0.58198  0.45940  0.18577  1.0000
  O   O23       1.0  0.08198  0.04060  0.68577  1.0000
  O   O24       1.0  0.41802  0.54060  0.81423  1.0000
  O   O25       1.0  0.28820  0.68415  0.19520  1.0000
  O   O26       1.0  0.21180  0.18415  0.30480  1.0000
  O   O27       1.0  0.71180  0.31585  0.80480  1.0000
  O   O28       1.0  0.78820  0.81585  0.69520  1.0000
  O   O29       1.0  0.29010  0.86418  0.18565  1.0000
  O   O30       1.0  0.20990  0.36418  0.31435  1.0000
  O   O31       1.0  0.70990  0.13582  0.81435  1.0000
  O   O32       1.0  0.79010  0.63582  0.68565  1.0000
  O   O33       1.0  0.31600  0.97354  0.40418  1.0000
  O   O34       1.0  0.18400  0.47354  0.09582  1.0000
  O   O35       1.0  0.68400  0.02646  0.59582  1.0000
  O   O36       1.0  0.81600  0.52646  0.90418  1.0000
  O   O37       1.0  0.30101  0.94940  0.58008  1.0000
  O   O38       1.0  0.19899  0.44940  0.91992  1.0000
  O   O39       1.0  0.69899  0.05060  0.41992  1.0000
  O   O40       1.0  0.80101  0.55060  0.08008  1.0000
  O   O41       1.0  0.80980  0.16060  0.22030  1.0000
  O   O42       1.0  0.69020  0.66060  0.27970  1.0000
  O   O43       1.0  0.19020  0.83940  0.77970  1.0000
  O   O44       1.0  0.30980  0.33940  0.72030  1.0000
  O   O45       1.0  0.80350  0.34060  0.20310  1.0000
  O   O46       1.0  0.69650  0.84060  0.29690  1.0000
  O   O47       1.0  0.19650  0.65940  0.79690  1.0000
  O   O48       1.0  0.30350  0.15940  0.70310  1.0000
  C   C1        1.0  0.49990  0.02780  0.22410  1.0000
  C   C2        1.0  0.00010  0.52780  0.27590  1.0000
  C   C3        1.0  0.50010  0.97220  0.77590  1.0000
  C   C4        1.0  0.99990  0.47220  0.72410  1.0000
  C   C5        1.0  0.22960  0.03150  0.99510  1.0000
  C   C6        1.0  0.27040  0.53150  0.50490  1.0000
  C   C7        1.0  0.77040  0.96850  0.00490  1.0000
  C   C8        1.0  0.72960  0.46850  0.49510  1.0000
  C   C9        1.0  0.00200  0.00260  0.27950  1.0000
  C   C10       1.0  0.49800  0.50260  0.22050  1.0000
  C   C11       1.0  0.99800  0.99740  0.72050  1.0000
  C   C12       1.0  0.50200  0.49740  0.77950  1.0000
  C   C13       1.0  0.26770  0.77603  0.22900  1.0000
  C   C14       1.0  0.23230  0.27603  0.27100  1.0000
  C   C15       1.0  0.73230  0.22397  0.77100  1.0000
  C   C16       1.0  0.76770  0.72397  0.72900  1.0000
  C   C17       1.0  0.28100  0.00030  0.49380  1.0000
  C   C18       1.0  0.21900  0.50030  0.00620  1.0000
  C   C19       1.0  0.71900  0.99970  0.50620  1.0000
  C   C20       1.0  0.78100  0.49970  0.99380  1.0000
  C   C21       1.0  0.76640  0.25090  0.23090  1.0000
  C   C22       1.0  0.73360  0.75090  0.26910  1.0000
  C   C23       1.0  0.23360  0.74910  0.76910  1.0000
  C   C24       1.0  0.26640  0.24910  0.73090  1.0000
  H   H1        1.0  0.49350  0.96330  0.26250  1.0000
  H   H2        1.0  0.00650  0.46330  0.23750  1.0000
  H   H3        1.0  0.50650  0.03670  0.73750  1.0000
  H   H4        1.0  0.99350  0.53670  0.76250  1.0000
  H   H5        1.0  0.27310  0.97020  0.00300  1.0000
  H   H6        1.0  0.22690  0.47020  0.49700  1.0000
  H   H7        1.0  0.72690  0.02980  0.99700  1.0000
  H   H8        1.0  0.77310  0.52980  0.50300  1.0000
  H   H9        1.0  0.99420  0.06690  0.24030  1.0000
  H   H10       1.0  0.50580  0.56690  0.25970  1.0000
  H   H11       1.0  0.00580  0.93310  0.75970  1.0000
  H   H12       1.0  0.49420  0.43310  0.74030  1.0000
  H   H13       1.0  0.23190  0.77980  0.29360  1.0000
  H   H14       1.0  0.26810  0.27980  0.20640  1.0000
  H   H15       1.0  0.76810  0.22020  0.70640  1.0000
  H   H16       1.0  0.73190  0.72020  0.79360  1.0000
  H   H17       1.0  0.23740  0.06170  0.49680  1.0000
  H   H18       1.0  0.26260  0.56170  0.00320  1.0000
  H   H19       1.0  0.76260  0.93830  0.50320  1.0000
  H   H20       1.0  0.73740  0.43830  0.99680  1.0000
  H   H21       1.0  0.69960  0.25180  0.26290  1.0000
  H   H22       1.0  0.80040  0.75180  0.23710  1.0000
  H   H23       1.0  0.30040  0.74820  0.73710  1.0000
  H   H24       1.0  0.19960  0.24820  0.76290  1.0000
