data_image0
_chemical_formula_structural       Mn4O24C8H8C4H4
_chemical_formula_sum              "Mn4 O24 C12 H12"
_cell_length_a       8.7515
_cell_length_b       12.3472
_cell_length_c       8.8346
_cell_angle_alpha    90
_cell_angle_beta     90
_cell_angle_gamma    90

_space_group_name_H-M_alt    "P 1"
_space_group_IT_number       1

loop_
  _space_group_symop_operation_xyz
  'x, y, z'

loop_
  _atom_site_type_symbol
  _atom_site_label
  _atom_site_symmetry_multiplicity
  _atom_site_fract_x
  _atom_site_fract_y
  _atom_site_fract_z
  _atom_site_occupancy
  Mn  Mn1       1.0  0.00000  0.50000  0.50000  1.0000
  Mn  Mn2       1.0  0.50000  0.50000  0.00000  1.0000
  Mn  Mn3       1.0  0.50000  0.00000  0.00000  1.0000
  Mn  Mn4       1.0  0.00000  0.00000  0.50000  1.0000
  O   O1        1.0  0.21460  0.54950  0.39100  1.0000
  O   O2        1.0  0.28540  0.45050  0.89100  1.0000
  O   O3        1.0  0.71460  0.95050  0.10900  1.0000
  O   O4        1.0  0.78540  0.04950  0.60900  1.0000
  O   O5        1.0  0.78540  0.45050  0.60900  1.0000
  O   O6        1.0  0.71460  0.54950  0.10900  1.0000
  O   O7        1.0  0.28540  0.04950  0.89100  1.0000
  O   O8        1.0  0.21460  0.95050  0.39100  1.0000
  O   O9        1.0  0.01770  0.33940  0.40470  1.0000
  O   O10       1.0  0.48230  0.66060  0.90470  1.0000
  O   O11       1.0  0.51770  0.16060  0.09530  1.0000
  O   O12       1.0  0.98230  0.83940  0.59530  1.0000
  O   O13       1.0  0.98230  0.66060  0.59530  1.0000
  O   O14       1.0  0.51770  0.33940  0.09530  1.0000
  O   O15       1.0  0.48230  0.83940  0.90470  1.0000
  O   O16       1.0  0.01770  0.16060  0.40470  1.0000
  O   O17       1.0  0.38310  0.55380  0.20760  1.0000
  O   O18       1.0  0.11690  0.44620  0.70760  1.0000
  O   O19       1.0  0.88310  0.94620  0.29240  1.0000
  O   O20       1.0  0.61690  0.05380  0.79240  1.0000
  O   O21       1.0  0.61690  0.44620  0.79240  1.0000
  O   O22       1.0  0.88310  0.55380  0.29240  1.0000
  O   O23       1.0  0.11690  0.05380  0.70760  1.0000
  O   O24       1.0  0.38310  0.94620  0.20760  1.0000
  C   C1        1.0  0.27210  0.51460  0.27390  1.0000
  C   C2        1.0  0.22790  0.48540  0.77390  1.0000
  C   C3        1.0  0.77210  0.98540  0.22610  1.0000
  C   C4        1.0  0.72790  0.01460  0.72610  1.0000
  C   C5        1.0  0.72790  0.48540  0.72610  1.0000
  C   C6        1.0  0.77210  0.51460  0.22610  1.0000
  C   C7        1.0  0.22790  0.01460  0.77390  1.0000
  C   C8        1.0  0.27210  0.98540  0.27390  1.0000
  H   H1        1.0  0.23020  0.45120  0.23440  1.0000
  H   H2        1.0  0.26980  0.54880  0.73440  1.0000
  H   H3        1.0  0.73020  0.04880  0.26560  1.0000
  H   H4        1.0  0.76980  0.95120  0.76560  1.0000
  H   H5        1.0  0.76980  0.54880  0.76560  1.0000
  H   H6        1.0  0.73020  0.45120  0.26560  1.0000
  H   H7        1.0  0.26980  0.95120  0.73440  1.0000
  H   H8        1.0  0.23020  0.04880  0.23440  1.0000
  C   C9        1.0  0.00280  0.25000  0.46260  1.0000
  C   C10       1.0  0.49720  0.75000  0.96260  1.0000
  C   C11       1.0  0.50280  0.25000  0.03740  1.0000
  C   C12       1.0  0.99720  0.75000  0.53740  1.0000
  H   H9        1.0  0.97110  0.25000  0.56250  1.0000
  H   H10       1.0  0.52890  0.75000  0.06250  1.0000
  H   H11       1.0  0.47110  0.25000  0.93750  1.0000
  H   H12       1.0  0.02890  0.75000  0.43750  1.0000
