data_image0
_chemical_formula_structural       Mn4O24C8H8C4H4
_chemical_formula_sum              "Mn4 O24 C12 H12"
_cell_length_a       8.7393
_cell_length_b       12.3416
_cell_length_c       8.8576
_cell_angle_alpha    90
_cell_angle_beta     90
_cell_angle_gamma    90

_space_group_name_H-M_alt    "P 1"
_space_group_IT_number       1

loop_
  _space_group_symop_operation_xyz
  'x, y, z'

loop_
  _atom_site_type_symbol
  _atom_site_label
  _atom_site_symmetry_multiplicity
  _atom_site_fract_x
  _atom_site_fract_y
  _atom_site_fract_z
  _atom_site_occupancy
  Mn  Mn1       1.0  0.00000  0.50000  0.50000  1.0000
  Mn  Mn2       1.0  0.50000  0.50000  0.00000  1.0000
  Mn  Mn3       1.0  0.50000  0.00000  0.00000  1.0000
  Mn  Mn4       1.0  0.00000  0.00000  0.50000  1.0000
  O   O1        1.0  0.21530  0.54970  0.39150  1.0000
  O   O2        1.0  0.28470  0.45030  0.89150  1.0000
  O   O3        1.0  0.71530  0.95030  0.10850  1.0000
  O   O4        1.0  0.78470  0.04970  0.60850  1.0000
  O   O5        1.0  0.78470  0.45030  0.60850  1.0000
  O   O6        1.0  0.71530  0.54970  0.10850  1.0000
  O   O7        1.0  0.28470  0.04970  0.89150  1.0000
  O   O8        1.0  0.21530  0.95030  0.39150  1.0000
  O   O9        1.0  0.01770  0.33920  0.40410  1.0000
  O   O10       1.0  0.48230  0.66080  0.90410  1.0000
  O   O11       1.0  0.51770  0.16080  0.09590  1.0000
  O   O12       1.0  0.98230  0.83920  0.59590  1.0000
  O   O13       1.0  0.98230  0.66080  0.59590  1.0000
  O   O14       1.0  0.51770  0.33920  0.09590  1.0000
  O   O15       1.0  0.48230  0.83920  0.90410  1.0000
  O   O16       1.0  0.01770  0.16080  0.40410  1.0000
  O   O17       1.0  0.38250  0.55460  0.20690  1.0000
  O   O18       1.0  0.11750  0.44540  0.70690  1.0000
  O   O19       1.0  0.88250  0.94540  0.29310  1.0000
  O   O20       1.0  0.61750  0.05460  0.79310  1.0000
  O   O21       1.0  0.61750  0.44540  0.79310  1.0000
  O   O22       1.0  0.88250  0.55460  0.29310  1.0000
  O   O23       1.0  0.11750  0.05460  0.70690  1.0000
  O   O24       1.0  0.38250  0.94540  0.20690  1.0000
  C   C1        1.0  0.27290  0.51460  0.27360  1.0000
  C   C2        1.0  0.22710  0.48540  0.77360  1.0000
  C   C3        1.0  0.77290  0.98540  0.22640  1.0000
  C   C4        1.0  0.72710  0.01460  0.72640  1.0000
  C   C5        1.0  0.72710  0.48540  0.72640  1.0000
  C   C6        1.0  0.77290  0.51460  0.22640  1.0000
  C   C7        1.0  0.22710  0.01460  0.77360  1.0000
  C   C8        1.0  0.27290  0.98540  0.27360  1.0000
  H   H1        1.0  0.23110  0.45130  0.23410  1.0000
  H   H2        1.0  0.26890  0.54870  0.73410  1.0000
  H   H3        1.0  0.73110  0.04870  0.26590  1.0000
  H   H4        1.0  0.76890  0.95130  0.76590  1.0000
  H   H5        1.0  0.76890  0.54870  0.76590  1.0000
  H   H6        1.0  0.73110  0.45130  0.26590  1.0000
  H   H7        1.0  0.26890  0.95130  0.73410  1.0000
  H   H8        1.0  0.23110  0.04870  0.23410  1.0000
  C   C9        1.0  0.00370  0.25000  0.46250  1.0000
  C   C10       1.0  0.49630  0.75000  0.96250  1.0000
  C   C11       1.0  0.50370  0.25000  0.03750  1.0000
  C   C12       1.0  0.99630  0.75000  0.53750  1.0000
  H   H9        1.0  0.97210  0.25000  0.56240  1.0000
  H   H10       1.0  0.52790  0.75000  0.06240  1.0000
  H   H11       1.0  0.47210  0.25000  0.93760  1.0000
  H   H12       1.0  0.02790  0.75000  0.43760  1.0000
