data_image0
_chemical_formula_structural       Mn4O24C8H8C4H4
_chemical_formula_sum              "Mn4 O24 C12 H12"
_cell_length_a       8.6939
_cell_length_b       12.3048
_cell_length_c       8.8768
_cell_angle_alpha    90
_cell_angle_beta     90
_cell_angle_gamma    90

_space_group_name_H-M_alt    "P 1"
_space_group_IT_number       1

loop_
  _space_group_symop_operation_xyz
  'x, y, z'

loop_
  _atom_site_type_symbol
  _atom_site_label
  _atom_site_symmetry_multiplicity
  _atom_site_fract_x
  _atom_site_fract_y
  _atom_site_fract_z
  _atom_site_occupancy
  Mn  Mn1       1.0  0.00000  0.50000  0.50000  1.0000
  Mn  Mn2       1.0  0.50000  0.50000  0.00000  1.0000
  Mn  Mn3       1.0  0.50000  0.00000  0.00000  1.0000
  Mn  Mn4       1.0  0.00000  0.00000  0.50000  1.0000
  O   O1        1.0  0.21680  0.55071  0.39310  1.0000
  O   O2        1.0  0.28320  0.44929  0.89310  1.0000
  O   O3        1.0  0.71680  0.94929  0.10690  1.0000
  O   O4        1.0  0.78320  0.05071  0.60690  1.0000
  O   O5        1.0  0.78320  0.44929  0.60690  1.0000
  O   O6        1.0  0.71680  0.55071  0.10690  1.0000
  O   O7        1.0  0.28320  0.05071  0.89310  1.0000
  O   O8        1.0  0.21680  0.94929  0.39310  1.0000
  O   O9        1.0  0.01960  0.33977  0.40290  1.0000
  O   O10       1.0  0.48040  0.66023  0.90290  1.0000
  O   O11       1.0  0.51960  0.16023  0.09710  1.0000
  O   O12       1.0  0.98040  0.83977  0.59710  1.0000
  O   O13       1.0  0.98040  0.66023  0.59710  1.0000
  O   O14       1.0  0.51960  0.33977  0.09710  1.0000
  O   O15       1.0  0.48040  0.83977  0.90290  1.0000
  O   O16       1.0  0.01960  0.16023  0.40290  1.0000
  O   O17       1.0  0.38360  0.55622  0.20670  1.0000
  O   O18       1.0  0.11640  0.44378  0.70670  1.0000
  O   O19       1.0  0.88360  0.94378  0.29330  1.0000
  O   O20       1.0  0.61640  0.05622  0.79330  1.0000
  O   O21       1.0  0.61640  0.44378  0.79330  1.0000
  O   O22       1.0  0.88360  0.55622  0.29330  1.0000
  O   O23       1.0  0.11640  0.05622  0.70670  1.0000
  O   O24       1.0  0.38360  0.94378  0.20670  1.0000
  C   C1        1.0  0.27500  0.51480  0.27530  1.0000
  C   C2        1.0  0.22500  0.48520  0.77530  1.0000
  C   C3        1.0  0.77500  0.98520  0.22470  1.0000
  C   C4        1.0  0.72500  0.01480  0.72470  1.0000
  C   C5        1.0  0.72500  0.48520  0.72470  1.0000
  C   C6        1.0  0.77500  0.51480  0.22470  1.0000
  C   C7        1.0  0.22500  0.01480  0.77530  1.0000
  C   C8        1.0  0.27500  0.98520  0.27530  1.0000
  H   H1        1.0  0.23320  0.45140  0.23570  1.0000
  H   H2        1.0  0.26680  0.54860  0.73570  1.0000
  H   H3        1.0  0.73320  0.04860  0.26430  1.0000
  H   H4        1.0  0.76680  0.95140  0.76430  1.0000
  H   H5        1.0  0.76680  0.54860  0.76430  1.0000
  H   H6        1.0  0.73320  0.45140  0.26430  1.0000
  H   H7        1.0  0.26680  0.95140  0.73570  1.0000
  H   H8        1.0  0.23320  0.04860  0.23570  1.0000
  C   C9        1.0  0.00190  0.25000  0.46060  1.0000
  C   C10       1.0  0.49810  0.75000  0.96060  1.0000
  C   C11       1.0  0.50190  0.25000  0.03940  1.0000
  C   C12       1.0  0.99810  0.75000  0.53940  1.0000
  H   H9        1.0  0.97020  0.25000  0.56060  1.0000
  H   H10       1.0  0.52980  0.75000  0.06060  1.0000
  H   H11       1.0  0.47020  0.25000  0.93940  1.0000
  H   H12       1.0  0.02980  0.75000  0.43940  1.0000
