data_image0
_chemical_formula_structural       Mn4O24C8H8C4H4
_chemical_formula_sum              "Mn4 O24 C12 H12"
_cell_length_a       8.6985
_cell_length_b       12.3141
_cell_length_c       8.8804
_cell_angle_alpha    90
_cell_angle_beta     90
_cell_angle_gamma    90

_space_group_name_H-M_alt    "P 1"
_space_group_IT_number       1

loop_
  _space_group_symop_operation_xyz
  'x, y, z'

loop_
  _atom_site_type_symbol
  _atom_site_label
  _atom_site_symmetry_multiplicity
  _atom_site_fract_x
  _atom_site_fract_y
  _atom_site_fract_z
  _atom_site_occupancy
  Mn  Mn1       1.0  0.00000  0.50000  0.50000  1.0000
  Mn  Mn2       1.0  0.50000  0.50000  0.00000  1.0000
  Mn  Mn3       1.0  0.50000  0.00000  0.00000  1.0000
  Mn  Mn4       1.0  0.00000  0.00000  0.50000  1.0000
  O   O1        1.0  0.21590  0.55071  0.39260  1.0000
  O   O2        1.0  0.28410  0.44929  0.89260  1.0000
  O   O3        1.0  0.71590  0.94929  0.10740  1.0000
  O   O4        1.0  0.78410  0.05071  0.60740  1.0000
  O   O5        1.0  0.78410  0.44929  0.60740  1.0000
  O   O6        1.0  0.71590  0.55071  0.10740  1.0000
  O   O7        1.0  0.28410  0.05071  0.89260  1.0000
  O   O8        1.0  0.21590  0.94929  0.39260  1.0000
  O   O9        1.0  0.01910  0.33980  0.40320  1.0000
  O   O10       1.0  0.48090  0.66020  0.90320  1.0000
  O   O11       1.0  0.51910  0.16020  0.09680  1.0000
  O   O12       1.0  0.98090  0.83980  0.59680  1.0000
  O   O13       1.0  0.98090  0.66020  0.59680  1.0000
  O   O14       1.0  0.51910  0.33980  0.09680  1.0000
  O   O15       1.0  0.48090  0.83980  0.90320  1.0000
  O   O16       1.0  0.01910  0.16020  0.40320  1.0000
  O   O17       1.0  0.38300  0.55614  0.20630  1.0000
  O   O18       1.0  0.11700  0.44386  0.70630  1.0000
  O   O19       1.0  0.88300  0.94386  0.29370  1.0000
  O   O20       1.0  0.61700  0.05614  0.79370  1.0000
  O   O21       1.0  0.61700  0.44386  0.79370  1.0000
  O   O22       1.0  0.88300  0.55614  0.29370  1.0000
  O   O23       1.0  0.11700  0.05614  0.70630  1.0000
  O   O24       1.0  0.38300  0.94386  0.20630  1.0000
  C   C1        1.0  0.27430  0.51520  0.27500  1.0000
  C   C2        1.0  0.22570  0.48480  0.77500  1.0000
  C   C3        1.0  0.77430  0.98480  0.22500  1.0000
  C   C4        1.0  0.72570  0.01520  0.72500  1.0000
  C   C5        1.0  0.72570  0.48480  0.72500  1.0000
  C   C6        1.0  0.77430  0.51520  0.22500  1.0000
  C   C7        1.0  0.22570  0.01520  0.77500  1.0000
  C   C8        1.0  0.27430  0.98480  0.27500  1.0000
  H   H1        1.0  0.23250  0.45180  0.23540  1.0000
  H   H2        1.0  0.26750  0.54820  0.73540  1.0000
  H   H3        1.0  0.73250  0.04820  0.26460  1.0000
  H   H4        1.0  0.76750  0.95180  0.76460  1.0000
  H   H5        1.0  0.76750  0.54820  0.76460  1.0000
  H   H6        1.0  0.73250  0.45180  0.26460  1.0000
  H   H7        1.0  0.26750  0.95180  0.73540  1.0000
  H   H8        1.0  0.23250  0.04820  0.23540  1.0000
  C   C9        1.0  0.00220  0.25000  0.46070  1.0000
  C   C10       1.0  0.49780  0.75000  0.96070  1.0000
  C   C11       1.0  0.50220  0.25000  0.03930  1.0000
  C   C12       1.0  0.99780  0.75000  0.53930  1.0000
  H   H9        1.0  0.97050  0.25000  0.56070  1.0000
  H   H10       1.0  0.52950  0.75000  0.06070  1.0000
  H   H11       1.0  0.47050  0.25000  0.93930  1.0000
  H   H12       1.0  0.02950  0.75000  0.43930  1.0000
