data_image0
_chemical_formula_structural       Mn4O24C8H8C4H4
_chemical_formula_sum              "Mn4 O24 C12 H12"
_cell_length_a       8.6879
_cell_length_b       12.303
_cell_length_c       8.8749
_cell_angle_alpha    90
_cell_angle_beta     90
_cell_angle_gamma    90

_space_group_name_H-M_alt    "P 1"
_space_group_IT_number       1

loop_
  _space_group_symop_operation_xyz
  'x, y, z'

loop_
  _atom_site_type_symbol
  _atom_site_label
  _atom_site_symmetry_multiplicity
  _atom_site_fract_x
  _atom_site_fract_y
  _atom_site_fract_z
  _atom_site_occupancy
  Mn  Mn1       1.0  0.50000  0.50000  0.50000  1.0000
  Mn  Mn2       1.0  0.00000  0.50000  0.00000  1.0000
  Mn  Mn3       1.0  0.50000  0.00000  0.50000  1.0000
  Mn  Mn4       1.0  0.00000  0.00000  0.00000  1.0000
  O   O1        1.0  0.28310  0.44938  0.39290  1.0000
  O   O2        1.0  0.21690  0.55062  0.89290  1.0000
  O   O3        1.0  0.71690  0.94938  0.60710  1.0000
  O   O4        1.0  0.78310  0.05062  0.10710  1.0000
  O   O5        1.0  0.71690  0.55062  0.60710  1.0000
  O   O6        1.0  0.78310  0.44938  0.10710  1.0000
  O   O7        1.0  0.28310  0.05062  0.39290  1.0000
  O   O8        1.0  0.21690  0.94938  0.89290  1.0000
  O   O9        1.0  0.11680  0.44373  0.20670  1.0000
  O   O10       1.0  0.38320  0.55627  0.70670  1.0000
  O   O11       1.0  0.88320  0.94373  0.79330  1.0000
  O   O12       1.0  0.61680  0.05627  0.29330  1.0000
  O   O13       1.0  0.88320  0.55627  0.79330  1.0000
  O   O14       1.0  0.61680  0.44373  0.29330  1.0000
  O   O15       1.0  0.11680  0.05627  0.20670  1.0000
  O   O16       1.0  0.38320  0.94373  0.70670  1.0000
  O   O17       1.0  0.48050  0.65999  0.40290  1.0000
  O   O18       1.0  0.01950  0.34001  0.90290  1.0000
  O   O19       1.0  0.51950  0.15999  0.59710  1.0000
  O   O20       1.0  0.98050  0.84001  0.09710  1.0000
  O   O21       1.0  0.51950  0.34001  0.59710  1.0000
  O   O22       1.0  0.98050  0.65999  0.09710  1.0000
  O   O23       1.0  0.48050  0.84001  0.40290  1.0000
  O   O24       1.0  0.01950  0.15999  0.90290  1.0000
  C   C1        1.0  0.22590  0.48560  0.27520  1.0000
  C   C2        1.0  0.27410  0.51440  0.77520  1.0000
  C   C3        1.0  0.77410  0.98560  0.72480  1.0000
  C   C4        1.0  0.72590  0.01440  0.22480  1.0000
  C   C5        1.0  0.77410  0.51440  0.72480  1.0000
  C   C6        1.0  0.72590  0.48560  0.22480  1.0000
  C   C7        1.0  0.22590  0.01440  0.27520  1.0000
  C   C8        1.0  0.27410  0.98560  0.77520  1.0000
  H   H1        1.0  0.26810  0.54880  0.23530  1.0000
  H   H2        1.0  0.23190  0.45120  0.73530  1.0000
  H   H3        1.0  0.73190  0.04880  0.76470  1.0000
  H   H4        1.0  0.76810  0.95120  0.26470  1.0000
  H   H5        1.0  0.73190  0.45120  0.76470  1.0000
  H   H6        1.0  0.76810  0.54880  0.26470  1.0000
  H   H7        1.0  0.26810  0.95120  0.23530  1.0000
  H   H8        1.0  0.23190  0.04880  0.73530  1.0000
  C   C9        1.0  0.49770  0.75000  0.46190  1.0000
  C   C10       1.0  0.00230  0.25000  0.96190  1.0000
  C   C11       1.0  0.50230  0.25000  0.53810  1.0000
  C   C12       1.0  0.99770  0.75000  0.03810  1.0000
  H   H9        1.0  0.52710  0.75000  0.56260  1.0000
  H   H10       1.0  0.97290  0.25000  0.06260  1.0000
  H   H11       1.0  0.47290  0.25000  0.43740  1.0000
  H   H12       1.0  0.02710  0.75000  0.93740  1.0000
