data_image0
_chemical_formula_structural       Mn4O24C8H8C4H4
_chemical_formula_sum              "Mn4 O24 C12 H12"
_cell_length_a       8.7233
_cell_length_b       12.3247
_cell_length_c       8.8668
_cell_angle_alpha    90
_cell_angle_beta     90
_cell_angle_gamma    90

_space_group_name_H-M_alt    "P 1"
_space_group_IT_number       1

loop_
  _space_group_symop_operation_xyz
  'x, y, z'

loop_
  _atom_site_type_symbol
  _atom_site_label
  _atom_site_symmetry_multiplicity
  _atom_site_fract_x
  _atom_site_fract_y
  _atom_site_fract_z
  _atom_site_occupancy
  Mn  Mn1       1.0  0.00000  0.50000  0.50000  1.0000
  Mn  Mn2       1.0  0.50000  0.50000  0.00000  1.0000
  Mn  Mn3       1.0  0.50000  0.00000  0.00000  1.0000
  Mn  Mn4       1.0  0.00000  0.00000  0.50000  1.0000
  O   O1        1.0  0.21560  0.55010  0.39180  1.0000
  O   O2        1.0  0.28440  0.44990  0.89180  1.0000
  O   O3        1.0  0.71560  0.94990  0.10820  1.0000
  O   O4        1.0  0.78440  0.05010  0.60820  1.0000
  O   O5        1.0  0.78440  0.44990  0.60820  1.0000
  O   O6        1.0  0.71560  0.55010  0.10820  1.0000
  O   O7        1.0  0.28440  0.05010  0.89180  1.0000
  O   O8        1.0  0.21560  0.94990  0.39180  1.0000
  O   O9        1.0  0.01780  0.33949  0.40350  1.0000
  O   O10       1.0  0.48220  0.66051  0.90350  1.0000
  O   O11       1.0  0.51780  0.16051  0.09650  1.0000
  O   O12       1.0  0.98220  0.83949  0.59650  1.0000
  O   O13       1.0  0.98220  0.66051  0.59650  1.0000
  O   O14       1.0  0.51780  0.33949  0.09650  1.0000
  O   O15       1.0  0.48220  0.83949  0.90350  1.0000
  O   O16       1.0  0.01780  0.16051  0.40350  1.0000
  O   O17       1.0  0.38270  0.55510  0.20680  1.0000
  O   O18       1.0  0.11730  0.44490  0.70680  1.0000
  O   O19       1.0  0.88270  0.94490  0.29320  1.0000
  O   O20       1.0  0.61730  0.05510  0.79320  1.0000
  O   O21       1.0  0.61730  0.44490  0.79320  1.0000
  O   O22       1.0  0.88270  0.55510  0.29320  1.0000
  O   O23       1.0  0.11730  0.05510  0.70680  1.0000
  O   O24       1.0  0.38270  0.94490  0.20680  1.0000
  C   C1        1.0  0.27400  0.51480  0.27420  1.0000
  C   C2        1.0  0.22600  0.48520  0.77420  1.0000
  C   C3        1.0  0.77400  0.98520  0.22580  1.0000
  C   C4        1.0  0.72600  0.01480  0.72580  1.0000
  C   C5        1.0  0.72600  0.48520  0.72580  1.0000
  C   C6        1.0  0.77400  0.51480  0.22580  1.0000
  C   C7        1.0  0.22600  0.01480  0.77420  1.0000
  C   C8        1.0  0.27400  0.98520  0.27420  1.0000
  H   H1        1.0  0.23220  0.45140  0.23470  1.0000
  H   H2        1.0  0.26780  0.54860  0.73470  1.0000
  H   H3        1.0  0.73220  0.04860  0.26530  1.0000
  H   H4        1.0  0.76780  0.95140  0.76530  1.0000
  H   H5        1.0  0.76780  0.54860  0.76530  1.0000
  H   H6        1.0  0.73220  0.45140  0.26530  1.0000
  H   H7        1.0  0.26780  0.95140  0.73470  1.0000
  H   H8        1.0  0.23220  0.04860  0.23470  1.0000
  C   C9        1.0  0.00380  0.25000  0.46140  1.0000
  C   C10       1.0  0.49620  0.75000  0.96140  1.0000
  C   C11       1.0  0.50380  0.25000  0.03860  1.0000
  C   C12       1.0  0.99620  0.75000  0.53860  1.0000
  H   H9        1.0  0.97220  0.25000  0.56140  1.0000
  H   H10       1.0  0.52780  0.75000  0.06140  1.0000
  H   H11       1.0  0.47220  0.25000  0.93860  1.0000
  H   H12       1.0  0.02780  0.75000  0.43860  1.0000
