data_image0
_chemical_formula_structural       Zn2Cr2O24C12H12
_chemical_formula_sum              "Zn2 Cr2 O24 C12 H12"
_cell_length_a       7.7142
_cell_length_b       7.7142
_cell_length_c       14.6776
_cell_angle_alpha    90
_cell_angle_beta     90
_cell_angle_gamma    120

_space_group_name_H-M_alt    "P 1"
_space_group_IT_number       1

loop_
  _space_group_symop_operation_xyz
  'x, y, z'

loop_
  _atom_site_type_symbol
  _atom_site_label
  _atom_site_symmetry_multiplicity
  _atom_site_fract_x
  _atom_site_fract_y
  _atom_site_fract_z
  _atom_site_occupancy
  Zn  Zn1       1.0  0.66670  0.33330  0.25000  1.0000
  Zn  Zn2       1.0  0.33330  0.66670  0.75000  1.0000
  Cr  Cr1       1.0  0.00000  0.00000  0.50000  1.0000
  Cr  Cr2       1.0  0.00000  0.00000  0.00000  1.0000
  O   O1        1.0  0.19640  0.22280  0.42365  1.0000
  O   O2        1.0  0.77720  0.97360  0.42365  1.0000
  O   O3        1.0  0.02640  0.80360  0.42365  1.0000
  O   O4        1.0  0.77720  0.80360  0.07635  1.0000
  O   O5        1.0  0.02640  0.22280  0.07635  1.0000
  O   O6        1.0  0.19640  0.97360  0.07635  1.0000
  O   O7        1.0  0.80360  0.77720  0.57635  1.0000
  O   O8        1.0  0.22280  0.02640  0.57635  1.0000
  O   O9        1.0  0.97360  0.19640  0.57635  1.0000
  O   O10       1.0  0.22280  0.19640  0.92365  1.0000
  O   O11       1.0  0.97360  0.77720  0.92365  1.0000
  O   O12       1.0  0.80360  0.02640  0.92365  1.0000
  O   O13       1.0  0.45070  0.35380  0.32743  1.0000
  O   O14       1.0  0.64620  0.09690  0.32743  1.0000
  O   O15       1.0  0.90310  0.54930  0.32743  1.0000
  O   O16       1.0  0.64620  0.54930  0.17257  1.0000
  O   O17       1.0  0.90310  0.35380  0.17257  1.0000
  O   O18       1.0  0.45070  0.09690  0.17257  1.0000
  O   O19       1.0  0.54930  0.64620  0.67257  1.0000
  O   O20       1.0  0.35380  0.90310  0.67257  1.0000
  O   O21       1.0  0.09690  0.45070  0.67257  1.0000
  O   O22       1.0  0.35380  0.45070  0.82743  1.0000
  O   O23       1.0  0.09690  0.64620  0.82743  1.0000
  O   O24       1.0  0.54930  0.90310  0.82743  1.0000
  C   C1        1.0  0.33490  0.22080  0.38060  1.0000
  C   C2        1.0  0.77920  0.11410  0.38060  1.0000
  C   C3        1.0  0.88590  0.66510  0.38060  1.0000
  C   C4        1.0  0.77920  0.66510  0.11940  1.0000
  C   C5        1.0  0.88590  0.22080  0.11940  1.0000
  C   C6        1.0  0.33490  0.11410  0.11940  1.0000
  C   C7        1.0  0.66510  0.77920  0.61940  1.0000
  C   C8        1.0  0.22080  0.88590  0.61940  1.0000
  C   C9        1.0  0.11410  0.33490  0.61940  1.0000
  C   C10       1.0  0.22080  0.33490  0.88060  1.0000
  C   C11       1.0  0.11410  0.77920  0.88060  1.0000
  C   C12       1.0  0.66510  0.88590  0.88060  1.0000
  H   H1        1.0  0.35330  0.10890  0.38920  1.0000
  H   H2        1.0  0.89110  0.24440  0.38920  1.0000
  H   H3        1.0  0.75560  0.64670  0.38920  1.0000
  H   H4        1.0  0.89110  0.64670  0.11080  1.0000
  H   H5        1.0  0.75560  0.10890  0.11080  1.0000
  H   H6        1.0  0.35330  0.24440  0.11080  1.0000
  H   H7        1.0  0.64670  0.89110  0.61080  1.0000
  H   H8        1.0  0.10890  0.75560  0.61080  1.0000
  H   H9        1.0  0.24440  0.35330  0.61080  1.0000
  H   H10       1.0  0.10890  0.35330  0.88920  1.0000
  H   H11       1.0  0.24440  0.89110  0.88920  1.0000
  H   H12       1.0  0.64670  0.75560  0.88920  1.0000
