data_image0
_chemical_formula_structural       Zn2O12C12O12H12Cr2
_chemical_formula_sum              "Zn2 O24 C12 H12 Cr2"
_cell_length_a       7.7604
_cell_length_b       7.7604
_cell_length_c       14.6407
_cell_angle_alpha    90
_cell_angle_beta     90
_cell_angle_gamma    120

_space_group_name_H-M_alt    "P 1"
_space_group_IT_number       1

loop_
  _space_group_symop_operation_xyz
  'x, y, z'

loop_
  _atom_site_type_symbol
  _atom_site_label
  _atom_site_symmetry_multiplicity
  _atom_site_fract_x
  _atom_site_fract_y
  _atom_site_fract_z
  _atom_site_occupancy
  Zn  Zn1       1.0  0.66670  0.33330  0.25000  1.0000
  Zn  Zn2       1.0  0.33330  0.66670  0.75000  1.0000
  O   O1        1.0  0.90060  0.54940  0.17166  1.0000
  O   O2        1.0  0.45060  0.35120  0.17166  1.0000
  O   O3        1.0  0.64880  0.09940  0.17166  1.0000
  O   O4        1.0  0.45060  0.09940  0.32834  1.0000
  O   O5        1.0  0.64880  0.54940  0.32834  1.0000
  O   O6        1.0  0.90060  0.35120  0.32834  1.0000
  O   O7        1.0  0.09940  0.45060  0.82834  1.0000
  O   O8        1.0  0.54940  0.64880  0.82834  1.0000
  O   O9        1.0  0.35120  0.90060  0.82834  1.0000
  O   O10       1.0  0.54940  0.90060  0.67166  1.0000
  O   O11       1.0  0.35120  0.45060  0.67166  1.0000
  O   O12       1.0  0.09940  0.64880  0.67166  1.0000
  C   C1        1.0  0.88490  0.66530  0.11990  1.0000
  C   C2        1.0  0.33470  0.21960  0.11990  1.0000
  C   C3        1.0  0.78040  0.11510  0.11990  1.0000
  C   C4        1.0  0.33470  0.11510  0.38010  1.0000
  C   C5        1.0  0.78040  0.66530  0.38010  1.0000
  C   C6        1.0  0.88490  0.21960  0.38010  1.0000
  C   C7        1.0  0.11510  0.33470  0.88010  1.0000
  C   C8        1.0  0.66530  0.78040  0.88010  1.0000
  C   C9        1.0  0.21960  0.88490  0.88010  1.0000
  C   C10       1.0  0.66530  0.88490  0.61990  1.0000
  C   C11       1.0  0.21960  0.33470  0.61990  1.0000
  C   C12       1.0  0.11510  0.78040  0.61990  1.0000
  O   O13       1.0  0.02210  0.80190  0.07672  1.0000
  O   O14       1.0  0.19810  0.22020  0.07672  1.0000
  O   O15       1.0  0.77980  0.97790  0.07672  1.0000
  O   O16       1.0  0.19810  0.97790  0.42328  1.0000
  O   O17       1.0  0.77980  0.80190  0.42328  1.0000
  O   O18       1.0  0.02210  0.22020  0.42328  1.0000
  O   O19       1.0  0.97790  0.19810  0.92328  1.0000
  O   O20       1.0  0.80190  0.77980  0.92328  1.0000
  O   O21       1.0  0.22020  0.02210  0.92328  1.0000
  O   O22       1.0  0.80190  0.02210  0.57672  1.0000
  O   O23       1.0  0.22020  0.19810  0.57672  1.0000
  O   O24       1.0  0.97790  0.77980  0.57672  1.0000
  H   H1        1.0  0.75860  0.64890  0.11260  1.0000
  H   H2        1.0  0.35110  0.10970  0.11260  1.0000
  H   H3        1.0  0.89030  0.24140  0.11260  1.0000
  H   H4        1.0  0.35110  0.24140  0.38740  1.0000
  H   H5        1.0  0.89030  0.64890  0.38740  1.0000
  H   H6        1.0  0.75860  0.10970  0.38740  1.0000
  H   H7        1.0  0.24140  0.35110  0.88740  1.0000
  H   H8        1.0  0.64890  0.89030  0.88740  1.0000
  H   H9        1.0  0.10970  0.75860  0.88740  1.0000
  H   H10       1.0  0.64890  0.75860  0.61260  1.0000
  H   H11       1.0  0.10970  0.35110  0.61260  1.0000
  H   H12       1.0  0.24140  0.89030  0.61260  1.0000
  Cr  Cr1       1.0  0.00000  0.00000  0.00000  1.0000
  Cr  Cr2       1.0  0.00000  0.00000  0.50000  1.0000
