data_image0
_chemical_formula_structural       Zn8C16H16C8H16C32H16C8H16C16H16C8H16C8N16O72N8
_chemical_formula_sum              "Zn8 C96 H96 N24 O72"
_cell_length_a       24.665
_cell_length_b       10.7741
_cell_length_c       16.0097
_cell_angle_alpha    90
_cell_angle_beta     93.126
_cell_angle_gamma    90

_space_group_name_H-M_alt    "P 1"
_space_group_IT_number       1

loop_
  _space_group_symop_operation_xyz
  'x, y, z'

loop_
  _atom_site_type_symbol
  _atom_site_label
  _atom_site_symmetry_multiplicity
  _atom_site_fract_x
  _atom_site_fract_y
  _atom_site_fract_z
  _atom_site_occupancy
  Zn  Zn1       1.0  0.52326  0.73124  0.16670  1.0000
  Zn  Zn2       1.0  0.47674  0.73124  0.33330  1.0000
  Zn  Zn3       1.0  0.02326  0.23124  0.16670  1.0000
  Zn  Zn4       1.0  0.97674  0.23124  0.33330  1.0000
  Zn  Zn5       1.0  0.47674  0.26876  0.83330  1.0000
  Zn  Zn6       1.0  0.52326  0.26876  0.66670  1.0000
  Zn  Zn7       1.0  0.97674  0.76876  0.83330  1.0000
  Zn  Zn8       1.0  0.02326  0.76876  0.66670  1.0000
  C   C1        1.0  0.42911  0.56840  0.19589  1.0000
  C   C2        1.0  0.57089  0.56840  0.30411  1.0000
  C   C3        1.0  0.92911  0.06840  0.19589  1.0000
  C   C4        1.0  0.07089  0.06840  0.30411  1.0000
  C   C5        1.0  0.57089  0.43160  0.80411  1.0000
  C   C6        1.0  0.42911  0.43160  0.69589  1.0000
  C   C7        1.0  0.07089  0.93160  0.80411  1.0000
  C   C8        1.0  0.92911  0.93160  0.69589  1.0000
  C   C9        1.0  0.38504  0.48030  0.16446  1.0000
  C   C10       1.0  0.61496  0.48030  0.33554  1.0000
  C   C11       1.0  0.88504  0.98030  0.16446  1.0000
  C   C12       1.0  0.11496  0.98030  0.33554  1.0000
  C   C13       1.0  0.61496  0.51970  0.83554  1.0000
  C   C14       1.0  0.38504  0.51970  0.66446  1.0000
  C   C15       1.0  0.11496  0.01970  0.83554  1.0000
  C   C16       1.0  0.88504  0.01970  0.66446  1.0000
  H   H1        1.0  0.40200  0.40080  0.14920  1.0000
  H   H2        1.0  0.59800  0.40080  0.35080  1.0000
  H   H3        1.0  0.90200  0.90080  0.14920  1.0000
  H   H4        1.0  0.09800  0.90080  0.35080  1.0000
  H   H5        1.0  0.59800  0.59920  0.85080  1.0000
  H   H6        1.0  0.40200  0.59920  0.64920  1.0000
  H   H7        1.0  0.09800  0.09920  0.85080  1.0000
  H   H8        1.0  0.90200  0.09920  0.64920  1.0000
  H   H9        1.0  0.36700  0.51540  0.11300  1.0000
  H   H10       1.0  0.63300  0.51540  0.38700  1.0000
  H   H11       1.0  0.86700  0.01540  0.11300  1.0000
  H   H12       1.0  0.13300  0.01540  0.38700  1.0000
  H   H13       1.0  0.63300  0.48460  0.88700  1.0000
  H   H14       1.0  0.36700  0.48460  0.61300  1.0000
  H   H15       1.0  0.13300  0.98460  0.88700  1.0000
  H   H16       1.0  0.86700  0.98460  0.61300  1.0000
  C   C17       1.0  0.34174  0.45370  0.22727  1.0000
  C   C18       1.0  0.65826  0.45370  0.27273  1.0000
  C   C19       1.0  0.84174  0.95370  0.22727  1.0000
  C   C20       1.0  0.15826  0.95370  0.27273  1.0000
  C   C21       1.0  0.65826  0.54630  0.77273  1.0000
  C   C22       1.0  0.34174  0.54630  0.72727  1.0000
  C   C23       1.0  0.15826  0.04630  0.77273  1.0000
  C   C24       1.0  0.84174  0.04630  0.72727  1.0000
  H   H17       1.0  0.35920  0.44520  0.28410  1.0000
  H   H18       1.0  0.64080  0.44520  0.21590  1.0000
  H   H19       1.0  0.85920  0.94520  0.28410  1.0000
  H   H20       1.0  0.14080  0.94520  0.21590  1.0000
  H   H21       1.0  0.64080  0.55480  0.71590  1.0000
  H   H22       1.0  0.35920  0.55480  0.78410  1.0000
  H   H23       1.0  0.14080  0.05480  0.71590  1.0000
  H   H24       1.0  0.85920  0.05480  0.78410  1.0000
  H   H25       1.0  0.31580  0.52380  0.22780  1.0000
  H   H26       1.0  0.68420  0.52380  0.27220  1.0000
  H   H27       1.0  0.81580  0.02380  0.22780  1.0000
  H   H28       1.0  0.18420  0.02380  0.27220  1.0000
  H   H29       1.0  0.68420  0.47620  0.77220  1.0000
  H   H30       1.0  0.31580  0.47620  0.72780  1.0000
  H   H31       1.0  0.18420  0.97620  0.77220  1.0000
  H   H32       1.0  0.81580  0.97620  0.72780  1.0000
  C   C25       1.0  0.33718  0.22890  0.22850  1.0000
  C   C26       1.0  0.66282  0.22890  0.27150  1.0000
  C   C27       1.0  0.83718  0.72890  0.22850  1.0000
  C   C28       1.0  0.16282  0.72890  0.27150  1.0000
  C   C29       1.0  0.66282  0.77110  0.77150  1.0000
  C   C30       1.0  0.33718  0.77110  0.72850  1.0000
  C   C31       1.0  0.16282  0.27110  0.77150  1.0000
  C   C32       1.0  0.83718  0.27110  0.72850  1.0000
  C   C33       1.0  0.26699  0.34500  0.15084  1.0000
  C   C34       1.0  0.73301  0.34500  0.34916  1.0000
  C   C35       1.0  0.76699  0.84500  0.15084  1.0000
  C   C36       1.0  0.23301  0.84500  0.34916  1.0000
  C   C37       1.0  0.73301  0.65500  0.84916  1.0000
  C   C38       1.0  0.26699  0.65500  0.65084  1.0000
  C   C39       1.0  0.23301  0.15500  0.84916  1.0000
  C   C40       1.0  0.76699  0.15500  0.65084  1.0000
  C   C41       1.0  0.26741  0.11790  0.14533  1.0000
  C   C42       1.0  0.73259  0.11790  0.35467  1.0000
  C   C43       1.0  0.76741  0.61790  0.14533  1.0000
  C   C44       1.0  0.23259  0.61790  0.35467  1.0000
  C   C45       1.0  0.73259  0.88210  0.85467  1.0000
  C   C46       1.0  0.26741  0.88210  0.64533  1.0000
  C   C47       1.0  0.23259  0.38210  0.85467  1.0000
  C   C48       1.0  0.76741  0.38210  0.64533  1.0000
  C   C49       1.0  0.34145  0.00380  0.22081  1.0000
  C   C50       1.0  0.65855  0.00380  0.27919  1.0000
  C   C51       1.0  0.84145  0.50380  0.22081  1.0000
  C   C52       1.0  0.15855  0.50380  0.27919  1.0000
  C   C53       1.0  0.65855  0.99620  0.77919  1.0000
  C   C54       1.0  0.34145  0.99620  0.72081  1.0000
  C   C55       1.0  0.15855  0.49620  0.77919  1.0000
  C   C56       1.0  0.84145  0.49620  0.72081  1.0000
  H   H33       1.0  0.31550  0.93370  0.21640  1.0000
  H   H34       1.0  0.68450  0.93370  0.28360  1.0000
  H   H35       1.0  0.81550  0.43370  0.21640  1.0000
  H   H36       1.0  0.18450  0.43370  0.28360  1.0000
  H   H37       1.0  0.68450  0.06630  0.78360  1.0000
  H   H38       1.0  0.31550  0.06630  0.71640  1.0000
  H   H39       1.0  0.18450  0.56630  0.78360  1.0000
  H   H40       1.0  0.81550  0.56630  0.71640  1.0000
  H   H41       1.0  0.35700  0.00720  0.27910  1.0000
  H   H42       1.0  0.64300  0.00720  0.22090  1.0000
  H   H43       1.0  0.85700  0.50720  0.27910  1.0000
  H   H44       1.0  0.14300  0.50720  0.22090  1.0000
  H   H45       1.0  0.64300  0.99280  0.72090  1.0000
  H   H46       1.0  0.35700  0.99280  0.77910  1.0000
  H   H47       1.0  0.14300  0.49280  0.72090  1.0000
  H   H48       1.0  0.85700  0.49280  0.77910  1.0000
  C   C57       1.0  0.38669  0.98260  0.16142  1.0000
  C   C58       1.0  0.61331  0.98260  0.33858  1.0000
  C   C59       1.0  0.88669  0.48260  0.16142  1.0000
  C   C60       1.0  0.11331  0.48260  0.33858  1.0000
  C   C61       1.0  0.61331  0.01740  0.83858  1.0000
  C   C62       1.0  0.38669  0.01740  0.66142  1.0000
  C   C63       1.0  0.11331  0.51740  0.83858  1.0000
  C   C64       1.0  0.88669  0.51740  0.66142  1.0000
  H   H49       1.0  0.37050  0.95070  0.10770  1.0000
  H   H50       1.0  0.62950  0.95070  0.39230  1.0000
  H   H51       1.0  0.87050  0.45070  0.10770  1.0000
  H   H52       1.0  0.12950  0.45070  0.39230  1.0000
  H   H53       1.0  0.62950  0.04930  0.89230  1.0000
  H   H54       1.0  0.37050  0.04930  0.60770  1.0000
  H   H55       1.0  0.12950  0.54930  0.89230  1.0000
  H   H56       1.0  0.87050  0.54930  0.60770  1.0000
  H   H57       1.0  0.40390  0.06350  0.15000  1.0000
  H   H58       1.0  0.59610  0.06350  0.35000  1.0000
  H   H59       1.0  0.90390  0.56350  0.15000  1.0000
  H   H60       1.0  0.09610  0.56350  0.35000  1.0000
  H   H61       1.0  0.59610  0.93650  0.85000  1.0000
  H   H62       1.0  0.40390  0.93650  0.65000  1.0000
  H   H63       1.0  0.09610  0.43650  0.85000  1.0000
  H   H64       1.0  0.90390  0.43650  0.65000  1.0000
  C   C65       1.0  0.42994  0.89380  0.19338  1.0000
  C   C66       1.0  0.57006  0.89380  0.30662  1.0000
  C   C67       1.0  0.92994  0.39380  0.19338  1.0000
  C   C68       1.0  0.07006  0.39380  0.30662  1.0000
  C   C69       1.0  0.57006  0.10620  0.80662  1.0000
  C   C70       1.0  0.42994  0.10620  0.69338  1.0000
  C   C71       1.0  0.07006  0.60620  0.80662  1.0000
  C   C72       1.0  0.92994  0.60620  0.69338  1.0000
  C   C73       1.0  0.19994  0.23540  0.05928  1.0000
  C   C74       1.0  0.80006  0.23540  0.44072  1.0000
  C   C75       1.0  0.69994  0.73540  0.05928  1.0000
  C   C76       1.0  0.30006  0.73540  0.44072  1.0000
  C   C77       1.0  0.80006  0.76460  0.94072  1.0000
  C   C78       1.0  0.19994  0.76460  0.55928  1.0000
  C   C79       1.0  0.30006  0.26460  0.94072  1.0000
  C   C80       1.0  0.69994  0.26460  0.55928  1.0000
  H   H65       1.0  0.20320  0.16360  0.02140  1.0000
  H   H66       1.0  0.79680  0.16360  0.47860  1.0000
  H   H67       1.0  0.70320  0.66360  0.02140  1.0000
  H   H68       1.0  0.29680  0.66360  0.47860  1.0000
  H   H69       1.0  0.79680  0.83640  0.97860  1.0000
  H   H70       1.0  0.20320  0.83640  0.52140  1.0000
  H   H71       1.0  0.29680  0.33640  0.97860  1.0000
  H   H72       1.0  0.70320  0.33640  0.52140  1.0000
  H   H73       1.0  0.20270  0.31200  0.02550  1.0000
  H   H74       1.0  0.79730  0.31200  0.47450  1.0000
  H   H75       1.0  0.70270  0.81200  0.02550  1.0000
  H   H76       1.0  0.29730  0.81200  0.47450  1.0000
  H   H77       1.0  0.79730  0.68800  0.97450  1.0000
  H   H78       1.0  0.20270  0.68800  0.52550  1.0000
  H   H79       1.0  0.29730  0.18800  0.97450  1.0000
  H   H80       1.0  0.70270  0.18800  0.52550  1.0000
  C   C81       1.0  0.14488  0.23180  0.09665  1.0000
  C   C82       1.0  0.85512  0.23180  0.40335  1.0000
  C   C83       1.0  0.64488  0.73180  0.09665  1.0000
  C   C84       1.0  0.35512  0.73180  0.40335  1.0000
  C   C85       1.0  0.85512  0.76820  0.90335  1.0000
  C   C86       1.0  0.14488  0.76820  0.59665  1.0000
  C   C87       1.0  0.35512  0.26820  0.90335  1.0000
  C   C88       1.0  0.64488  0.26820  0.59665  1.0000
  H   H81       1.0  0.14090  0.15240  0.12680  1.0000
  H   H82       1.0  0.85910  0.15240  0.37320  1.0000
  H   H83       1.0  0.64090  0.65240  0.12680  1.0000
  H   H84       1.0  0.35910  0.65240  0.37320  1.0000
  H   H85       1.0  0.85910  0.84760  0.87320  1.0000
  H   H86       1.0  0.14090  0.84760  0.62680  1.0000
  H   H87       1.0  0.35910  0.34760  0.87320  1.0000
  H   H88       1.0  0.64090  0.34760  0.62680  1.0000
  H   H89       1.0  0.14240  0.30010  0.13760  1.0000
  H   H90       1.0  0.85760  0.30010  0.36240  1.0000
  H   H91       1.0  0.64240  0.80010  0.13760  1.0000
  H   H92       1.0  0.35760  0.80010  0.36240  1.0000
  H   H93       1.0  0.85760  0.69990  0.86240  1.0000
  H   H94       1.0  0.14240  0.69990  0.63760  1.0000
  H   H95       1.0  0.35760  0.19990  0.86240  1.0000
  H   H96       1.0  0.64240  0.19990  0.63760  1.0000
  C   C89       1.0  0.09939  0.24425  0.02991  1.0000
  C   C90       1.0  0.90061  0.24425  0.47009  1.0000
  C   C91       1.0  0.59939  0.74425  0.02991  1.0000
  C   C92       1.0  0.40061  0.74425  0.47009  1.0000
  C   C93       1.0  0.90061  0.75575  0.97009  1.0000
  C   C94       1.0  0.09939  0.75575  0.52991  1.0000
  C   C95       1.0  0.40061  0.25575  0.97009  1.0000
  C   C96       1.0  0.59939  0.25575  0.52991  1.0000
  N   N1        1.0  0.31258  0.12139  0.20024  1.0000
  N   N2        1.0  0.68742  0.12139  0.29976  1.0000
  N   N3        1.0  0.81258  0.62139  0.20024  1.0000
  N   N4        1.0  0.18742  0.62139  0.29976  1.0000
  N   N5        1.0  0.68742  0.87861  0.79976  1.0000
  N   N6        1.0  0.31258  0.87861  0.70024  1.0000
  N   N7        1.0  0.18742  0.37861  0.79976  1.0000
  N   N8        1.0  0.81258  0.37861  0.70024  1.0000
  N   N9        1.0  0.24523  0.23251  0.12383  1.0000
  N   N10       1.0  0.75477  0.23251  0.37617  1.0000
  N   N11       1.0  0.74523  0.73251  0.12383  1.0000
  N   N12       1.0  0.25477  0.73251  0.37617  1.0000
  N   N13       1.0  0.75477  0.76749  0.87617  1.0000
  N   N14       1.0  0.24523  0.76749  0.62383  1.0000
  N   N15       1.0  0.25477  0.26749  0.87617  1.0000
  N   N16       1.0  0.74523  0.26749  0.62383  1.0000
  O   O1        1.0  0.46164  0.60375  0.14357  1.0000
  O   O2        1.0  0.53836  0.60375  0.35643  1.0000
  O   O3        1.0  0.96164  0.10375  0.14357  1.0000
  O   O4        1.0  0.03836  0.10375  0.35643  1.0000
  O   O5        1.0  0.53836  0.39625  0.85643  1.0000
  O   O6        1.0  0.46164  0.39625  0.64357  1.0000
  O   O7        1.0  0.03836  0.89625  0.85643  1.0000
  O   O8        1.0  0.96164  0.89625  0.64357  1.0000
  O   O9        1.0  0.43138  0.59739  0.27240  1.0000
  O   O10       1.0  0.56862  0.59739  0.22760  1.0000
  O   O11       1.0  0.93138  0.09739  0.27240  1.0000
  O   O12       1.0  0.06862  0.09739  0.22760  1.0000
  O   O13       1.0  0.56862  0.40261  0.72760  1.0000
  O   O14       1.0  0.43138  0.40261  0.77240  1.0000
  O   O15       1.0  0.06862  0.90261  0.72760  1.0000
  O   O16       1.0  0.93138  0.90261  0.77240  1.0000
  O   O17       1.0  0.10910  0.26366  0.95689  1.0000
  O   O18       1.0  0.89090  0.26366  0.54311  1.0000
  O   O19       1.0  0.60910  0.76366  0.95689  1.0000
  O   O20       1.0  0.39090  0.76366  0.54311  1.0000
  O   O21       1.0  0.89090  0.73634  0.04311  1.0000
  O   O22       1.0  0.10910  0.73634  0.45689  1.0000
  O   O23       1.0  0.39090  0.23634  0.04311  1.0000
  O   O24       1.0  0.60910  0.23634  0.45689  1.0000
  O   O25       1.0  0.05059  0.23275  0.05419  1.0000
  O   O26       1.0  0.94941  0.23275  0.44581  1.0000
  O   O27       1.0  0.55059  0.73275  0.05419  1.0000
  O   O28       1.0  0.44941  0.73275  0.44581  1.0000
  O   O29       1.0  0.94941  0.76725  0.94581  1.0000
  O   O30       1.0  0.05059  0.76725  0.55419  1.0000
  O   O31       1.0  0.44941  0.26725  0.94581  1.0000
  O   O32       1.0  0.55059  0.26725  0.55419  1.0000
  O   O33       1.0  0.42987  0.85897  0.26856  1.0000
  O   O34       1.0  0.57013  0.85897  0.23144  1.0000
  O   O35       1.0  0.92987  0.35897  0.26856  1.0000
  O   O36       1.0  0.07013  0.35897  0.23144  1.0000
  O   O37       1.0  0.57013  0.14103  0.73144  1.0000
  O   O38       1.0  0.42987  0.14103  0.76856  1.0000
  O   O39       1.0  0.07013  0.64103  0.73144  1.0000
  O   O40       1.0  0.92987  0.64103  0.76856  1.0000
  O   O41       1.0  0.46443  0.86167  0.14225  1.0000
  O   O42       1.0  0.53557  0.86167  0.35775  1.0000
  O   O43       1.0  0.96443  0.36167  0.14225  1.0000
  O   O44       1.0  0.03557  0.36167  0.35775  1.0000
  O   O45       1.0  0.53557  0.13833  0.85775  1.0000
  O   O46       1.0  0.46443  0.13833  0.64225  1.0000
  O   O47       1.0  0.03557  0.63833  0.85775  1.0000
  O   O48       1.0  0.96443  0.63833  0.64225  1.0000
  O   O49       1.0  0.24698  0.44377  0.12808  1.0000
  O   O50       1.0  0.75302  0.44377  0.37192  1.0000
  O   O51       1.0  0.74698  0.94377  0.12808  1.0000
  O   O52       1.0  0.25302  0.94377  0.37192  1.0000
  O   O53       1.0  0.75302  0.55623  0.87192  1.0000
  O   O54       1.0  0.24698  0.55623  0.62808  1.0000
  O   O55       1.0  0.25302  0.05623  0.87192  1.0000
  O   O56       1.0  0.74698  0.05623  0.62808  1.0000
  O   O57       1.0  0.24832  0.02198  0.11809  1.0000
  O   O58       1.0  0.75168  0.02198  0.38191  1.0000
  O   O59       1.0  0.74832  0.52198  0.11809  1.0000
  O   O60       1.0  0.25168  0.52198  0.38191  1.0000
  O   O61       1.0  0.75168  0.97802  0.88191  1.0000
  O   O62       1.0  0.24832  0.97802  0.61809  1.0000
  O   O63       1.0  0.25168  0.47802  0.88191  1.0000
  O   O64       1.0  0.74832  0.47802  0.61809  1.0000
  O   O65       1.0  0.37879  0.22719  0.27239  1.0000
  O   O66       1.0  0.62121  0.22719  0.22761  1.0000
  O   O67       1.0  0.87879  0.72719  0.27239  1.0000
  O   O68       1.0  0.12121  0.72719  0.22761  1.0000
  O   O69       1.0  0.62121  0.77281  0.72761  1.0000
  O   O70       1.0  0.37879  0.77281  0.77239  1.0000
  O   O71       1.0  0.12121  0.27281  0.72761  1.0000
  O   O72       1.0  0.87879  0.27281  0.77239  1.0000
  N   N17       1.0  0.31235  0.33807  0.20402  1.0000
  N   N18       1.0  0.68765  0.33807  0.29598  1.0000
  N   N19       1.0  0.81235  0.83807  0.20402  1.0000
  N   N20       1.0  0.18765  0.83807  0.29598  1.0000
  N   N21       1.0  0.68765  0.66193  0.79598  1.0000
  N   N22       1.0  0.31235  0.66193  0.70402  1.0000
  N   N23       1.0  0.18765  0.16193  0.79598  1.0000
  N   N24       1.0  0.81235  0.16193  0.70402  1.0000
