data_image0
_chemical_formula_structural       Zn4C8H8C4H8C4H8C4H8C8H8C4H8C16N12O36
_chemical_formula_sum              "Zn4 C48 H48 N12 O36"
_cell_length_a       24.0866
_cell_length_b       4.8855
_cell_length_c       22.2025
_cell_angle_alpha    90
_cell_angle_beta     90
_cell_angle_gamma    90

_space_group_name_H-M_alt    "P 1"
_space_group_IT_number       1

loop_
  _space_group_symop_operation_xyz
  'x, y, z'

loop_
  _atom_site_type_symbol
  _atom_site_label
  _atom_site_symmetry_multiplicity
  _atom_site_fract_x
  _atom_site_fract_y
  _atom_site_fract_z
  _atom_site_occupancy
  Zn  Zn1       1.0  0.62828  0.49310  0.37296  1.0000
  Zn  Zn2       1.0  0.37172  0.50690  0.87296  1.0000
  Zn  Zn3       1.0  0.12828  0.50690  0.37296  1.0000
  Zn  Zn4       1.0  0.87172  0.49310  0.87296  1.0000
  C   C1        1.0  0.60727  0.55690  0.25715  1.0000
  C   C2        1.0  0.39273  0.44310  0.75715  1.0000
  C   C3        1.0  0.10727  0.44310  0.25715  1.0000
  C   C4        1.0  0.89273  0.55690  0.75715  1.0000
  C   C5        1.0  0.61280  0.64150  0.19183  1.0000
  C   C6        1.0  0.38720  0.35850  0.69183  1.0000
  C   C7        1.0  0.11280  0.35850  0.19183  1.0000
  C   C8        1.0  0.88720  0.64150  0.69183  1.0000
  H   H1        1.0  0.65000  0.58920  0.17670  1.0000
  H   H2        1.0  0.35000  0.41080  0.67670  1.0000
  H   H3        1.0  0.15000  0.41080  0.17670  1.0000
  H   H4        1.0  0.85000  0.58920  0.67670  1.0000
  H   H5        1.0  0.60920  0.84280  0.18850  1.0000
  H   H6        1.0  0.39080  0.15720  0.68850  1.0000
  H   H7        1.0  0.10920  0.15720  0.18850  1.0000
  H   H8        1.0  0.89080  0.84280  0.68850  1.0000
  C   C9        1.0  0.56795  0.50310  0.15358  1.0000
  C   C10       1.0  0.43205  0.49690  0.65358  1.0000
  C   C11       1.0  0.06795  0.49690  0.15358  1.0000
  C   C12       1.0  0.93205  0.50310  0.65358  1.0000
  H   H9        1.0  0.57030  0.30200  0.15850  1.0000
  H   H10       1.0  0.42970  0.69800  0.65850  1.0000
  H   H11       1.0  0.07030  0.69800  0.15850  1.0000
  H   H12       1.0  0.92970  0.30200  0.65850  1.0000
  H   H13       1.0  0.53080  0.56290  0.16740  1.0000
  H   H14       1.0  0.46920  0.43710  0.66740  1.0000
  H   H15       1.0  0.03080  0.43710  0.16740  1.0000
  H   H16       1.0  0.96920  0.56290  0.66740  1.0000
  C   C13       1.0  0.66877  0.38520  0.96390  1.0000
  C   C14       1.0  0.33123  0.61480  0.46390  1.0000
  C   C15       1.0  0.16877  0.61480  0.96390  1.0000
  C   C16       1.0  0.83123  0.38520  0.46390  1.0000
  H   H17       1.0  0.65750  0.36240  0.92130  1.0000
  H   H18       1.0  0.34250  0.63760  0.42130  1.0000
  H   H19       1.0  0.15750  0.63760  0.92130  1.0000
  H   H20       1.0  0.84250  0.36240  0.42130  1.0000
  H   H21       1.0  0.67620  0.20130  0.98080  1.0000
  H   H22       1.0  0.32380  0.79870  0.48080  1.0000
  H   H23       1.0  0.17620  0.79870  0.98080  1.0000
  H   H24       1.0  0.82380  0.20130  0.48080  1.0000
  C   C17       1.0  0.72025  0.55290  0.96670  1.0000
  C   C18       1.0  0.27975  0.44710  0.46670  1.0000
  C   C19       1.0  0.22025  0.44710  0.96670  1.0000
  C   C20       1.0  0.77975  0.55290  0.46670  1.0000
  H   H25       1.0  0.73560  0.54290  0.00810  1.0000
  H   H26       1.0  0.26440  0.45710  0.50810  1.0000
  H   H27       1.0  0.23560  0.45710  0.00810  1.0000
  H   H28       1.0  0.76440  0.54290  0.50810  1.0000
  H   H29       1.0  0.71060  0.74640  0.95860  1.0000
  H   H30       1.0  0.28940  0.25360  0.45860  1.0000
  H   H31       1.0  0.21060  0.25360  0.95860  1.0000
  H   H32       1.0  0.78940  0.74640  0.45860  1.0000
  C   C21       1.0  0.76504  0.46320  0.92230  1.0000
  C   C22       1.0  0.23496  0.53680  0.42230  1.0000
  C   C23       1.0  0.26504  0.53680  0.92230  1.0000
  C   C24       1.0  0.73496  0.46320  0.42230  1.0000
  C   C25       1.0  0.51339  0.02430  0.97358  1.0000
  C   C26       1.0  0.48661  0.97570  0.47358  1.0000
  C   C27       1.0  0.01339  0.97570  0.97358  1.0000
  C   C28       1.0  0.98661  0.02430  0.47358  1.0000
  H   H33       1.0  0.53390  0.13750  0.94410  1.0000
  H   H34       1.0  0.46610  0.86250  0.44410  1.0000
  H   H35       1.0  0.03390  0.86250  0.94410  1.0000
  H   H36       1.0  0.96610  0.13750  0.44410  1.0000
  H   H37       1.0  0.49580  0.14790  0.00330  1.0000
  H   H38       1.0  0.50420  0.85210  0.50330  1.0000
  H   H39       1.0  0.99580  0.85210  0.00330  1.0000
  H   H40       1.0  0.00420  0.14790  0.50330  1.0000
  C   C29       1.0  0.46935  0.85680  0.94160  1.0000
  C   C30       1.0  0.53065  0.14320  0.44160  1.0000
  C   C31       1.0  0.96935  0.14320  0.94160  1.0000
  C   C32       1.0  0.03065  0.85680  0.44160  1.0000
  H   H41       1.0  0.48780  0.73490  0.91220  1.0000
  H   H42       1.0  0.51220  0.26510  0.41220  1.0000
  H   H43       1.0  0.98780  0.26510  0.91220  1.0000
  H   H44       1.0  0.01220  0.73490  0.41220  1.0000
  H   H45       1.0  0.45050  0.73930  0.97160  1.0000
  H   H46       1.0  0.54950  0.26070  0.47160  1.0000
  H   H47       1.0  0.95050  0.26070  0.97160  1.0000
  H   H48       1.0  0.04950  0.73930  0.47160  1.0000
  C   C33       1.0  0.42598  0.02460  0.90893  1.0000
  C   C34       1.0  0.57402  0.97540  0.40893  1.0000
  C   C35       1.0  0.92598  0.97540  0.90893  1.0000
  C   C36       1.0  0.07402  0.02460  0.40893  1.0000
  C   C37       1.0  0.59312  0.71000  0.97036  1.0000
  C   C38       1.0  0.40688  0.29000  0.47036  1.0000
  C   C39       1.0  0.09312  0.29000  0.97036  1.0000
  C   C40       1.0  0.90688  0.71000  0.47036  1.0000
  C   C41       1.0  0.54314  0.77980  0.06541  1.0000
  C   C42       1.0  0.45686  0.22020  0.56541  1.0000
  C   C43       1.0  0.04314  0.22020  0.06541  1.0000
  C   C44       1.0  0.95686  0.77980  0.56541  1.0000
  C   C45       1.0  0.61518  0.42780  0.05790  1.0000
  C   C46       1.0  0.38482  0.57220  0.55790  1.0000
  C   C47       1.0  0.11518  0.57220  0.05790  1.0000
  C   C48       1.0  0.88482  0.42780  0.55790  1.0000
  N   N1        1.0  0.57528  0.57490  0.08953  1.0000
  N   N2        1.0  0.42472  0.42510  0.58953  1.0000
  N   N3        1.0  0.07528  0.42510  0.08953  1.0000
  N   N4        1.0  0.92472  0.57490  0.58953  1.0000
  N   N5        1.0  0.62362  0.51400  0.99759  1.0000
  N   N6        1.0  0.37638  0.48600  0.49759  1.0000
  N   N7        1.0  0.12362  0.48600  0.99759  1.0000
  N   N8        1.0  0.87638  0.51400  0.49759  1.0000
  N   N9        1.0  0.55244  0.83370  0.00482  1.0000
  N   N10       1.0  0.44756  0.16630  0.50482  1.0000
  N   N11       1.0  0.05244  0.16630  0.00482  1.0000
  N   N12       1.0  0.94756  0.83370  0.50482  1.0000
  O   O1        1.0  0.65089  0.59170  0.29052  1.0000
  O   O2        1.0  0.34911  0.40830  0.79052  1.0000
  O   O3        1.0  0.15089  0.40830  0.29052  1.0000
  O   O4        1.0  0.84911  0.59170  0.79052  1.0000
  O   O5        1.0  0.56379  0.46970  0.27736  1.0000
  O   O6        1.0  0.43621  0.53030  0.77736  1.0000
  O   O7        1.0  0.06379  0.53030  0.27736  1.0000
  O   O8        1.0  0.93621  0.46970  0.77736  1.0000
  O   O9        1.0  0.81164  0.56460  0.92954  1.0000
  O   O10       1.0  0.18836  0.43540  0.42954  1.0000
  O   O11       1.0  0.31164  0.43540  0.92954  1.0000
  O   O12       1.0  0.68836  0.56460  0.42954  1.0000
  O   O13       1.0  0.75224  0.30190  0.88177  1.0000
  O   O14       1.0  0.24776  0.69810  0.38177  1.0000
  O   O15       1.0  0.25224  0.69810  0.88177  1.0000
  O   O16       1.0  0.74776  0.30190  0.38177  1.0000
  O   O17       1.0  0.43121  0.28110  0.91020  1.0000
  O   O18       1.0  0.56879  0.71890  0.41020  1.0000
  O   O19       1.0  0.93121  0.71890  0.91020  1.0000
  O   O20       1.0  0.06879  0.28110  0.41020  1.0000
  O   O21       1.0  0.38756  0.90410  0.88206  1.0000
  O   O22       1.0  0.61244  0.09590  0.38206  1.0000
  O   O23       1.0  0.88756  0.09590  0.88206  1.0000
  O   O24       1.0  0.11244  0.90410  0.38206  1.0000
  O   O25       1.0  0.64096  0.24230  0.08024  1.0000
  O   O26       1.0  0.35904  0.75770  0.58024  1.0000
  O   O27       1.0  0.14096  0.75770  0.08024  1.0000
  O   O28       1.0  0.85904  0.24230  0.58024  1.0000
  O   O29       1.0  0.60101  0.77440  0.91830  1.0000
  O   O30       1.0  0.39899  0.22560  0.41830  1.0000
  O   O31       1.0  0.10101  0.22560  0.91830  1.0000
  O   O32       1.0  0.89899  0.77440  0.41830  1.0000
  O   O33       1.0  0.50813  0.89890  0.09388  1.0000
  O   O34       1.0  0.49187  0.10110  0.59388  1.0000
  O   O35       1.0  0.00813  0.10110  0.09388  1.0000
  O   O36       1.0  0.99187  0.89890  0.59388  1.0000
