data_image0
_chemical_formula_structural       Zn48O200N96C288H96C96H96C192H96C96H96C96
_chemical_formula_sum              "Zn48 O200 N96 C768 H384"
_cell_length_a       25.6887
_cell_length_b       25.6887
_cell_length_c       25.6887
_cell_angle_alpha    90
_cell_angle_beta     90
_cell_angle_gamma    90

_space_group_name_H-M_alt    "P 1"
_space_group_IT_number       1

loop_
  _space_group_symop_operation_xyz
  'x, y, z'

loop_
  _atom_site_type_symbol
  _atom_site_label
  _atom_site_symmetry_multiplicity
  _atom_site_fract_x
  _atom_site_fract_y
  _atom_site_fract_z
  _atom_site_occupancy
  Zn  Zn1       1.0  0.00000  0.50000  0.00000  1.0000
  Zn  Zn2       1.0  0.25000  0.75000  0.00000  1.0000
  Zn  Zn3       1.0  0.25000  0.50000  0.25000  1.0000
  Zn  Zn4       1.0  0.00000  0.75000  0.25000  1.0000
  Zn  Zn5       1.0  0.00000  0.00000  0.50000  1.0000
  Zn  Zn6       1.0  0.00000  0.25000  0.75000  1.0000
  Zn  Zn7       1.0  0.25000  0.25000  0.50000  1.0000
  Zn  Zn8       1.0  0.25000  0.00000  0.75000  1.0000
  Zn  Zn9       1.0  0.50000  0.00000  0.00000  1.0000
  Zn  Zn10      1.0  0.75000  0.00000  0.25000  1.0000
  Zn  Zn11      1.0  0.50000  0.25000  0.25000  1.0000
  Zn  Zn12      1.0  0.75000  0.25000  0.00000  1.0000
  Zn  Zn13      1.0  0.50000  0.50000  0.50000  1.0000
  Zn  Zn14      1.0  0.75000  0.50000  0.75000  1.0000
  Zn  Zn15      1.0  0.50000  0.75000  0.75000  1.0000
  Zn  Zn16      1.0  0.75000  0.75000  0.50000  1.0000
  Zn  Zn17      1.0  0.07855  0.57855  0.07855  1.0000
  Zn  Zn18      1.0  0.17145  0.67145  0.07855  1.0000
  Zn  Zn19      1.0  0.17145  0.57855  0.17145  1.0000
  Zn  Zn20      1.0  0.07855  0.67145  0.17145  1.0000
  Zn  Zn21      1.0  0.07855  0.07855  0.57855  1.0000
  Zn  Zn22      1.0  0.07855  0.17145  0.67145  1.0000
  Zn  Zn23      1.0  0.17145  0.17145  0.57855  1.0000
  Zn  Zn24      1.0  0.17145  0.07855  0.67145  1.0000
  Zn  Zn25      1.0  0.57855  0.07855  0.07855  1.0000
  Zn  Zn26      1.0  0.67145  0.07855  0.17145  1.0000
  Zn  Zn27      1.0  0.57855  0.17145  0.17145  1.0000
  Zn  Zn28      1.0  0.67145  0.17145  0.07855  1.0000
  Zn  Zn29      1.0  0.57855  0.57855  0.57855  1.0000
  Zn  Zn30      1.0  0.67145  0.57855  0.67145  1.0000
  Zn  Zn31      1.0  0.57855  0.67145  0.67145  1.0000
  Zn  Zn32      1.0  0.67145  0.67145  0.57855  1.0000
  Zn  Zn33      1.0  0.92145  0.42145  0.92145  1.0000
  Zn  Zn34      1.0  0.82855  0.32855  0.92145  1.0000
  Zn  Zn35      1.0  0.82855  0.42145  0.82855  1.0000
  Zn  Zn36      1.0  0.92145  0.32855  0.82855  1.0000
  Zn  Zn37      1.0  0.92145  0.92145  0.42145  1.0000
  Zn  Zn38      1.0  0.92145  0.82855  0.32855  1.0000
  Zn  Zn39      1.0  0.82855  0.82855  0.42145  1.0000
  Zn  Zn40      1.0  0.82855  0.92145  0.32855  1.0000
  Zn  Zn41      1.0  0.42145  0.92145  0.92145  1.0000
  Zn  Zn42      1.0  0.32855  0.92145  0.82855  1.0000
  Zn  Zn43      1.0  0.42145  0.82855  0.82855  1.0000
  Zn  Zn44      1.0  0.32855  0.82855  0.92145  1.0000
  Zn  Zn45      1.0  0.42145  0.42145  0.42145  1.0000
  Zn  Zn46      1.0  0.32855  0.42145  0.32855  1.0000
  Zn  Zn47      1.0  0.42145  0.32855  0.32855  1.0000
  Zn  Zn48      1.0  0.32855  0.32855  0.42145  1.0000
  O   O1        1.0  0.12500  0.62500  0.12500  1.0000
  O   O2        1.0  0.12500  0.12500  0.62500  1.0000
  O   O3        1.0  0.62500  0.12500  0.12500  1.0000
  O   O4        1.0  0.62500  0.62500  0.62500  1.0000
  O   O5        1.0  0.87500  0.37500  0.87500  1.0000
  O   O6        1.0  0.87500  0.87500  0.37500  1.0000
  O   O7        1.0  0.37500  0.87500  0.87500  1.0000
  O   O8        1.0  0.37500  0.37500  0.37500  1.0000
  O   O9        1.0  0.06349  0.52018  0.12489  1.0000
  O   O10       1.0  0.18651  0.72982  0.12489  1.0000
  O   O11       1.0  0.18651  0.52018  0.12511  1.0000
  O   O12       1.0  0.06349  0.72982  0.12511  1.0000
  O   O13       1.0  0.12489  0.06349  0.52018  1.0000
  O   O14       1.0  0.12489  0.18651  0.72982  1.0000
  O   O15       1.0  0.12511  0.18651  0.52018  1.0000
  O   O16       1.0  0.12511  0.06349  0.72982  1.0000
  O   O17       1.0  0.52018  0.12489  0.06349  1.0000
  O   O18       1.0  0.72982  0.12489  0.18651  1.0000
  O   O19       1.0  0.52018  0.12511  0.18651  1.0000
  O   O20       1.0  0.72982  0.12511  0.06349  1.0000
  O   O21       1.0  0.06349  0.02018  0.62489  1.0000
  O   O22       1.0  0.12489  0.56349  0.02018  1.0000
  O   O23       1.0  0.52018  0.62489  0.56349  1.0000
  O   O24       1.0  0.56349  0.52018  0.62489  1.0000
  O   O25       1.0  0.62489  0.06349  0.02018  1.0000
  O   O26       1.0  0.02018  0.12489  0.56349  1.0000
  O   O27       1.0  0.56349  0.02018  0.12489  1.0000
  O   O28       1.0  0.62489  0.56349  0.52018  1.0000
  O   O29       1.0  0.02018  0.62489  0.06349  1.0000
  O   O30       1.0  0.18651  0.22982  0.62489  1.0000
  O   O31       1.0  0.18651  0.02018  0.62511  1.0000
  O   O32       1.0  0.06349  0.22982  0.62511  1.0000
  O   O33       1.0  0.12489  0.68651  0.22982  1.0000
  O   O34       1.0  0.12511  0.68651  0.02018  1.0000
  O   O35       1.0  0.12511  0.56349  0.22982  1.0000
  O   O36       1.0  0.72982  0.62489  0.68651  1.0000
  O   O37       1.0  0.52018  0.62511  0.68651  1.0000
  O   O38       1.0  0.72982  0.62511  0.56349  1.0000
  O   O39       1.0  0.68651  0.72982  0.62489  1.0000
  O   O40       1.0  0.68651  0.52018  0.62511  1.0000
  O   O41       1.0  0.56349  0.72982  0.62511  1.0000
  O   O42       1.0  0.62489  0.18651  0.22982  1.0000
  O   O43       1.0  0.62511  0.18651  0.02018  1.0000
  O   O44       1.0  0.62511  0.06349  0.22982  1.0000
  O   O45       1.0  0.22982  0.12489  0.68651  1.0000
  O   O46       1.0  0.02018  0.12511  0.68651  1.0000
  O   O47       1.0  0.22982  0.12511  0.56349  1.0000
  O   O48       1.0  0.68651  0.22982  0.12489  1.0000
  O   O49       1.0  0.68651  0.02018  0.12511  1.0000
  O   O50       1.0  0.56349  0.22982  0.12511  1.0000
  O   O51       1.0  0.62489  0.68651  0.72982  1.0000
  O   O52       1.0  0.62511  0.68651  0.52018  1.0000
  O   O53       1.0  0.62511  0.56349  0.72982  1.0000
  O   O54       1.0  0.22982  0.62489  0.18651  1.0000
  O   O55       1.0  0.02018  0.62511  0.18651  1.0000
  O   O56       1.0  0.22982  0.62511  0.06349  1.0000
  O   O57       1.0  0.93651  0.47982  0.87511  1.0000
  O   O58       1.0  0.81349  0.27018  0.87511  1.0000
  O   O59       1.0  0.81349  0.47982  0.87489  1.0000
  O   O60       1.0  0.93651  0.27018  0.87489  1.0000
  O   O61       1.0  0.87511  0.93651  0.47982  1.0000
  O   O62       1.0  0.87511  0.81349  0.27018  1.0000
  O   O63       1.0  0.87489  0.81349  0.47982  1.0000
  O   O64       1.0  0.87489  0.93651  0.27018  1.0000
  O   O65       1.0  0.47982  0.87511  0.93651  1.0000
  O   O66       1.0  0.27018  0.87511  0.81349  1.0000
  O   O67       1.0  0.47982  0.87489  0.81349  1.0000
  O   O68       1.0  0.27018  0.87489  0.93651  1.0000
  O   O69       1.0  0.93651  0.97982  0.37511  1.0000
  O   O70       1.0  0.87511  0.43651  0.97982  1.0000
  O   O71       1.0  0.47982  0.37511  0.43651  1.0000
  O   O72       1.0  0.43651  0.47982  0.37511  1.0000
  O   O73       1.0  0.37511  0.93651  0.97982  1.0000
  O   O74       1.0  0.97982  0.87511  0.43651  1.0000
  O   O75       1.0  0.43651  0.97982  0.87511  1.0000
  O   O76       1.0  0.37511  0.43651  0.47982  1.0000
  O   O77       1.0  0.97982  0.37511  0.93651  1.0000
  O   O78       1.0  0.81349  0.77018  0.37511  1.0000
  O   O79       1.0  0.81349  0.97982  0.37489  1.0000
  O   O80       1.0  0.93651  0.77018  0.37489  1.0000
  O   O81       1.0  0.87511  0.31349  0.77018  1.0000
  O   O82       1.0  0.87489  0.31349  0.97982  1.0000
  O   O83       1.0  0.87489  0.43651  0.77018  1.0000
  O   O84       1.0  0.27018  0.37511  0.31349  1.0000
  O   O85       1.0  0.47982  0.37489  0.31349  1.0000
  O   O86       1.0  0.27018  0.37489  0.43651  1.0000
  O   O87       1.0  0.31349  0.27018  0.37511  1.0000
  O   O88       1.0  0.31349  0.47982  0.37489  1.0000
  O   O89       1.0  0.43651  0.27018  0.37489  1.0000
  O   O90       1.0  0.37511  0.81349  0.77018  1.0000
  O   O91       1.0  0.37489  0.81349  0.97982  1.0000
  O   O92       1.0  0.37489  0.93651  0.77018  1.0000
  O   O93       1.0  0.77018  0.87511  0.31349  1.0000
  O   O94       1.0  0.97982  0.87489  0.31349  1.0000
  O   O95       1.0  0.77018  0.87489  0.43651  1.0000
  O   O96       1.0  0.31349  0.77018  0.87511  1.0000
  O   O97       1.0  0.31349  0.97982  0.87489  1.0000
  O   O98       1.0  0.43651  0.77018  0.87489  1.0000
  O   O99       1.0  0.37511  0.31349  0.27018  1.0000
  O   O100      1.0  0.37489  0.31349  0.47982  1.0000
  O   O101      1.0  0.37489  0.43651  0.27018  1.0000
  O   O102      1.0  0.77018  0.37511  0.81349  1.0000
  O   O103      1.0  0.97982  0.37489  0.81349  1.0000
  O   O104      1.0  0.77018  0.37489  0.93651  1.0000
  O   O105      1.0  0.99174  0.50335  0.07996  1.0000
  O   O106      1.0  0.25826  0.74665  0.07996  1.0000
  O   O107      1.0  0.25826  0.50335  0.17004  1.0000
  O   O108      1.0  0.99174  0.74665  0.17004  1.0000
  O   O109      1.0  0.07996  0.99174  0.50335  1.0000
  O   O110      1.0  0.07996  0.25826  0.74665  1.0000
  O   O111      1.0  0.17004  0.25826  0.50335  1.0000
  O   O112      1.0  0.17004  0.99174  0.74665  1.0000
  O   O113      1.0  0.50335  0.07996  0.99174  1.0000
  O   O114      1.0  0.74665  0.07996  0.25826  1.0000
  O   O115      1.0  0.50335  0.17004  0.25826  1.0000
  O   O116      1.0  0.74665  0.17004  0.99174  1.0000
  O   O117      1.0  0.99174  0.00335  0.57996  1.0000
  O   O118      1.0  0.07996  0.49174  0.00335  1.0000
  O   O119      1.0  0.50335  0.57996  0.49174  1.0000
  O   O120      1.0  0.49174  0.50335  0.57996  1.0000
  O   O121      1.0  0.57996  0.99174  0.00335  1.0000
  O   O122      1.0  0.00335  0.07996  0.49174  1.0000
  O   O123      1.0  0.49174  0.00335  0.07996  1.0000
  O   O124      1.0  0.57996  0.49174  0.50335  1.0000
  O   O125      1.0  0.00335  0.57996  0.99174  1.0000
  O   O126      1.0  0.25826  0.24665  0.57996  1.0000
  O   O127      1.0  0.25826  0.00335  0.67004  1.0000
  O   O128      1.0  0.99174  0.24665  0.67004  1.0000
  O   O129      1.0  0.07996  0.75826  0.24665  1.0000
  O   O130      1.0  0.17004  0.75826  0.00335  1.0000
  O   O131      1.0  0.17004  0.49174  0.24665  1.0000
  O   O132      1.0  0.74665  0.57996  0.75826  1.0000
  O   O133      1.0  0.50335  0.67004  0.75826  1.0000
  O   O134      1.0  0.74665  0.67004  0.49174  1.0000
  O   O135      1.0  0.75826  0.74665  0.57996  1.0000
  O   O136      1.0  0.75826  0.50335  0.67004  1.0000
  O   O137      1.0  0.49174  0.74665  0.67004  1.0000
  O   O138      1.0  0.57996  0.25826  0.24665  1.0000
  O   O139      1.0  0.67004  0.25826  0.00335  1.0000
  O   O140      1.0  0.67004  0.99174  0.24665  1.0000
  O   O141      1.0  0.24665  0.07996  0.75826  1.0000
  O   O142      1.0  0.00335  0.17004  0.75826  1.0000
  O   O143      1.0  0.24665  0.17004  0.49174  1.0000
  O   O144      1.0  0.75826  0.24665  0.07996  1.0000
  O   O145      1.0  0.75826  0.00335  0.17004  1.0000
  O   O146      1.0  0.49174  0.24665  0.17004  1.0000
  O   O147      1.0  0.57996  0.75826  0.74665  1.0000
  O   O148      1.0  0.67004  0.75826  0.50335  1.0000
  O   O149      1.0  0.67004  0.49174  0.74665  1.0000
  O   O150      1.0  0.24665  0.57996  0.25826  1.0000
  O   O151      1.0  0.00335  0.67004  0.25826  1.0000
  O   O152      1.0  0.24665  0.67004  0.99174  1.0000
  O   O153      1.0  0.00826  0.49665  0.92004  1.0000
  O   O154      1.0  0.74174  0.25335  0.92004  1.0000
  O   O155      1.0  0.74174  0.49665  0.82996  1.0000
  O   O156      1.0  0.00826  0.25335  0.82996  1.0000
  O   O157      1.0  0.92004  0.00826  0.49665  1.0000
  O   O158      1.0  0.92004  0.74174  0.25335  1.0000
  O   O159      1.0  0.82996  0.74174  0.49665  1.0000
  O   O160      1.0  0.82996  0.00826  0.25335  1.0000
  O   O161      1.0  0.49665  0.92004  0.00826  1.0000
  O   O162      1.0  0.25335  0.92004  0.74174  1.0000
  O   O163      1.0  0.49665  0.82996  0.74174  1.0000
  O   O164      1.0  0.25335  0.82996  0.00826  1.0000
  O   O165      1.0  0.00826  0.99665  0.42004  1.0000
  O   O166      1.0  0.92004  0.50826  0.99665  1.0000
  O   O167      1.0  0.49665  0.42004  0.50826  1.0000
  O   O168      1.0  0.50826  0.49665  0.42004  1.0000
  O   O169      1.0  0.42004  0.00826  0.99665  1.0000
  O   O170      1.0  0.99665  0.92004  0.50826  1.0000
  O   O171      1.0  0.50826  0.99665  0.92004  1.0000
  O   O172      1.0  0.42004  0.50826  0.49665  1.0000
  O   O173      1.0  0.99665  0.42004  0.00826  1.0000
  O   O174      1.0  0.74174  0.75335  0.42004  1.0000
  O   O175      1.0  0.74174  0.99665  0.32996  1.0000
  O   O176      1.0  0.00826  0.75335  0.32996  1.0000
  O   O177      1.0  0.92004  0.24174  0.75335  1.0000
  O   O178      1.0  0.82996  0.24174  0.99665  1.0000
  O   O179      1.0  0.82996  0.50826  0.75335  1.0000
  O   O180      1.0  0.25335  0.42004  0.24174  1.0000
  O   O181      1.0  0.49665  0.32996  0.24174  1.0000
  O   O182      1.0  0.25335  0.32996  0.50826  1.0000
  O   O183      1.0  0.24174  0.25335  0.42004  1.0000
  O   O184      1.0  0.24174  0.49665  0.32996  1.0000
  O   O185      1.0  0.50826  0.25335  0.32996  1.0000
  O   O186      1.0  0.42004  0.74174  0.75335  1.0000
  O   O187      1.0  0.32996  0.74174  0.99665  1.0000
  O   O188      1.0  0.32996  0.00826  0.75335  1.0000
  O   O189      1.0  0.75335  0.92004  0.24174  1.0000
  O   O190      1.0  0.99665  0.82996  0.24174  1.0000
  O   O191      1.0  0.75335  0.82996  0.50826  1.0000
  O   O192      1.0  0.24174  0.75335  0.92004  1.0000
  O   O193      1.0  0.24174  0.99665  0.82996  1.0000
  O   O194      1.0  0.50826  0.75335  0.82996  1.0000
  O   O195      1.0  0.42004  0.24174  0.25335  1.0000
  O   O196      1.0  0.32996  0.24174  0.49665  1.0000
  O   O197      1.0  0.32996  0.50826  0.25335  1.0000
  O   O198      1.0  0.75335  0.42004  0.74174  1.0000
  O   O199      1.0  0.99665  0.32996  0.74174  1.0000
  O   O200      1.0  0.75335  0.32996  0.00826  1.0000
  N   N1        1.0  0.00454  0.31874  0.29718  1.0000
  N   N2        1.0  0.24546  0.93126  0.29718  1.0000
  N   N3        1.0  0.24546  0.31874  0.95282  1.0000
  N   N4        1.0  0.00454  0.93126  0.95282  1.0000
  N   N5        1.0  0.29718  0.00454  0.31874  1.0000
  N   N6        1.0  0.29718  0.24546  0.93126  1.0000
  N   N7        1.0  0.95282  0.24546  0.31874  1.0000
  N   N8        1.0  0.95282  0.00454  0.93126  1.0000
  N   N9        1.0  0.31874  0.29718  0.00454  1.0000
  N   N10       1.0  0.93126  0.29718  0.24546  1.0000
  N   N11       1.0  0.31874  0.95282  0.24546  1.0000
  N   N12       1.0  0.93126  0.95282  0.00454  1.0000
  N   N13       1.0  0.00454  0.81874  0.79718  1.0000
  N   N14       1.0  0.29718  0.50454  0.81874  1.0000
  N   N15       1.0  0.31874  0.79718  0.50454  1.0000
  N   N16       1.0  0.50454  0.31874  0.79718  1.0000
  N   N17       1.0  0.79718  0.00454  0.81874  1.0000
  N   N18       1.0  0.81874  0.29718  0.50454  1.0000
  N   N19       1.0  0.50454  0.81874  0.29718  1.0000
  N   N20       1.0  0.79718  0.50454  0.31874  1.0000
  N   N21       1.0  0.81874  0.79718  0.00454  1.0000
  N   N22       1.0  0.24546  0.43126  0.79718  1.0000
  N   N23       1.0  0.24546  0.81874  0.45282  1.0000
  N   N24       1.0  0.00454  0.43126  0.45282  1.0000
  N   N25       1.0  0.29718  0.74546  0.43126  1.0000
  N   N26       1.0  0.95282  0.74546  0.81874  1.0000
  N   N27       1.0  0.95282  0.50454  0.43126  1.0000
  N   N28       1.0  0.93126  0.79718  0.74546  1.0000
  N   N29       1.0  0.31874  0.45282  0.74546  1.0000
  N   N30       1.0  0.93126  0.45282  0.50454  1.0000
  N   N31       1.0  0.74546  0.93126  0.79718  1.0000
  N   N32       1.0  0.74546  0.31874  0.45282  1.0000
  N   N33       1.0  0.50454  0.93126  0.45282  1.0000
  N   N34       1.0  0.79718  0.24546  0.43126  1.0000
  N   N35       1.0  0.45282  0.24546  0.81874  1.0000
  N   N36       1.0  0.45282  0.00454  0.43126  1.0000
  N   N37       1.0  0.43126  0.29718  0.74546  1.0000
  N   N38       1.0  0.81874  0.95282  0.74546  1.0000
  N   N39       1.0  0.43126  0.95282  0.50454  1.0000
  N   N40       1.0  0.74546  0.43126  0.29718  1.0000
  N   N41       1.0  0.74546  0.81874  0.95282  1.0000
  N   N42       1.0  0.50454  0.43126  0.95282  1.0000
  N   N43       1.0  0.79718  0.74546  0.93126  1.0000
  N   N44       1.0  0.45282  0.74546  0.31874  1.0000
  N   N45       1.0  0.45282  0.50454  0.93126  1.0000
  N   N46       1.0  0.43126  0.79718  0.24546  1.0000
  N   N47       1.0  0.81874  0.45282  0.24546  1.0000
  N   N48       1.0  0.43126  0.45282  0.00454  1.0000
  N   N49       1.0  0.99546  0.68126  0.70282  1.0000
  N   N50       1.0  0.75454  0.06874  0.70282  1.0000
  N   N51       1.0  0.75454  0.68126  0.04718  1.0000
  N   N52       1.0  0.99546  0.06874  0.04718  1.0000
  N   N53       1.0  0.70282  0.99546  0.68126  1.0000
  N   N54       1.0  0.70282  0.75454  0.06874  1.0000
  N   N55       1.0  0.04718  0.75454  0.68126  1.0000
  N   N56       1.0  0.04718  0.99546  0.06874  1.0000
  N   N57       1.0  0.68126  0.70282  0.99546  1.0000
  N   N58       1.0  0.06874  0.70282  0.75454  1.0000
  N   N59       1.0  0.68126  0.04718  0.75454  1.0000
  N   N60       1.0  0.06874  0.04718  0.99546  1.0000
  N   N61       1.0  0.99546  0.18126  0.20282  1.0000
  N   N62       1.0  0.70282  0.49546  0.18126  1.0000
  N   N63       1.0  0.68126  0.20282  0.49546  1.0000
  N   N64       1.0  0.49546  0.68126  0.20282  1.0000
  N   N65       1.0  0.20282  0.99546  0.18126  1.0000
  N   N66       1.0  0.18126  0.70282  0.49546  1.0000
  N   N67       1.0  0.49546  0.18126  0.70282  1.0000
  N   N68       1.0  0.20282  0.49546  0.68126  1.0000
  N   N69       1.0  0.18126  0.20282  0.99546  1.0000
  N   N70       1.0  0.75454  0.56874  0.20282  1.0000
  N   N71       1.0  0.75454  0.18126  0.54718  1.0000
  N   N72       1.0  0.99546  0.56874  0.54718  1.0000
  N   N73       1.0  0.70282  0.25454  0.56874  1.0000
  N   N74       1.0  0.04718  0.25454  0.18126  1.0000
  N   N75       1.0  0.04718  0.49546  0.56874  1.0000
  N   N76       1.0  0.06874  0.20282  0.25454  1.0000
  N   N77       1.0  0.68126  0.54718  0.25454  1.0000
  N   N78       1.0  0.06874  0.54718  0.49546  1.0000
  N   N79       1.0  0.25454  0.06874  0.20282  1.0000
  N   N80       1.0  0.25454  0.68126  0.54718  1.0000
  N   N81       1.0  0.49546  0.06874  0.54718  1.0000
  N   N82       1.0  0.20282  0.75454  0.56874  1.0000
  N   N83       1.0  0.54718  0.75454  0.18126  1.0000
  N   N84       1.0  0.54718  0.99546  0.56874  1.0000
  N   N85       1.0  0.56874  0.70282  0.25454  1.0000
  N   N86       1.0  0.18126  0.04718  0.25454  1.0000
  N   N87       1.0  0.56874  0.04718  0.49546  1.0000
  N   N88       1.0  0.25454  0.56874  0.70282  1.0000
  N   N89       1.0  0.25454  0.18126  0.04718  1.0000
  N   N90       1.0  0.49546  0.56874  0.04718  1.0000
  N   N91       1.0  0.20282  0.25454  0.06874  1.0000
  N   N92       1.0  0.54718  0.25454  0.68126  1.0000
  N   N93       1.0  0.54718  0.49546  0.06874  1.0000
  N   N94       1.0  0.56874  0.20282  0.75454  1.0000
  N   N95       1.0  0.18126  0.54718  0.75454  1.0000
  N   N96       1.0  0.56874  0.54718  0.99546  1.0000
  C   C1        1.0  0.02260  0.49410  0.11550  1.0000
  C   C2        1.0  0.22740  0.75590  0.11550  1.0000
  C   C3        1.0  0.22740  0.49410  0.13450  1.0000
  C   C4        1.0  0.02260  0.75590  0.13450  1.0000
  C   C5        1.0  0.11550  0.02260  0.49410  1.0000
  C   C6        1.0  0.11550  0.22740  0.75590  1.0000
  C   C7        1.0  0.13450  0.22740  0.49410  1.0000
  C   C8        1.0  0.13450  0.02260  0.75590  1.0000
  C   C9        1.0  0.49410  0.11550  0.02260  1.0000
  C   C10       1.0  0.75590  0.11550  0.22740  1.0000
  C   C11       1.0  0.49410  0.13450  0.22740  1.0000
  C   C12       1.0  0.75590  0.13450  0.02260  1.0000
  C   C13       1.0  0.02260  0.99410  0.61550  1.0000
  C   C14       1.0  0.11550  0.52260  0.99410  1.0000
  C   C15       1.0  0.49410  0.61550  0.52260  1.0000
  C   C16       1.0  0.52260  0.49410  0.61550  1.0000
  C   C17       1.0  0.61550  0.02260  0.99410  1.0000
  C   C18       1.0  0.99410  0.11550  0.52260  1.0000
  C   C19       1.0  0.52260  0.99410  0.11550  1.0000
  C   C20       1.0  0.61550  0.52260  0.49410  1.0000
  C   C21       1.0  0.99410  0.61550  0.02260  1.0000
  C   C22       1.0  0.22740  0.25590  0.61550  1.0000
  C   C23       1.0  0.22740  0.99410  0.63450  1.0000
  C   C24       1.0  0.02260  0.25590  0.63450  1.0000
  C   C25       1.0  0.11550  0.72740  0.25590  1.0000
  C   C26       1.0  0.13450  0.72740  0.99410  1.0000
  C   C27       1.0  0.13450  0.52260  0.25590  1.0000
  C   C28       1.0  0.75590  0.61550  0.72740  1.0000
  C   C29       1.0  0.49410  0.63450  0.72740  1.0000
  C   C30       1.0  0.75590  0.63450  0.52260  1.0000
  C   C31       1.0  0.72740  0.75590  0.61550  1.0000
  C   C32       1.0  0.72740  0.49410  0.63450  1.0000
  C   C33       1.0  0.52260  0.75590  0.63450  1.0000
  C   C34       1.0  0.61550  0.22740  0.25590  1.0000
  C   C35       1.0  0.63450  0.22740  0.99410  1.0000
  C   C36       1.0  0.63450  0.02260  0.25590  1.0000
  C   C37       1.0  0.25590  0.11550  0.72740  1.0000
  C   C38       1.0  0.99410  0.13450  0.72740  1.0000
  C   C39       1.0  0.25590  0.13450  0.52260  1.0000
  C   C40       1.0  0.72740  0.25590  0.11550  1.0000
  C   C41       1.0  0.72740  0.99410  0.13450  1.0000
  C   C42       1.0  0.52260  0.25590  0.13450  1.0000
  C   C43       1.0  0.61550  0.72740  0.75590  1.0000
  C   C44       1.0  0.63450  0.72740  0.49410  1.0000
  C   C45       1.0  0.63450  0.52260  0.75590  1.0000
  C   C46       1.0  0.25590  0.61550  0.22740  1.0000
  C   C47       1.0  0.99410  0.63450  0.22740  1.0000
  C   C48       1.0  0.25590  0.63450  0.02260  1.0000
  C   C49       1.0  0.97740  0.50590  0.88450  1.0000
  C   C50       1.0  0.77260  0.24410  0.88450  1.0000
  C   C51       1.0  0.77260  0.50590  0.86550  1.0000
  C   C52       1.0  0.97740  0.24410  0.86550  1.0000
  C   C53       1.0  0.88450  0.97740  0.50590  1.0000
  C   C54       1.0  0.88450  0.77260  0.24410  1.0000
  C   C55       1.0  0.86550  0.77260  0.50590  1.0000
  C   C56       1.0  0.86550  0.97740  0.24410  1.0000
  C   C57       1.0  0.50590  0.88450  0.97740  1.0000
  C   C58       1.0  0.24410  0.88450  0.77260  1.0000
  C   C59       1.0  0.50590  0.86550  0.77260  1.0000
  C   C60       1.0  0.24410  0.86550  0.97740  1.0000
  C   C61       1.0  0.97740  0.00590  0.38450  1.0000
  C   C62       1.0  0.88450  0.47740  0.00590  1.0000
  C   C63       1.0  0.50590  0.38450  0.47740  1.0000
  C   C64       1.0  0.47740  0.50590  0.38450  1.0000
  C   C65       1.0  0.38450  0.97740  0.00590  1.0000
  C   C66       1.0  0.00590  0.88450  0.47740  1.0000
  C   C67       1.0  0.47740  0.00590  0.88450  1.0000
  C   C68       1.0  0.38450  0.47740  0.50590  1.0000
  C   C69       1.0  0.00590  0.38450  0.97740  1.0000
  C   C70       1.0  0.77260  0.74410  0.38450  1.0000
  C   C71       1.0  0.77260  0.00590  0.36550  1.0000
  C   C72       1.0  0.97740  0.74410  0.36550  1.0000
  C   C73       1.0  0.88450  0.27260  0.74410  1.0000
  C   C74       1.0  0.86550  0.27260  0.00590  1.0000
  C   C75       1.0  0.86550  0.47740  0.74410  1.0000
  C   C76       1.0  0.24410  0.38450  0.27260  1.0000
  C   C77       1.0  0.50590  0.36550  0.27260  1.0000
  C   C78       1.0  0.24410  0.36550  0.47740  1.0000
  C   C79       1.0  0.27260  0.24410  0.38450  1.0000
  C   C80       1.0  0.27260  0.50590  0.36550  1.0000
  C   C81       1.0  0.47740  0.24410  0.36550  1.0000
  C   C82       1.0  0.38450  0.77260  0.74410  1.0000
  C   C83       1.0  0.36550  0.77260  0.00590  1.0000
  C   C84       1.0  0.36550  0.97740  0.74410  1.0000
  C   C85       1.0  0.74410  0.88450  0.27260  1.0000
  C   C86       1.0  0.00590  0.86550  0.27260  1.0000
  C   C87       1.0  0.74410  0.86550  0.47740  1.0000
  C   C88       1.0  0.27260  0.74410  0.88450  1.0000
  C   C89       1.0  0.27260  0.00590  0.86550  1.0000
  C   C90       1.0  0.47740  0.74410  0.86550  1.0000
  C   C91       1.0  0.38450  0.27260  0.24410  1.0000
  C   C92       1.0  0.36550  0.27260  0.50590  1.0000
  C   C93       1.0  0.36550  0.47740  0.24410  1.0000
  C   C94       1.0  0.74410  0.38450  0.77260  1.0000
  C   C95       1.0  0.00590  0.36550  0.77260  1.0000
  C   C96       1.0  0.74410  0.36550  0.97740  1.0000
  C   C97       1.0  0.00950  0.45010  0.15270  1.0000
  C   C98       1.0  0.24050  0.79990  0.15270  1.0000
  C   C99       1.0  0.24050  0.45010  0.09730  1.0000
  C   C100      1.0  0.00950  0.79990  0.09730  1.0000
  C   C101      1.0  0.15270  0.00950  0.45010  1.0000
  C   C102      1.0  0.15270  0.24050  0.79990  1.0000
  C   C103      1.0  0.09730  0.24050  0.45010  1.0000
  C   C104      1.0  0.09730  0.00950  0.79990  1.0000
  C   C105      1.0  0.45010  0.15270  0.00950  1.0000
  C   C106      1.0  0.79990  0.15270  0.24050  1.0000
  C   C107      1.0  0.45010  0.09730  0.24050  1.0000
  C   C108      1.0  0.79990  0.09730  0.00950  1.0000
  C   C109      1.0  0.00950  0.95010  0.65270  1.0000
  C   C110      1.0  0.15270  0.50950  0.95010  1.0000
  C   C111      1.0  0.45010  0.65270  0.50950  1.0000
  C   C112      1.0  0.50950  0.45010  0.65270  1.0000
  C   C113      1.0  0.65270  0.00950  0.95010  1.0000
  C   C114      1.0  0.95010  0.15270  0.50950  1.0000
  C   C115      1.0  0.50950  0.95010  0.15270  1.0000
  C   C116      1.0  0.65270  0.50950  0.45010  1.0000
  C   C117      1.0  0.95010  0.65270  0.00950  1.0000
  C   C118      1.0  0.24050  0.29990  0.65270  1.0000
  C   C119      1.0  0.24050  0.95010  0.59730  1.0000
  C   C120      1.0  0.00950  0.29990  0.59730  1.0000
  C   C121      1.0  0.15270  0.74050  0.29990  1.0000
  C   C122      1.0  0.09730  0.74050  0.95010  1.0000
  C   C123      1.0  0.09730  0.50950  0.29990  1.0000
  C   C124      1.0  0.79990  0.65270  0.74050  1.0000
  C   C125      1.0  0.45010  0.59730  0.74050  1.0000
  C   C126      1.0  0.79990  0.59730  0.50950  1.0000
  C   C127      1.0  0.74050  0.79990  0.65270  1.0000
  C   C128      1.0  0.74050  0.45010  0.59730  1.0000
  C   C129      1.0  0.50950  0.79990  0.59730  1.0000
  C   C130      1.0  0.65270  0.24050  0.29990  1.0000
  C   C131      1.0  0.59730  0.24050  0.95010  1.0000
  C   C132      1.0  0.59730  0.00950  0.29990  1.0000
  C   C133      1.0  0.29990  0.15270  0.74050  1.0000
  C   C134      1.0  0.95010  0.09730  0.74050  1.0000
  C   C135      1.0  0.29990  0.09730  0.50950  1.0000
  C   C136      1.0  0.74050  0.29990  0.15270  1.0000
  C   C137      1.0  0.74050  0.95010  0.09730  1.0000
  C   C138      1.0  0.50950  0.29990  0.09730  1.0000
  C   C139      1.0  0.65270  0.74050  0.79990  1.0000
  C   C140      1.0  0.59730  0.74050  0.45010  1.0000
  C   C141      1.0  0.59730  0.50950  0.79990  1.0000
  C   C142      1.0  0.29990  0.65270  0.24050  1.0000
  C   C143      1.0  0.95010  0.59730  0.24050  1.0000
  C   C144      1.0  0.29990  0.59730  0.00950  1.0000
  C   C145      1.0  0.99050  0.54990  0.84730  1.0000
  C   C146      1.0  0.75950  0.20010  0.84730  1.0000
  C   C147      1.0  0.75950  0.54990  0.90270  1.0000
  C   C148      1.0  0.99050  0.20010  0.90270  1.0000
  C   C149      1.0  0.84730  0.99050  0.54990  1.0000
  C   C150      1.0  0.84730  0.75950  0.20010  1.0000
  C   C151      1.0  0.90270  0.75950  0.54990  1.0000
  C   C152      1.0  0.90270  0.99050  0.20010  1.0000
  C   C153      1.0  0.54990  0.84730  0.99050  1.0000
  C   C154      1.0  0.20010  0.84730  0.75950  1.0000
  C   C155      1.0  0.54990  0.90270  0.75950  1.0000
  C   C156      1.0  0.20010  0.90270  0.99050  1.0000
  C   C157      1.0  0.99050  0.04990  0.34730  1.0000
  C   C158      1.0  0.84730  0.49050  0.04990  1.0000
  C   C159      1.0  0.54990  0.34730  0.49050  1.0000
  C   C160      1.0  0.49050  0.54990  0.34730  1.0000
  C   C161      1.0  0.34730  0.99050  0.04990  1.0000
  C   C162      1.0  0.04990  0.84730  0.49050  1.0000
  C   C163      1.0  0.49050  0.04990  0.84730  1.0000
  C   C164      1.0  0.34730  0.49050  0.54990  1.0000
  C   C165      1.0  0.04990  0.34730  0.99050  1.0000
  C   C166      1.0  0.75950  0.70010  0.34730  1.0000
  C   C167      1.0  0.75950  0.04990  0.40270  1.0000
  C   C168      1.0  0.99050  0.70010  0.40270  1.0000
  C   C169      1.0  0.84730  0.25950  0.70010  1.0000
  C   C170      1.0  0.90270  0.25950  0.04990  1.0000
  C   C171      1.0  0.90270  0.49050  0.70010  1.0000
  C   C172      1.0  0.20010  0.34730  0.25950  1.0000
  C   C173      1.0  0.54990  0.40270  0.25950  1.0000
  C   C174      1.0  0.20010  0.40270  0.49050  1.0000
  C   C175      1.0  0.25950  0.20010  0.34730  1.0000
  C   C176      1.0  0.25950  0.54990  0.40270  1.0000
  C   C177      1.0  0.49050  0.20010  0.40270  1.0000
  C   C178      1.0  0.34730  0.75950  0.70010  1.0000
  C   C179      1.0  0.40270  0.75950  0.04990  1.0000
  C   C180      1.0  0.40270  0.99050  0.70010  1.0000
  C   C181      1.0  0.70010  0.84730  0.25950  1.0000
  C   C182      1.0  0.04990  0.90270  0.25950  1.0000
  C   C183      1.0  0.70010  0.90270  0.49050  1.0000
  C   C184      1.0  0.25950  0.70010  0.84730  1.0000
  C   C185      1.0  0.25950  0.04990  0.90270  1.0000
  C   C186      1.0  0.49050  0.70010  0.90270  1.0000
  C   C187      1.0  0.34730  0.25950  0.20010  1.0000
  C   C188      1.0  0.40270  0.25950  0.54990  1.0000
  C   C189      1.0  0.40270  0.49050  0.20010  1.0000
  C   C190      1.0  0.70010  0.34730  0.75950  1.0000
  C   C191      1.0  0.04990  0.40270  0.75950  1.0000
  C   C192      1.0  0.70010  0.40270  0.99050  1.0000
  C   C193      1.0  0.96570  0.42050  0.14450  1.0000
  C   C194      1.0  0.28430  0.82950  0.14450  1.0000
  C   C195      1.0  0.28430  0.42050  0.10550  1.0000
  C   C196      1.0  0.96570  0.82950  0.10550  1.0000
  C   C197      1.0  0.14450  0.96570  0.42050  1.0000
  C   C198      1.0  0.14450  0.28430  0.82950  1.0000
  C   C199      1.0  0.10550  0.28430  0.42050  1.0000
  C   C200      1.0  0.10550  0.96570  0.82950  1.0000
  C   C201      1.0  0.42050  0.14450  0.96570  1.0000
  C   C202      1.0  0.82950  0.14450  0.28430  1.0000
  C   C203      1.0  0.42050  0.10550  0.28430  1.0000
  C   C204      1.0  0.82950  0.10550  0.96570  1.0000
  C   C205      1.0  0.96570  0.92050  0.64450  1.0000
  C   C206      1.0  0.14450  0.46570  0.92050  1.0000
  C   C207      1.0  0.42050  0.64450  0.46570  1.0000
  C   C208      1.0  0.46570  0.42050  0.64450  1.0000
  C   C209      1.0  0.64450  0.96570  0.92050  1.0000
  C   C210      1.0  0.92050  0.14450  0.46570  1.0000
  C   C211      1.0  0.46570  0.92050  0.14450  1.0000
  C   C212      1.0  0.64450  0.46570  0.42050  1.0000
  C   C213      1.0  0.92050  0.64450  0.96570  1.0000
  C   C214      1.0  0.28430  0.32950  0.64450  1.0000
  C   C215      1.0  0.28430  0.92050  0.60550  1.0000
  C   C216      1.0  0.96570  0.32950  0.60550  1.0000
  C   C217      1.0  0.14450  0.78430  0.32950  1.0000
  C   C218      1.0  0.10550  0.78430  0.92050  1.0000
  C   C219      1.0  0.10550  0.46570  0.32950  1.0000
  C   C220      1.0  0.82950  0.64450  0.78430  1.0000
  C   C221      1.0  0.42050  0.60550  0.78430  1.0000
  C   C222      1.0  0.82950  0.60550  0.46570  1.0000
  C   C223      1.0  0.78430  0.82950  0.64450  1.0000
  C   C224      1.0  0.78430  0.42050  0.60550  1.0000
  C   C225      1.0  0.46570  0.82950  0.60550  1.0000
  C   C226      1.0  0.64450  0.28430  0.32950  1.0000
  C   C227      1.0  0.60550  0.28430  0.92050  1.0000
  C   C228      1.0  0.60550  0.96570  0.32950  1.0000
  C   C229      1.0  0.32950  0.14450  0.78430  1.0000
  C   C230      1.0  0.92050  0.10550  0.78430  1.0000
  C   C231      1.0  0.32950  0.10550  0.46570  1.0000
  C   C232      1.0  0.78430  0.32950  0.14450  1.0000
  C   C233      1.0  0.78430  0.92050  0.10550  1.0000
  C   C234      1.0  0.46570  0.32950  0.10550  1.0000
  C   C235      1.0  0.64450  0.78430  0.82950  1.0000
  C   C236      1.0  0.60550  0.78430  0.42050  1.0000
  C   C237      1.0  0.60550  0.46570  0.82950  1.0000
  C   C238      1.0  0.32950  0.64450  0.28430  1.0000
  C   C239      1.0  0.92050  0.60550  0.28430  1.0000
  C   C240      1.0  0.32950  0.60550  0.96570  1.0000
  C   C241      1.0  0.03430  0.57950  0.85550  1.0000
  C   C242      1.0  0.71570  0.17050  0.85550  1.0000
  C   C243      1.0  0.71570  0.57950  0.89450  1.0000
  C   C244      1.0  0.03430  0.17050  0.89450  1.0000
  C   C245      1.0  0.85550  0.03430  0.57950  1.0000
  C   C246      1.0  0.85550  0.71570  0.17050  1.0000
  C   C247      1.0  0.89450  0.71570  0.57950  1.0000
  C   C248      1.0  0.89450  0.03430  0.17050  1.0000
  C   C249      1.0  0.57950  0.85550  0.03430  1.0000
  C   C250      1.0  0.17050  0.85550  0.71570  1.0000
  C   C251      1.0  0.57950  0.89450  0.71570  1.0000
  C   C252      1.0  0.17050  0.89450  0.03430  1.0000
  C   C253      1.0  0.03430  0.07950  0.35550  1.0000
  C   C254      1.0  0.85550  0.53430  0.07950  1.0000
  C   C255      1.0  0.57950  0.35550  0.53430  1.0000
  C   C256      1.0  0.53430  0.57950  0.35550  1.0000
  C   C257      1.0  0.35550  0.03430  0.07950  1.0000
  C   C258      1.0  0.07950  0.85550  0.53430  1.0000
  C   C259      1.0  0.53430  0.07950  0.85550  1.0000
  C   C260      1.0  0.35550  0.53430  0.57950  1.0000
  C   C261      1.0  0.07950  0.35550  0.03430  1.0000
  C   C262      1.0  0.71570  0.67050  0.35550  1.0000
  C   C263      1.0  0.71570  0.07950  0.39450  1.0000
  C   C264      1.0  0.03430  0.67050  0.39450  1.0000
  C   C265      1.0  0.85550  0.21570  0.67050  1.0000
  C   C266      1.0  0.89450  0.21570  0.07950  1.0000
  C   C267      1.0  0.89450  0.53430  0.67050  1.0000
  C   C268      1.0  0.17050  0.35550  0.21570  1.0000
  C   C269      1.0  0.57950  0.39450  0.21570  1.0000
  C   C270      1.0  0.17050  0.39450  0.53430  1.0000
  C   C271      1.0  0.21570  0.17050  0.35550  1.0000
  C   C272      1.0  0.21570  0.57950  0.39450  1.0000
  C   C273      1.0  0.53430  0.17050  0.39450  1.0000
  C   C274      1.0  0.35550  0.71570  0.67050  1.0000
  C   C275      1.0  0.39450  0.71570  0.07950  1.0000
  C   C276      1.0  0.39450  0.03430  0.67050  1.0000
  C   C277      1.0  0.67050  0.85550  0.21570  1.0000
  C   C278      1.0  0.07950  0.89450  0.21570  1.0000
  C   C279      1.0  0.67050  0.89450  0.53430  1.0000
  C   C280      1.0  0.21570  0.67050  0.85550  1.0000
  C   C281      1.0  0.21570  0.07950  0.89450  1.0000
  C   C282      1.0  0.53430  0.67050  0.89450  1.0000
  C   C283      1.0  0.35550  0.21570  0.17050  1.0000
  C   C284      1.0  0.39450  0.21570  0.57950  1.0000
  C   C285      1.0  0.39450  0.53430  0.17050  1.0000
  C   C286      1.0  0.67050  0.35550  0.71570  1.0000
  C   C287      1.0  0.07950  0.39450  0.71570  1.0000
  C   C288      1.0  0.67050  0.39450  0.03430  1.0000
  H   H1        1.0  0.94430  0.42720  0.11610  1.0000
  H   H2        1.0  0.30570  0.82280  0.11610  1.0000
  H   H3        1.0  0.30570  0.42720  0.13390  1.0000
  H   H4        1.0  0.94430  0.82280  0.13390  1.0000
  H   H5        1.0  0.11610  0.94430  0.42720  1.0000
  H   H6        1.0  0.11610  0.30570  0.82280  1.0000
  H   H7        1.0  0.13390  0.30570  0.42720  1.0000
  H   H8        1.0  0.13390  0.94430  0.82280  1.0000
  H   H9        1.0  0.42720  0.11610  0.94430  1.0000
  H   H10       1.0  0.82280  0.11610  0.30570  1.0000
  H   H11       1.0  0.42720  0.13390  0.30570  1.0000
  H   H12       1.0  0.82280  0.13390  0.94430  1.0000
  H   H13       1.0  0.94430  0.92720  0.61610  1.0000
  H   H14       1.0  0.11610  0.44430  0.92720  1.0000
  H   H15       1.0  0.42720  0.61610  0.44430  1.0000
  H   H16       1.0  0.44430  0.42720  0.61610  1.0000
  H   H17       1.0  0.61610  0.94430  0.92720  1.0000
  H   H18       1.0  0.92720  0.11610  0.44430  1.0000
  H   H19       1.0  0.44430  0.92720  0.11610  1.0000
  H   H20       1.0  0.61610  0.44430  0.42720  1.0000
  H   H21       1.0  0.92720  0.61610  0.94430  1.0000
  H   H22       1.0  0.30570  0.32280  0.61610  1.0000
  H   H23       1.0  0.30570  0.92720  0.63390  1.0000
  H   H24       1.0  0.94430  0.32280  0.63390  1.0000
  H   H25       1.0  0.11610  0.80570  0.32280  1.0000
  H   H26       1.0  0.13390  0.80570  0.92720  1.0000
  H   H27       1.0  0.13390  0.44430  0.32280  1.0000
  H   H28       1.0  0.82280  0.61610  0.80570  1.0000
  H   H29       1.0  0.42720  0.63390  0.80570  1.0000
  H   H30       1.0  0.82280  0.63390  0.44430  1.0000
  H   H31       1.0  0.80570  0.82280  0.61610  1.0000
  H   H32       1.0  0.80570  0.42720  0.63390  1.0000
  H   H33       1.0  0.44430  0.82280  0.63390  1.0000
  H   H34       1.0  0.61610  0.30570  0.32280  1.0000
  H   H35       1.0  0.63390  0.30570  0.92720  1.0000
  H   H36       1.0  0.63390  0.94430  0.32280  1.0000
  H   H37       1.0  0.32280  0.11610  0.80570  1.0000
  H   H38       1.0  0.92720  0.13390  0.80570  1.0000
  H   H39       1.0  0.32280  0.13390  0.44430  1.0000
  H   H40       1.0  0.80570  0.32280  0.11610  1.0000
  H   H41       1.0  0.80570  0.92720  0.13390  1.0000
  H   H42       1.0  0.44430  0.32280  0.13390  1.0000
  H   H43       1.0  0.61610  0.80570  0.82280  1.0000
  H   H44       1.0  0.63390  0.80570  0.42720  1.0000
  H   H45       1.0  0.63390  0.44430  0.82280  1.0000
  H   H46       1.0  0.32280  0.61610  0.30570  1.0000
  H   H47       1.0  0.92720  0.63390  0.30570  1.0000
  H   H48       1.0  0.32280  0.63390  0.94430  1.0000
  H   H49       1.0  0.05570  0.57280  0.88390  1.0000
  H   H50       1.0  0.69430  0.17720  0.88390  1.0000
  H   H51       1.0  0.69430  0.57280  0.86610  1.0000
  H   H52       1.0  0.05570  0.17720  0.86610  1.0000
  H   H53       1.0  0.88390  0.05570  0.57280  1.0000
  H   H54       1.0  0.88390  0.69430  0.17720  1.0000
  H   H55       1.0  0.86610  0.69430  0.57280  1.0000
  H   H56       1.0  0.86610  0.05570  0.17720  1.0000
  H   H57       1.0  0.57280  0.88390  0.05570  1.0000
  H   H58       1.0  0.17720  0.88390  0.69430  1.0000
  H   H59       1.0  0.57280  0.86610  0.69430  1.0000
  H   H60       1.0  0.17720  0.86610  0.05570  1.0000
  H   H61       1.0  0.05570  0.07280  0.38390  1.0000
  H   H62       1.0  0.88390  0.55570  0.07280  1.0000
  H   H63       1.0  0.57280  0.38390  0.55570  1.0000
  H   H64       1.0  0.55570  0.57280  0.38390  1.0000
  H   H65       1.0  0.38390  0.05570  0.07280  1.0000
  H   H66       1.0  0.07280  0.88390  0.55570  1.0000
  H   H67       1.0  0.55570  0.07280  0.88390  1.0000
  H   H68       1.0  0.38390  0.55570  0.57280  1.0000
  H   H69       1.0  0.07280  0.38390  0.05570  1.0000
  H   H70       1.0  0.69430  0.67720  0.38390  1.0000
  H   H71       1.0  0.69430  0.07280  0.36610  1.0000
  H   H72       1.0  0.05570  0.67720  0.36610  1.0000
  H   H73       1.0  0.88390  0.19430  0.67720  1.0000
  H   H74       1.0  0.86610  0.19430  0.07280  1.0000
  H   H75       1.0  0.86610  0.55570  0.67720  1.0000
  H   H76       1.0  0.17720  0.38390  0.19430  1.0000
  H   H77       1.0  0.57280  0.36610  0.19430  1.0000
  H   H78       1.0  0.17720  0.36610  0.55570  1.0000
  H   H79       1.0  0.19430  0.17720  0.38390  1.0000
  H   H80       1.0  0.19430  0.57280  0.36610  1.0000
  H   H81       1.0  0.55570  0.17720  0.36610  1.0000
  H   H82       1.0  0.38390  0.69430  0.67720  1.0000
  H   H83       1.0  0.36610  0.69430  0.07280  1.0000
  H   H84       1.0  0.36610  0.05570  0.67720  1.0000
  H   H85       1.0  0.67720  0.88390  0.19430  1.0000
  H   H86       1.0  0.07280  0.86610  0.19430  1.0000
  H   H87       1.0  0.67720  0.86610  0.55570  1.0000
  H   H88       1.0  0.19430  0.67720  0.88390  1.0000
  H   H89       1.0  0.19430  0.07280  0.86610  1.0000
  H   H90       1.0  0.55570  0.67720  0.86610  1.0000
  H   H91       1.0  0.38390  0.19430  0.17720  1.0000
  H   H92       1.0  0.36610  0.19430  0.57280  1.0000
  H   H93       1.0  0.36610  0.55570  0.17720  1.0000
  H   H94       1.0  0.67720  0.38390  0.69430  1.0000
  H   H95       1.0  0.07280  0.36610  0.69430  1.0000
  H   H96       1.0  0.67720  0.36610  0.05570  1.0000
  C   C289      1.0  0.95350  0.38080  0.17840  1.0000
  C   C290      1.0  0.29650  0.86920  0.17840  1.0000
  C   C291      1.0  0.29650  0.38080  0.07160  1.0000
  C   C292      1.0  0.95350  0.86920  0.07160  1.0000
  C   C293      1.0  0.17840  0.95350  0.38080  1.0000
  C   C294      1.0  0.17840  0.29650  0.86920  1.0000
  C   C295      1.0  0.07160  0.29650  0.38080  1.0000
  C   C296      1.0  0.07160  0.95350  0.86920  1.0000
  C   C297      1.0  0.38080  0.17840  0.95350  1.0000
  C   C298      1.0  0.86920  0.17840  0.29650  1.0000
  C   C299      1.0  0.38080  0.07160  0.29650  1.0000
  C   C300      1.0  0.86920  0.07160  0.95350  1.0000
  C   C301      1.0  0.95350  0.88080  0.67840  1.0000
  C   C302      1.0  0.17840  0.45350  0.88080  1.0000
  C   C303      1.0  0.38080  0.67840  0.45350  1.0000
  C   C304      1.0  0.45350  0.38080  0.67840  1.0000
  C   C305      1.0  0.67840  0.95350  0.88080  1.0000
  C   C306      1.0  0.88080  0.17840  0.45350  1.0000
  C   C307      1.0  0.45350  0.88080  0.17840  1.0000
  C   C308      1.0  0.67840  0.45350  0.38080  1.0000
  C   C309      1.0  0.88080  0.67840  0.95350  1.0000
  C   C310      1.0  0.29650  0.36920  0.67840  1.0000
  C   C311      1.0  0.29650  0.88080  0.57160  1.0000
  C   C312      1.0  0.95350  0.36920  0.57160  1.0000
  C   C313      1.0  0.17840  0.79650  0.36920  1.0000
  C   C314      1.0  0.07160  0.79650  0.88080  1.0000
  C   C315      1.0  0.07160  0.45350  0.36920  1.0000
  C   C316      1.0  0.86920  0.67840  0.79650  1.0000
  C   C317      1.0  0.38080  0.57160  0.79650  1.0000
  C   C318      1.0  0.86920  0.57160  0.45350  1.0000
  C   C319      1.0  0.79650  0.86920  0.67840  1.0000
  C   C320      1.0  0.79650  0.38080  0.57160  1.0000
  C   C321      1.0  0.45350  0.86920  0.57160  1.0000
  C   C322      1.0  0.67840  0.29650  0.36920  1.0000
  C   C323      1.0  0.57160  0.29650  0.88080  1.0000
  C   C324      1.0  0.57160  0.95350  0.36920  1.0000
  C   C325      1.0  0.36920  0.17840  0.79650  1.0000
  C   C326      1.0  0.88080  0.07160  0.79650  1.0000
  C   C327      1.0  0.36920  0.07160  0.45350  1.0000
  C   C328      1.0  0.79650  0.36920  0.17840  1.0000
  C   C329      1.0  0.79650  0.88080  0.07160  1.0000
  C   C330      1.0  0.45350  0.36920  0.07160  1.0000
  C   C331      1.0  0.67840  0.79650  0.86920  1.0000
  C   C332      1.0  0.57160  0.79650  0.38080  1.0000
  C   C333      1.0  0.57160  0.45350  0.86920  1.0000
  C   C334      1.0  0.36920  0.67840  0.29650  1.0000
  C   C335      1.0  0.88080  0.57160  0.29650  1.0000
  C   C336      1.0  0.36920  0.57160  0.95350  1.0000
  C   C337      1.0  0.04650  0.61920  0.82160  1.0000
  C   C338      1.0  0.70350  0.13080  0.82160  1.0000
  C   C339      1.0  0.70350  0.61920  0.92840  1.0000
  C   C340      1.0  0.04650  0.13080  0.92840  1.0000
  C   C341      1.0  0.82160  0.04650  0.61920  1.0000
  C   C342      1.0  0.82160  0.70350  0.13080  1.0000
  C   C343      1.0  0.92840  0.70350  0.61920  1.0000
  C   C344      1.0  0.92840  0.04650  0.13080  1.0000
  C   C345      1.0  0.61920  0.82160  0.04650  1.0000
  C   C346      1.0  0.13080  0.82160  0.70350  1.0000
  C   C347      1.0  0.61920  0.92840  0.70350  1.0000
  C   C348      1.0  0.13080  0.92840  0.04650  1.0000
  C   C349      1.0  0.04650  0.11920  0.32160  1.0000
  C   C350      1.0  0.82160  0.54650  0.11920  1.0000
  C   C351      1.0  0.61920  0.32160  0.54650  1.0000
  C   C352      1.0  0.54650  0.61920  0.32160  1.0000
  C   C353      1.0  0.32160  0.04650  0.11920  1.0000
  C   C354      1.0  0.11920  0.82160  0.54650  1.0000
  C   C355      1.0  0.54650  0.11920  0.82160  1.0000
  C   C356      1.0  0.32160  0.54650  0.61920  1.0000
  C   C357      1.0  0.11920  0.32160  0.04650  1.0000
  C   C358      1.0  0.70350  0.63080  0.32160  1.0000
  C   C359      1.0  0.70350  0.11920  0.42840  1.0000
  C   C360      1.0  0.04650  0.63080  0.42840  1.0000
  C   C361      1.0  0.82160  0.20350  0.63080  1.0000
  C   C362      1.0  0.92840  0.20350  0.11920  1.0000
  C   C363      1.0  0.92840  0.54650  0.63080  1.0000
  C   C364      1.0  0.13080  0.32160  0.20350  1.0000
  C   C365      1.0  0.61920  0.42840  0.20350  1.0000
  C   C366      1.0  0.13080  0.42840  0.54650  1.0000
  C   C367      1.0  0.20350  0.13080  0.32160  1.0000
  C   C368      1.0  0.20350  0.61920  0.42840  1.0000
  C   C369      1.0  0.54650  0.13080  0.42840  1.0000
  C   C370      1.0  0.32160  0.70350  0.63080  1.0000
  C   C371      1.0  0.42840  0.70350  0.11920  1.0000
  C   C372      1.0  0.42840  0.04650  0.63080  1.0000
  C   C373      1.0  0.63080  0.82160  0.20350  1.0000
  C   C374      1.0  0.11920  0.92840  0.20350  1.0000
  C   C375      1.0  0.63080  0.92840  0.54650  1.0000
  C   C376      1.0  0.20350  0.63080  0.82160  1.0000
  C   C377      1.0  0.20350  0.11920  0.92840  1.0000
  C   C378      1.0  0.54650  0.63080  0.92840  1.0000
  C   C379      1.0  0.32160  0.20350  0.13080  1.0000
  C   C380      1.0  0.42840  0.20350  0.61920  1.0000
  C   C381      1.0  0.42840  0.54650  0.13080  1.0000
  C   C382      1.0  0.63080  0.32160  0.70350  1.0000
  C   C383      1.0  0.11920  0.42840  0.70350  1.0000
  C   C384      1.0  0.63080  0.42840  0.04650  1.0000
  H   H97       1.0  0.92420  0.36050  0.17230  1.0000
  H   H98       1.0  0.32580  0.88950  0.17230  1.0000
  H   H99       1.0  0.32580  0.36050  0.07770  1.0000
  H   H100      1.0  0.92420  0.88950  0.07770  1.0000
  H   H101      1.0  0.17230  0.92420  0.36050  1.0000
  H   H102      1.0  0.17230  0.32580  0.88950  1.0000
  H   H103      1.0  0.07770  0.32580  0.36050  1.0000
  H   H104      1.0  0.07770  0.92420  0.88950  1.0000
  H   H105      1.0  0.36050  0.17230  0.92420  1.0000
  H   H106      1.0  0.88950  0.17230  0.32580  1.0000
  H   H107      1.0  0.36050  0.07770  0.32580  1.0000
  H   H108      1.0  0.88950  0.07770  0.92420  1.0000
  H   H109      1.0  0.92420  0.86050  0.67230  1.0000
  H   H110      1.0  0.17230  0.42420  0.86050  1.0000
  H   H111      1.0  0.36050  0.67230  0.42420  1.0000
  H   H112      1.0  0.42420  0.36050  0.67230  1.0000
  H   H113      1.0  0.67230  0.92420  0.86050  1.0000
  H   H114      1.0  0.86050  0.17230  0.42420  1.0000
  H   H115      1.0  0.42420  0.86050  0.17230  1.0000
  H   H116      1.0  0.67230  0.42420  0.36050  1.0000
  H   H117      1.0  0.86050  0.67230  0.92420  1.0000
  H   H118      1.0  0.32580  0.38950  0.67230  1.0000
  H   H119      1.0  0.32580  0.86050  0.57770  1.0000
  H   H120      1.0  0.92420  0.38950  0.57770  1.0000
  H   H121      1.0  0.17230  0.82580  0.38950  1.0000
  H   H122      1.0  0.07770  0.82580  0.86050  1.0000
  H   H123      1.0  0.07770  0.42420  0.38950  1.0000
  H   H124      1.0  0.88950  0.67230  0.82580  1.0000
  H   H125      1.0  0.36050  0.57770  0.82580  1.0000
  H   H126      1.0  0.88950  0.57770  0.42420  1.0000
  H   H127      1.0  0.82580  0.88950  0.67230  1.0000
  H   H128      1.0  0.82580  0.36050  0.57770  1.0000
  H   H129      1.0  0.42420  0.88950  0.57770  1.0000
  H   H130      1.0  0.67230  0.32580  0.38950  1.0000
  H   H131      1.0  0.57770  0.32580  0.86050  1.0000
  H   H132      1.0  0.57770  0.92420  0.38950  1.0000
  H   H133      1.0  0.38950  0.17230  0.82580  1.0000
  H   H134      1.0  0.86050  0.07770  0.82580  1.0000
  H   H135      1.0  0.38950  0.07770  0.42420  1.0000
  H   H136      1.0  0.82580  0.38950  0.17230  1.0000
  H   H137      1.0  0.82580  0.86050  0.07770  1.0000
  H   H138      1.0  0.42420  0.38950  0.07770  1.0000
  H   H139      1.0  0.67230  0.82580  0.88950  1.0000
  H   H140      1.0  0.57770  0.82580  0.36050  1.0000
  H   H141      1.0  0.57770  0.42420  0.88950  1.0000
  H   H142      1.0  0.38950  0.67230  0.32580  1.0000
  H   H143      1.0  0.86050  0.57770  0.32580  1.0000
  H   H144      1.0  0.38950  0.57770  0.92420  1.0000
  H   H145      1.0  0.07580  0.63950  0.82770  1.0000
  H   H146      1.0  0.67420  0.11050  0.82770  1.0000
  H   H147      1.0  0.67420  0.63950  0.92230  1.0000
  H   H148      1.0  0.07580  0.11050  0.92230  1.0000
  H   H149      1.0  0.82770  0.07580  0.63950  1.0000
  H   H150      1.0  0.82770  0.67420  0.11050  1.0000
  H   H151      1.0  0.92230  0.67420  0.63950  1.0000
  H   H152      1.0  0.92230  0.07580  0.11050  1.0000
  H   H153      1.0  0.63950  0.82770  0.07580  1.0000
  H   H154      1.0  0.11050  0.82770  0.67420  1.0000
  H   H155      1.0  0.63950  0.92230  0.67420  1.0000
  H   H156      1.0  0.11050  0.92230  0.07580  1.0000
  H   H157      1.0  0.07580  0.13950  0.32770  1.0000
  H   H158      1.0  0.82770  0.57580  0.13950  1.0000
  H   H159      1.0  0.63950  0.32770  0.57580  1.0000
  H   H160      1.0  0.57580  0.63950  0.32770  1.0000
  H   H161      1.0  0.32770  0.07580  0.13950  1.0000
  H   H162      1.0  0.13950  0.82770  0.57580  1.0000
  H   H163      1.0  0.57580  0.13950  0.82770  1.0000
  H   H164      1.0  0.32770  0.57580  0.63950  1.0000
  H   H165      1.0  0.13950  0.32770  0.07580  1.0000
  H   H166      1.0  0.67420  0.61050  0.32770  1.0000
  H   H167      1.0  0.67420  0.13950  0.42230  1.0000
  H   H168      1.0  0.07580  0.61050  0.42230  1.0000
  H   H169      1.0  0.82770  0.17420  0.61050  1.0000
  H   H170      1.0  0.92230  0.17420  0.13950  1.0000
  H   H171      1.0  0.92230  0.57580  0.61050  1.0000
  H   H172      1.0  0.11050  0.32770  0.17420  1.0000
  H   H173      1.0  0.63950  0.42230  0.17420  1.0000
  H   H174      1.0  0.11050  0.42230  0.57580  1.0000
  H   H175      1.0  0.17420  0.11050  0.32770  1.0000
  H   H176      1.0  0.17420  0.63950  0.42230  1.0000
  H   H177      1.0  0.57580  0.11050  0.42230  1.0000
  H   H178      1.0  0.32770  0.67420  0.61050  1.0000
  H   H179      1.0  0.42230  0.67420  0.13950  1.0000
  H   H180      1.0  0.42230  0.07580  0.61050  1.0000
  H   H181      1.0  0.61050  0.82770  0.17420  1.0000
  H   H182      1.0  0.13950  0.92230  0.17420  1.0000
  H   H183      1.0  0.61050  0.92230  0.57580  1.0000
  H   H184      1.0  0.17420  0.61050  0.82770  1.0000
  H   H185      1.0  0.17420  0.13950  0.92230  1.0000
  H   H186      1.0  0.57580  0.61050  0.92230  1.0000
  H   H187      1.0  0.32770  0.17420  0.11050  1.0000
  H   H188      1.0  0.42230  0.17420  0.63950  1.0000
  H   H189      1.0  0.42230  0.57580  0.11050  1.0000
  H   H190      1.0  0.61050  0.32770  0.67420  1.0000
  H   H191      1.0  0.13950  0.42230  0.67420  1.0000
  H   H192      1.0  0.61050  0.42230  0.07580  1.0000
  C   C385      1.0  0.98450  0.37080  0.22150  1.0000
  C   C386      1.0  0.26550  0.87920  0.22150  1.0000
  C   C387      1.0  0.26550  0.37080  0.02850  1.0000
  C   C388      1.0  0.98450  0.87920  0.02850  1.0000
  C   C389      1.0  0.22150  0.98450  0.37080  1.0000
  C   C390      1.0  0.22150  0.26550  0.87920  1.0000
  C   C391      1.0  0.02850  0.26550  0.37080  1.0000
  C   C392      1.0  0.02850  0.98450  0.87920  1.0000
  C   C393      1.0  0.37080  0.22150  0.98450  1.0000
  C   C394      1.0  0.87920  0.22150  0.26550  1.0000
  C   C395      1.0  0.37080  0.02850  0.26550  1.0000
  C   C396      1.0  0.87920  0.02850  0.98450  1.0000
  C   C397      1.0  0.98450  0.87080  0.72150  1.0000
  C   C398      1.0  0.22150  0.48450  0.87080  1.0000
  C   C399      1.0  0.37080  0.72150  0.48450  1.0000
  C   C400      1.0  0.48450  0.37080  0.72150  1.0000
  C   C401      1.0  0.72150  0.98450  0.87080  1.0000
  C   C402      1.0  0.87080  0.22150  0.48450  1.0000
  C   C403      1.0  0.48450  0.87080  0.22150  1.0000
  C   C404      1.0  0.72150  0.48450  0.37080  1.0000
  C   C405      1.0  0.87080  0.72150  0.98450  1.0000
  C   C406      1.0  0.26550  0.37920  0.72150  1.0000
  C   C407      1.0  0.26550  0.87080  0.52850  1.0000
  C   C408      1.0  0.98450  0.37920  0.52850  1.0000
  C   C409      1.0  0.22150  0.76550  0.37920  1.0000
  C   C410      1.0  0.02850  0.76550  0.87080  1.0000
  C   C411      1.0  0.02850  0.48450  0.37920  1.0000
  C   C412      1.0  0.87920  0.72150  0.76550  1.0000
  C   C413      1.0  0.37080  0.52850  0.76550  1.0000
  C   C414      1.0  0.87920  0.52850  0.48450  1.0000
  C   C415      1.0  0.76550  0.87920  0.72150  1.0000
  C   C416      1.0  0.76550  0.37080  0.52850  1.0000
  C   C417      1.0  0.48450  0.87920  0.52850  1.0000
  C   C418      1.0  0.72150  0.26550  0.37920  1.0000
  C   C419      1.0  0.52850  0.26550  0.87080  1.0000
  C   C420      1.0  0.52850  0.98450  0.37920  1.0000
  C   C421      1.0  0.37920  0.22150  0.76550  1.0000
  C   C422      1.0  0.87080  0.02850  0.76550  1.0000
  C   C423      1.0  0.37920  0.02850  0.48450  1.0000
  C   C424      1.0  0.76550  0.37920  0.22150  1.0000
  C   C425      1.0  0.76550  0.87080  0.02850  1.0000
  C   C426      1.0  0.48450  0.37920  0.02850  1.0000
  C   C427      1.0  0.72150  0.76550  0.87920  1.0000
  C   C428      1.0  0.52850  0.76550  0.37080  1.0000
  C   C429      1.0  0.52850  0.48450  0.87920  1.0000
  C   C430      1.0  0.37920  0.72150  0.26550  1.0000
  C   C431      1.0  0.87080  0.52850  0.26550  1.0000
  C   C432      1.0  0.37920  0.52850  0.98450  1.0000
  C   C433      1.0  0.01550  0.62920  0.77850  1.0000
  C   C434      1.0  0.73450  0.12080  0.77850  1.0000
  C   C435      1.0  0.73450  0.62920  0.97150  1.0000
  C   C436      1.0  0.01550  0.12080  0.97150  1.0000
  C   C437      1.0  0.77850  0.01550  0.62920  1.0000
  C   C438      1.0  0.77850  0.73450  0.12080  1.0000
  C   C439      1.0  0.97150  0.73450  0.62920  1.0000
  C   C440      1.0  0.97150  0.01550  0.12080  1.0000
  C   C441      1.0  0.62920  0.77850  0.01550  1.0000
  C   C442      1.0  0.12080  0.77850  0.73450  1.0000
  C   C443      1.0  0.62920  0.97150  0.73450  1.0000
  C   C444      1.0  0.12080  0.97150  0.01550  1.0000
  C   C445      1.0  0.01550  0.12920  0.27850  1.0000
  C   C446      1.0  0.77850  0.51550  0.12920  1.0000
  C   C447      1.0  0.62920  0.27850  0.51550  1.0000
  C   C448      1.0  0.51550  0.62920  0.27850  1.0000
  C   C449      1.0  0.27850  0.01550  0.12920  1.0000
  C   C450      1.0  0.12920  0.77850  0.51550  1.0000
  C   C451      1.0  0.51550  0.12920  0.77850  1.0000
  C   C452      1.0  0.27850  0.51550  0.62920  1.0000
  C   C453      1.0  0.12920  0.27850  0.01550  1.0000
  C   C454      1.0  0.73450  0.62080  0.27850  1.0000
  C   C455      1.0  0.73450  0.12920  0.47150  1.0000
  C   C456      1.0  0.01550  0.62080  0.47150  1.0000
  C   C457      1.0  0.77850  0.23450  0.62080  1.0000
  C   C458      1.0  0.97150  0.23450  0.12920  1.0000
  C   C459      1.0  0.97150  0.51550  0.62080  1.0000
  C   C460      1.0  0.12080  0.27850  0.23450  1.0000
  C   C461      1.0  0.62920  0.47150  0.23450  1.0000
  C   C462      1.0  0.12080  0.47150  0.51550  1.0000
  C   C463      1.0  0.23450  0.12080  0.27850  1.0000
  C   C464      1.0  0.23450  0.62920  0.47150  1.0000
  C   C465      1.0  0.51550  0.12080  0.47150  1.0000
  C   C466      1.0  0.27850  0.73450  0.62080  1.0000
  C   C467      1.0  0.47150  0.73450  0.12920  1.0000
  C   C468      1.0  0.47150  0.01550  0.62080  1.0000
  C   C469      1.0  0.62080  0.77850  0.23450  1.0000
  C   C470      1.0  0.12920  0.97150  0.23450  1.0000
  C   C471      1.0  0.62080  0.97150  0.51550  1.0000
  C   C472      1.0  0.23450  0.62080  0.77850  1.0000
  C   C473      1.0  0.23450  0.12920  0.97150  1.0000
  C   C474      1.0  0.51550  0.62080  0.97150  1.0000
  C   C475      1.0  0.27850  0.23450  0.12080  1.0000
  C   C476      1.0  0.47150  0.23450  0.62920  1.0000
  C   C477      1.0  0.47150  0.51550  0.12080  1.0000
  C   C478      1.0  0.62080  0.27850  0.73450  1.0000
  C   C479      1.0  0.12920  0.47150  0.73450  1.0000
  C   C480      1.0  0.62080  0.47150  0.01550  1.0000
  C   C481      1.0  0.02740  0.40130  0.22920  1.0000
  C   C482      1.0  0.22260  0.84870  0.22920  1.0000
  C   C483      1.0  0.22260  0.40130  0.02080  1.0000
  C   C484      1.0  0.02740  0.84870  0.02080  1.0000
  C   C485      1.0  0.22920  0.02740  0.40130  1.0000
  C   C486      1.0  0.22920  0.22260  0.84870  1.0000
  C   C487      1.0  0.02080  0.22260  0.40130  1.0000
  C   C488      1.0  0.02080  0.02740  0.84870  1.0000
  C   C489      1.0  0.40130  0.22920  0.02740  1.0000
  C   C490      1.0  0.84870  0.22920  0.22260  1.0000
  C   C491      1.0  0.40130  0.02080  0.22260  1.0000
  C   C492      1.0  0.84870  0.02080  0.02740  1.0000
  C   C493      1.0  0.02740  0.90130  0.72920  1.0000
  C   C494      1.0  0.22920  0.52740  0.90130  1.0000
  C   C495      1.0  0.40130  0.72920  0.52740  1.0000
  C   C496      1.0  0.52740  0.40130  0.72920  1.0000
  C   C497      1.0  0.72920  0.02740  0.90130  1.0000
  C   C498      1.0  0.90130  0.22920  0.52740  1.0000
  C   C499      1.0  0.52740  0.90130  0.22920  1.0000
  C   C500      1.0  0.72920  0.52740  0.40130  1.0000
  C   C501      1.0  0.90130  0.72920  0.02740  1.0000
  C   C502      1.0  0.22260  0.34870  0.72920  1.0000
  C   C503      1.0  0.22260  0.90130  0.52080  1.0000
  C   C504      1.0  0.02740  0.34870  0.52080  1.0000
  C   C505      1.0  0.22920  0.72260  0.34870  1.0000
  C   C506      1.0  0.02080  0.72260  0.90130  1.0000
  C   C507      1.0  0.02080  0.52740  0.34870  1.0000
  C   C508      1.0  0.84870  0.72920  0.72260  1.0000
  C   C509      1.0  0.40130  0.52080  0.72260  1.0000
  C   C510      1.0  0.84870  0.52080  0.52740  1.0000
  C   C511      1.0  0.72260  0.84870  0.72920  1.0000
  C   C512      1.0  0.72260  0.40130  0.52080  1.0000
  C   C513      1.0  0.52740  0.84870  0.52080  1.0000
  C   C514      1.0  0.72920  0.22260  0.34870  1.0000
  C   C515      1.0  0.52080  0.22260  0.90130  1.0000
  C   C516      1.0  0.52080  0.02740  0.34870  1.0000
  C   C517      1.0  0.34870  0.22920  0.72260  1.0000
  C   C518      1.0  0.90130  0.02080  0.72260  1.0000
  C   C519      1.0  0.34870  0.02080  0.52740  1.0000
  C   C520      1.0  0.72260  0.34870  0.22920  1.0000
  C   C521      1.0  0.72260  0.90130  0.02080  1.0000
  C   C522      1.0  0.52740  0.34870  0.02080  1.0000
  C   C523      1.0  0.72920  0.72260  0.84870  1.0000
  C   C524      1.0  0.52080  0.72260  0.40130  1.0000
  C   C525      1.0  0.52080  0.52740  0.84870  1.0000
  C   C526      1.0  0.34870  0.72920  0.22260  1.0000
  C   C527      1.0  0.90130  0.52080  0.22260  1.0000
  C   C528      1.0  0.34870  0.52080  0.02740  1.0000
  C   C529      1.0  0.97260  0.59870  0.77080  1.0000
  C   C530      1.0  0.77740  0.15130  0.77080  1.0000
  C   C531      1.0  0.77740  0.59870  0.97920  1.0000
  C   C532      1.0  0.97260  0.15130  0.97920  1.0000
  C   C533      1.0  0.77080  0.97260  0.59870  1.0000
  C   C534      1.0  0.77080  0.77740  0.15130  1.0000
  C   C535      1.0  0.97920  0.77740  0.59870  1.0000
  C   C536      1.0  0.97920  0.97260  0.15130  1.0000
  C   C537      1.0  0.59870  0.77080  0.97260  1.0000
  C   C538      1.0  0.15130  0.77080  0.77740  1.0000
  C   C539      1.0  0.59870  0.97920  0.77740  1.0000
  C   C540      1.0  0.15130  0.97920  0.97260  1.0000
  C   C541      1.0  0.97260  0.09870  0.27080  1.0000
  C   C542      1.0  0.77080  0.47260  0.09870  1.0000
  C   C543      1.0  0.59870  0.27080  0.47260  1.0000
  C   C544      1.0  0.47260  0.59870  0.27080  1.0000
  C   C545      1.0  0.27080  0.97260  0.09870  1.0000
  C   C546      1.0  0.09870  0.77080  0.47260  1.0000
  C   C547      1.0  0.47260  0.09870  0.77080  1.0000
  C   C548      1.0  0.27080  0.47260  0.59870  1.0000
  C   C549      1.0  0.09870  0.27080  0.97260  1.0000
  C   C550      1.0  0.77740  0.65130  0.27080  1.0000
  C   C551      1.0  0.77740  0.09870  0.47920  1.0000
  C   C552      1.0  0.97260  0.65130  0.47920  1.0000
  C   C553      1.0  0.77080  0.27740  0.65130  1.0000
  C   C554      1.0  0.97920  0.27740  0.09870  1.0000
  C   C555      1.0  0.97920  0.47260  0.65130  1.0000
  C   C556      1.0  0.15130  0.27080  0.27740  1.0000
  C   C557      1.0  0.59870  0.47920  0.27740  1.0000
  C   C558      1.0  0.15130  0.47920  0.47260  1.0000
  C   C559      1.0  0.27740  0.15130  0.27080  1.0000
  C   C560      1.0  0.27740  0.59870  0.47920  1.0000
  C   C561      1.0  0.47260  0.15130  0.47920  1.0000
  C   C562      1.0  0.27080  0.77740  0.65130  1.0000
  C   C563      1.0  0.47920  0.77740  0.09870  1.0000
  C   C564      1.0  0.47920  0.97260  0.65130  1.0000
  C   C565      1.0  0.65130  0.77080  0.27740  1.0000
  C   C566      1.0  0.09870  0.97920  0.27740  1.0000
  C   C567      1.0  0.65130  0.97920  0.47260  1.0000
  C   C568      1.0  0.27740  0.65130  0.77080  1.0000
  C   C569      1.0  0.27740  0.09870  0.97920  1.0000
  C   C570      1.0  0.47260  0.65130  0.97920  1.0000
  C   C571      1.0  0.27080  0.27740  0.15130  1.0000
  C   C572      1.0  0.47920  0.27740  0.59870  1.0000
  C   C573      1.0  0.47920  0.47260  0.15130  1.0000
  C   C574      1.0  0.65130  0.27080  0.77740  1.0000
  C   C575      1.0  0.09870  0.47920  0.77740  1.0000
  C   C576      1.0  0.65130  0.47920  0.97260  1.0000
  H   H193      1.0  0.04830  0.39560  0.25830  1.0000
  H   H194      1.0  0.20170  0.85440  0.25830  1.0000
  H   H195      1.0  0.20170  0.39560  0.99170  1.0000
  H   H196      1.0  0.04830  0.85440  0.99170  1.0000
  H   H197      1.0  0.25830  0.04830  0.39560  1.0000
  H   H198      1.0  0.25830  0.20170  0.85440  1.0000
  H   H199      1.0  0.99170  0.20170  0.39560  1.0000
  H   H200      1.0  0.99170  0.04830  0.85440  1.0000
  H   H201      1.0  0.39560  0.25830  0.04830  1.0000
  H   H202      1.0  0.85440  0.25830  0.20170  1.0000
  H   H203      1.0  0.39560  0.99170  0.20170  1.0000
  H   H204      1.0  0.85440  0.99170  0.04830  1.0000
  H   H205      1.0  0.04830  0.89560  0.75830  1.0000
  H   H206      1.0  0.25830  0.54830  0.89560  1.0000
  H   H207      1.0  0.39560  0.75830  0.54830  1.0000
  H   H208      1.0  0.54830  0.39560  0.75830  1.0000
  H   H209      1.0  0.75830  0.04830  0.89560  1.0000
  H   H210      1.0  0.89560  0.25830  0.54830  1.0000
  H   H211      1.0  0.54830  0.89560  0.25830  1.0000
  H   H212      1.0  0.75830  0.54830  0.39560  1.0000
  H   H213      1.0  0.89560  0.75830  0.04830  1.0000
  H   H214      1.0  0.20170  0.35440  0.75830  1.0000
  H   H215      1.0  0.20170  0.89560  0.49170  1.0000
  H   H216      1.0  0.04830  0.35440  0.49170  1.0000
  H   H217      1.0  0.25830  0.70170  0.35440  1.0000
  H   H218      1.0  0.99170  0.70170  0.89560  1.0000
  H   H219      1.0  0.99170  0.54830  0.35440  1.0000
  H   H220      1.0  0.85440  0.75830  0.70170  1.0000
  H   H221      1.0  0.39560  0.49170  0.70170  1.0000
  H   H222      1.0  0.85440  0.49170  0.54830  1.0000
  H   H223      1.0  0.70170  0.85440  0.75830  1.0000
  H   H224      1.0  0.70170  0.39560  0.49170  1.0000
  H   H225      1.0  0.54830  0.85440  0.49170  1.0000
  H   H226      1.0  0.75830  0.20170  0.35440  1.0000
  H   H227      1.0  0.49170  0.20170  0.89560  1.0000
  H   H228      1.0  0.49170  0.04830  0.35440  1.0000
  H   H229      1.0  0.35440  0.25830  0.70170  1.0000
  H   H230      1.0  0.89560  0.99170  0.70170  1.0000
  H   H231      1.0  0.35440  0.99170  0.54830  1.0000
  H   H232      1.0  0.70170  0.35440  0.25830  1.0000
  H   H233      1.0  0.70170  0.89560  0.99170  1.0000
  H   H234      1.0  0.54830  0.35440  0.99170  1.0000
  H   H235      1.0  0.75830  0.70170  0.85440  1.0000
  H   H236      1.0  0.49170  0.70170  0.39560  1.0000
  H   H237      1.0  0.49170  0.54830  0.85440  1.0000
  H   H238      1.0  0.35440  0.75830  0.20170  1.0000
  H   H239      1.0  0.89560  0.49170  0.20170  1.0000
  H   H240      1.0  0.35440  0.49170  0.04830  1.0000
  H   H241      1.0  0.95170  0.60440  0.74170  1.0000
  H   H242      1.0  0.79830  0.14560  0.74170  1.0000
  H   H243      1.0  0.79830  0.60440  0.00830  1.0000
  H   H244      1.0  0.95170  0.14560  0.00830  1.0000
  H   H245      1.0  0.74170  0.95170  0.60440  1.0000
  H   H246      1.0  0.74170  0.79830  0.14560  1.0000
  H   H247      1.0  0.00830  0.79830  0.60440  1.0000
  H   H248      1.0  0.00830  0.95170  0.14560  1.0000
  H   H249      1.0  0.60440  0.74170  0.95170  1.0000
  H   H250      1.0  0.14560  0.74170  0.79830  1.0000
  H   H251      1.0  0.60440  0.00830  0.79830  1.0000
  H   H252      1.0  0.14560  0.00830  0.95170  1.0000
  H   H253      1.0  0.95170  0.10440  0.24170  1.0000
  H   H254      1.0  0.74170  0.45170  0.10440  1.0000
  H   H255      1.0  0.60440  0.24170  0.45170  1.0000
  H   H256      1.0  0.45170  0.60440  0.24170  1.0000
  H   H257      1.0  0.24170  0.95170  0.10440  1.0000
  H   H258      1.0  0.10440  0.74170  0.45170  1.0000
  H   H259      1.0  0.45170  0.10440  0.74170  1.0000
  H   H260      1.0  0.24170  0.45170  0.60440  1.0000
  H   H261      1.0  0.10440  0.24170  0.95170  1.0000
  H   H262      1.0  0.79830  0.64560  0.24170  1.0000
  H   H263      1.0  0.79830  0.10440  0.50830  1.0000
  H   H264      1.0  0.95170  0.64560  0.50830  1.0000
  H   H265      1.0  0.74170  0.29830  0.64560  1.0000
  H   H266      1.0  0.00830  0.29830  0.10440  1.0000
  H   H267      1.0  0.00830  0.45170  0.64560  1.0000
  H   H268      1.0  0.14560  0.24170  0.29830  1.0000
  H   H269      1.0  0.60440  0.50830  0.29830  1.0000
  H   H270      1.0  0.14560  0.50830  0.45170  1.0000
  H   H271      1.0  0.29830  0.14560  0.24170  1.0000
  H   H272      1.0  0.29830  0.60440  0.50830  1.0000
  H   H273      1.0  0.45170  0.14560  0.50830  1.0000
  H   H274      1.0  0.24170  0.79830  0.64560  1.0000
  H   H275      1.0  0.50830  0.79830  0.10440  1.0000
  H   H276      1.0  0.50830  0.95170  0.64560  1.0000
  H   H277      1.0  0.64560  0.74170  0.29830  1.0000
  H   H278      1.0  0.10440  0.00830  0.29830  1.0000
  H   H279      1.0  0.64560  0.00830  0.45170  1.0000
  H   H280      1.0  0.29830  0.64560  0.74170  1.0000
  H   H281      1.0  0.29830  0.10440  0.00830  1.0000
  H   H282      1.0  0.45170  0.64560  0.00830  1.0000
  H   H283      1.0  0.24170  0.29830  0.14560  1.0000
  H   H284      1.0  0.50830  0.29830  0.60440  1.0000
  H   H285      1.0  0.50830  0.45170  0.14560  1.0000
  H   H286      1.0  0.64560  0.24170  0.79830  1.0000
  H   H287      1.0  0.10440  0.50830  0.79830  1.0000
  H   H288      1.0  0.64560  0.50830  0.95170  1.0000
  C   C577      1.0  0.04020  0.44020  0.19470  1.0000
  C   C578      1.0  0.20980  0.80980  0.19470  1.0000
  C   C579      1.0  0.20980  0.44020  0.05530  1.0000
  C   C580      1.0  0.04020  0.80980  0.05530  1.0000
  C   C581      1.0  0.19470  0.04020  0.44020  1.0000
  C   C582      1.0  0.19470  0.20980  0.80980  1.0000
  C   C583      1.0  0.05530  0.20980  0.44020  1.0000
  C   C584      1.0  0.05530  0.04020  0.80980  1.0000
  C   C585      1.0  0.44020  0.19470  0.04020  1.0000
  C   C586      1.0  0.80980  0.19470  0.20980  1.0000
  C   C587      1.0  0.44020  0.05530  0.20980  1.0000
  C   C588      1.0  0.80980  0.05530  0.04020  1.0000
  C   C589      1.0  0.04020  0.94020  0.69470  1.0000
  C   C590      1.0  0.19470  0.54020  0.94020  1.0000
  C   C591      1.0  0.44020  0.69470  0.54020  1.0000
  C   C592      1.0  0.54020  0.44020  0.69470  1.0000
  C   C593      1.0  0.69470  0.04020  0.94020  1.0000
  C   C594      1.0  0.94020  0.19470  0.54020  1.0000
  C   C595      1.0  0.54020  0.94020  0.19470  1.0000
  C   C596      1.0  0.69470  0.54020  0.44020  1.0000
  C   C597      1.0  0.94020  0.69470  0.04020  1.0000
  C   C598      1.0  0.20980  0.30980  0.69470  1.0000
  C   C599      1.0  0.20980  0.94020  0.55530  1.0000
  C   C600      1.0  0.04020  0.30980  0.55530  1.0000
  C   C601      1.0  0.19470  0.70980  0.30980  1.0000
  C   C602      1.0  0.05530  0.70980  0.94020  1.0000
  C   C603      1.0  0.05530  0.54020  0.30980  1.0000
  C   C604      1.0  0.80980  0.69470  0.70980  1.0000
  C   C605      1.0  0.44020  0.55530  0.70980  1.0000
  C   C606      1.0  0.80980  0.55530  0.54020  1.0000
  C   C607      1.0  0.70980  0.80980  0.69470  1.0000
  C   C608      1.0  0.70980  0.44020  0.55530  1.0000
  C   C609      1.0  0.54020  0.80980  0.55530  1.0000
  C   C610      1.0  0.69470  0.20980  0.30980  1.0000
  C   C611      1.0  0.55530  0.20980  0.94020  1.0000
  C   C612      1.0  0.55530  0.04020  0.30980  1.0000
  C   C613      1.0  0.30980  0.19470  0.70980  1.0000
  C   C614      1.0  0.94020  0.05530  0.70980  1.0000
  C   C615      1.0  0.30980  0.05530  0.54020  1.0000
  C   C616      1.0  0.70980  0.30980  0.19470  1.0000
  C   C617      1.0  0.70980  0.94020  0.05530  1.0000
  C   C618      1.0  0.54020  0.30980  0.05530  1.0000
  C   C619      1.0  0.69470  0.70980  0.80980  1.0000
  C   C620      1.0  0.55530  0.70980  0.44020  1.0000
  C   C621      1.0  0.55530  0.54020  0.80980  1.0000
  C   C622      1.0  0.30980  0.69470  0.20980  1.0000
  C   C623      1.0  0.94020  0.55530  0.20980  1.0000
  C   C624      1.0  0.30980  0.55530  0.04020  1.0000
  C   C625      1.0  0.95980  0.55980  0.80530  1.0000
  C   C626      1.0  0.79020  0.19020  0.80530  1.0000
  C   C627      1.0  0.79020  0.55980  0.94470  1.0000
  C   C628      1.0  0.95980  0.19020  0.94470  1.0000
  C   C629      1.0  0.80530  0.95980  0.55980  1.0000
  C   C630      1.0  0.80530  0.79020  0.19020  1.0000
  C   C631      1.0  0.94470  0.79020  0.55980  1.0000
  C   C632      1.0  0.94470  0.95980  0.19020  1.0000
  C   C633      1.0  0.55980  0.80530  0.95980  1.0000
  C   C634      1.0  0.19020  0.80530  0.79020  1.0000
  C   C635      1.0  0.55980  0.94470  0.79020  1.0000
  C   C636      1.0  0.19020  0.94470  0.95980  1.0000
  C   C637      1.0  0.95980  0.05980  0.30530  1.0000
  C   C638      1.0  0.80530  0.45980  0.05980  1.0000
  C   C639      1.0  0.55980  0.30530  0.45980  1.0000
  C   C640      1.0  0.45980  0.55980  0.30530  1.0000
  C   C641      1.0  0.30530  0.95980  0.05980  1.0000
  C   C642      1.0  0.05980  0.80530  0.45980  1.0000
  C   C643      1.0  0.45980  0.05980  0.80530  1.0000
  C   C644      1.0  0.30530  0.45980  0.55980  1.0000
  C   C645      1.0  0.05980  0.30530  0.95980  1.0000
  C   C646      1.0  0.79020  0.69020  0.30530  1.0000
  C   C647      1.0  0.79020  0.05980  0.44470  1.0000
  C   C648      1.0  0.95980  0.69020  0.44470  1.0000
  C   C649      1.0  0.80530  0.29020  0.69020  1.0000
  C   C650      1.0  0.94470  0.29020  0.05980  1.0000
  C   C651      1.0  0.94470  0.45980  0.69020  1.0000
  C   C652      1.0  0.19020  0.30530  0.29020  1.0000
  C   C653      1.0  0.55980  0.44470  0.29020  1.0000
  C   C654      1.0  0.19020  0.44470  0.45980  1.0000
  C   C655      1.0  0.29020  0.19020  0.30530  1.0000
  C   C656      1.0  0.29020  0.55980  0.44470  1.0000
  C   C657      1.0  0.45980  0.19020  0.44470  1.0000
  C   C658      1.0  0.30530  0.79020  0.69020  1.0000
  C   C659      1.0  0.44470  0.79020  0.05980  1.0000
  C   C660      1.0  0.44470  0.95980  0.69020  1.0000
  C   C661      1.0  0.69020  0.80530  0.29020  1.0000
  C   C662      1.0  0.05980  0.94470  0.29020  1.0000
  C   C663      1.0  0.69020  0.94470  0.45980  1.0000
  C   C664      1.0  0.29020  0.69020  0.80530  1.0000
  C   C665      1.0  0.29020  0.05980  0.94470  1.0000
  C   C666      1.0  0.45980  0.69020  0.94470  1.0000
  C   C667      1.0  0.30530  0.29020  0.19020  1.0000
  C   C668      1.0  0.44470  0.29020  0.55980  1.0000
  C   C669      1.0  0.44470  0.45980  0.19020  1.0000
  C   C670      1.0  0.69020  0.30530  0.79020  1.0000
  C   C671      1.0  0.05980  0.44470  0.79020  1.0000
  C   C672      1.0  0.69020  0.44470  0.95980  1.0000
  H   H289      1.0  0.07010  0.45990  0.20010  1.0000
  H   H290      1.0  0.17990  0.79010  0.20010  1.0000
  H   H291      1.0  0.17990  0.45990  0.04990  1.0000
  H   H292      1.0  0.07010  0.79010  0.04990  1.0000
  H   H293      1.0  0.20010  0.07010  0.45990  1.0000
  H   H294      1.0  0.20010  0.17990  0.79010  1.0000
  H   H295      1.0  0.04990  0.17990  0.45990  1.0000
  H   H296      1.0  0.04990  0.07010  0.79010  1.0000
  H   H297      1.0  0.45990  0.20010  0.07010  1.0000
  H   H298      1.0  0.79010  0.20010  0.17990  1.0000
  H   H299      1.0  0.45990  0.04990  0.17990  1.0000
  H   H300      1.0  0.79010  0.04990  0.07010  1.0000
  H   H301      1.0  0.07010  0.95990  0.70010  1.0000
  H   H302      1.0  0.20010  0.57010  0.95990  1.0000
  H   H303      1.0  0.45990  0.70010  0.57010  1.0000
  H   H304      1.0  0.57010  0.45990  0.70010  1.0000
  H   H305      1.0  0.70010  0.07010  0.95990  1.0000
  H   H306      1.0  0.95990  0.20010  0.57010  1.0000
  H   H307      1.0  0.57010  0.95990  0.20010  1.0000
  H   H308      1.0  0.70010  0.57010  0.45990  1.0000
  H   H309      1.0  0.95990  0.70010  0.07010  1.0000
  H   H310      1.0  0.17990  0.29010  0.70010  1.0000
  H   H311      1.0  0.17990  0.95990  0.54990  1.0000
  H   H312      1.0  0.07010  0.29010  0.54990  1.0000
  H   H313      1.0  0.20010  0.67990  0.29010  1.0000
  H   H314      1.0  0.04990  0.67990  0.95990  1.0000
  H   H315      1.0  0.04990  0.57010  0.29010  1.0000
  H   H316      1.0  0.79010  0.70010  0.67990  1.0000
  H   H317      1.0  0.45990  0.54990  0.67990  1.0000
  H   H318      1.0  0.79010  0.54990  0.57010  1.0000
  H   H319      1.0  0.67990  0.79010  0.70010  1.0000
  H   H320      1.0  0.67990  0.45990  0.54990  1.0000
  H   H321      1.0  0.57010  0.79010  0.54990  1.0000
  H   H322      1.0  0.70010  0.17990  0.29010  1.0000
  H   H323      1.0  0.54990  0.17990  0.95990  1.0000
  H   H324      1.0  0.54990  0.07010  0.29010  1.0000
  H   H325      1.0  0.29010  0.20010  0.67990  1.0000
  H   H326      1.0  0.95990  0.04990  0.67990  1.0000
  H   H327      1.0  0.29010  0.04990  0.57010  1.0000
  H   H328      1.0  0.67990  0.29010  0.20010  1.0000
  H   H329      1.0  0.67990  0.95990  0.04990  1.0000
  H   H330      1.0  0.57010  0.29010  0.04990  1.0000
  H   H331      1.0  0.70010  0.67990  0.79010  1.0000
  H   H332      1.0  0.54990  0.67990  0.45990  1.0000
  H   H333      1.0  0.54990  0.57010  0.79010  1.0000
  H   H334      1.0  0.29010  0.70010  0.17990  1.0000
  H   H335      1.0  0.95990  0.54990  0.17990  1.0000
  H   H336      1.0  0.29010  0.54990  0.07010  1.0000
  H   H337      1.0  0.92990  0.54010  0.79990  1.0000
  H   H338      1.0  0.82010  0.20990  0.79990  1.0000
  H   H339      1.0  0.82010  0.54010  0.95010  1.0000
  H   H340      1.0  0.92990  0.20990  0.95010  1.0000
  H   H341      1.0  0.79990  0.92990  0.54010  1.0000
  H   H342      1.0  0.79990  0.82010  0.20990  1.0000
  H   H343      1.0  0.95010  0.82010  0.54010  1.0000
  H   H344      1.0  0.95010  0.92990  0.20990  1.0000
  H   H345      1.0  0.54010  0.79990  0.92990  1.0000
  H   H346      1.0  0.20990  0.79990  0.82010  1.0000
  H   H347      1.0  0.54010  0.95010  0.82010  1.0000
  H   H348      1.0  0.20990  0.95010  0.92990  1.0000
  H   H349      1.0  0.92990  0.04010  0.29990  1.0000
  H   H350      1.0  0.79990  0.42990  0.04010  1.0000
  H   H351      1.0  0.54010  0.29990  0.42990  1.0000
  H   H352      1.0  0.42990  0.54010  0.29990  1.0000
  H   H353      1.0  0.29990  0.92990  0.04010  1.0000
  H   H354      1.0  0.04010  0.79990  0.42990  1.0000
  H   H355      1.0  0.42990  0.04010  0.79990  1.0000
  H   H356      1.0  0.29990  0.42990  0.54010  1.0000
  H   H357      1.0  0.04010  0.29990  0.92990  1.0000
  H   H358      1.0  0.82010  0.70990  0.29990  1.0000
  H   H359      1.0  0.82010  0.04010  0.45010  1.0000
  H   H360      1.0  0.92990  0.70990  0.45010  1.0000
  H   H361      1.0  0.79990  0.32010  0.70990  1.0000
  H   H362      1.0  0.95010  0.32010  0.04010  1.0000
  H   H363      1.0  0.95010  0.42990  0.70990  1.0000
  H   H364      1.0  0.20990  0.29990  0.32010  1.0000
  H   H365      1.0  0.54010  0.45010  0.32010  1.0000
  H   H366      1.0  0.20990  0.45010  0.42990  1.0000
  H   H367      1.0  0.32010  0.20990  0.29990  1.0000
  H   H368      1.0  0.32010  0.54010  0.45010  1.0000
  H   H369      1.0  0.42990  0.20990  0.45010  1.0000
  H   H370      1.0  0.29990  0.82010  0.70990  1.0000
  H   H371      1.0  0.45010  0.82010  0.04010  1.0000
  H   H372      1.0  0.45010  0.92990  0.70990  1.0000
  H   H373      1.0  0.70990  0.79990  0.32010  1.0000
  H   H374      1.0  0.04010  0.95010  0.32010  1.0000
  H   H375      1.0  0.70990  0.95010  0.42990  1.0000
  H   H376      1.0  0.32010  0.70990  0.79990  1.0000
  H   H377      1.0  0.32010  0.04010  0.95010  1.0000
  H   H378      1.0  0.42990  0.70990  0.95010  1.0000
  H   H379      1.0  0.29990  0.32010  0.20990  1.0000
  H   H380      1.0  0.45010  0.32010  0.54010  1.0000
  H   H381      1.0  0.45010  0.42990  0.20990  1.0000
  H   H382      1.0  0.70990  0.29990  0.82010  1.0000
  H   H383      1.0  0.04010  0.45010  0.82010  1.0000
  H   H384      1.0  0.70990  0.45010  0.92990  1.0000
  C   C673      1.0  0.97250  0.32700  0.25660  1.0000
  C   C674      1.0  0.27750  0.92300  0.25660  1.0000
  C   C675      1.0  0.27750  0.32700  0.99340  1.0000
  C   C676      1.0  0.97250  0.92300  0.99340  1.0000
  C   C677      1.0  0.25660  0.97250  0.32700  1.0000
  C   C678      1.0  0.25660  0.27750  0.92300  1.0000
  C   C679      1.0  0.99340  0.27750  0.32700  1.0000
  C   C680      1.0  0.99340  0.97250  0.92300  1.0000
  C   C681      1.0  0.32700  0.25660  0.97250  1.0000
  C   C682      1.0  0.92300  0.25660  0.27750  1.0000
  C   C683      1.0  0.32700  0.99340  0.27750  1.0000
  C   C684      1.0  0.92300  0.99340  0.97250  1.0000
  C   C685      1.0  0.97250  0.82700  0.75660  1.0000
  C   C686      1.0  0.25660  0.47250  0.82700  1.0000
  C   C687      1.0  0.32700  0.75660  0.47250  1.0000
  C   C688      1.0  0.47250  0.32700  0.75660  1.0000
  C   C689      1.0  0.75660  0.97250  0.82700  1.0000
  C   C690      1.0  0.82700  0.25660  0.47250  1.0000
  C   C691      1.0  0.47250  0.82700  0.25660  1.0000
  C   C692      1.0  0.75660  0.47250  0.32700  1.0000
  C   C693      1.0  0.82700  0.75660  0.97250  1.0000
  C   C694      1.0  0.27750  0.42300  0.75660  1.0000
  C   C695      1.0  0.27750  0.82700  0.49340  1.0000
  C   C696      1.0  0.97250  0.42300  0.49340  1.0000
  C   C697      1.0  0.25660  0.77750  0.42300  1.0000
  C   C698      1.0  0.99340  0.77750  0.82700  1.0000
  C   C699      1.0  0.99340  0.47250  0.42300  1.0000
  C   C700      1.0  0.92300  0.75660  0.77750  1.0000
  C   C701      1.0  0.32700  0.49340  0.77750  1.0000
  C   C702      1.0  0.92300  0.49340  0.47250  1.0000
  C   C703      1.0  0.77750  0.92300  0.75660  1.0000
  C   C704      1.0  0.77750  0.32700  0.49340  1.0000
  C   C705      1.0  0.47250  0.92300  0.49340  1.0000
  C   C706      1.0  0.75660  0.27750  0.42300  1.0000
  C   C707      1.0  0.49340  0.27750  0.82700  1.0000
  C   C708      1.0  0.49340  0.97250  0.42300  1.0000
  C   C709      1.0  0.42300  0.25660  0.77750  1.0000
  C   C710      1.0  0.82700  0.99340  0.77750  1.0000
  C   C711      1.0  0.42300  0.99340  0.47250  1.0000
  C   C712      1.0  0.77750  0.42300  0.25660  1.0000
  C   C713      1.0  0.77750  0.82700  0.99340  1.0000
  C   C714      1.0  0.47250  0.42300  0.99340  1.0000
  C   C715      1.0  0.75660  0.77750  0.92300  1.0000
  C   C716      1.0  0.49340  0.77750  0.32700  1.0000
  C   C717      1.0  0.49340  0.47250  0.92300  1.0000
  C   C718      1.0  0.42300  0.75660  0.27750  1.0000
  C   C719      1.0  0.82700  0.49340  0.27750  1.0000
  C   C720      1.0  0.42300  0.49340  0.97250  1.0000
  C   C721      1.0  0.02750  0.67300  0.74340  1.0000
  C   C722      1.0  0.72250  0.07700  0.74340  1.0000
  C   C723      1.0  0.72250  0.67300  0.00660  1.0000
  C   C724      1.0  0.02750  0.07700  0.00660  1.0000
  C   C725      1.0  0.74340  0.02750  0.67300  1.0000
  C   C726      1.0  0.74340  0.72250  0.07700  1.0000
  C   C727      1.0  0.00660  0.72250  0.67300  1.0000
  C   C728      1.0  0.00660  0.02750  0.07700  1.0000
  C   C729      1.0  0.67300  0.74340  0.02750  1.0000
  C   C730      1.0  0.07700  0.74340  0.72250  1.0000
  C   C731      1.0  0.67300  0.00660  0.72250  1.0000
  C   C732      1.0  0.07700  0.00660  0.02750  1.0000
  C   C733      1.0  0.02750  0.17300  0.24340  1.0000
  C   C734      1.0  0.74340  0.52750  0.17300  1.0000
  C   C735      1.0  0.67300  0.24340  0.52750  1.0000
  C   C736      1.0  0.52750  0.67300  0.24340  1.0000
  C   C737      1.0  0.24340  0.02750  0.17300  1.0000
  C   C738      1.0  0.17300  0.74340  0.52750  1.0000
  C   C739      1.0  0.52750  0.17300  0.74340  1.0000
  C   C740      1.0  0.24340  0.52750  0.67300  1.0000
  C   C741      1.0  0.17300  0.24340  0.02750  1.0000
  C   C742      1.0  0.72250  0.57700  0.24340  1.0000
  C   C743      1.0  0.72250  0.17300  0.50660  1.0000
  C   C744      1.0  0.02750  0.57700  0.50660  1.0000
  C   C745      1.0  0.74340  0.22250  0.57700  1.0000
  C   C746      1.0  0.00660  0.22250  0.17300  1.0000
  C   C747      1.0  0.00660  0.52750  0.57700  1.0000
  C   C748      1.0  0.07700  0.24340  0.22250  1.0000
  C   C749      1.0  0.67300  0.50660  0.22250  1.0000
  C   C750      1.0  0.07700  0.50660  0.52750  1.0000
  C   C751      1.0  0.22250  0.07700  0.24340  1.0000
  C   C752      1.0  0.22250  0.67300  0.50660  1.0000
  C   C753      1.0  0.52750  0.07700  0.50660  1.0000
  C   C754      1.0  0.24340  0.72250  0.57700  1.0000
  C   C755      1.0  0.50660  0.72250  0.17300  1.0000
  C   C756      1.0  0.50660  0.02750  0.57700  1.0000
  C   C757      1.0  0.57700  0.74340  0.22250  1.0000
  C   C758      1.0  0.17300  0.00660  0.22250  1.0000
  C   C759      1.0  0.57700  0.00660  0.52750  1.0000
  C   C760      1.0  0.22250  0.57700  0.74340  1.0000
  C   C761      1.0  0.22250  0.17300  0.00660  1.0000
  C   C762      1.0  0.52750  0.57700  0.00660  1.0000
  C   C763      1.0  0.24340  0.22250  0.07700  1.0000
  C   C764      1.0  0.50660  0.22250  0.67300  1.0000
  C   C765      1.0  0.50660  0.52750  0.07700  1.0000
  C   C766      1.0  0.57700  0.24340  0.72250  1.0000
  C   C767      1.0  0.17300  0.50660  0.72250  1.0000
  C   C768      1.0  0.57700  0.50660  0.02750  1.0000
