data_image0
_chemical_formula_structural       C16H16C8H16C8H16C8H16C8H16C8H16C8H16C24H16C8H16C8H16C8H16C8H16C8H16C8H16C24H16C8H16C8H16C8H16C8H16C8H16C8H16C8O128U16
_chemical_formula_sum              "C216 H336 O128 U16"
_cell_length_a       25.4837
_cell_length_b       15.9313
_cell_length_c       25.4808
_cell_angle_alpha    90
_cell_angle_beta     118.76
_cell_angle_gamma    90

_space_group_name_H-M_alt    "P 1"
_space_group_IT_number       1

loop_
  _space_group_symop_operation_xyz
  'x, y, z'

loop_
  _atom_site_type_symbol
  _atom_site_label
  _atom_site_symmetry_multiplicity
  _atom_site_fract_x
  _atom_site_fract_y
  _atom_site_fract_z
  _atom_site_occupancy
  C   C1        1.0  0.66190  0.87830  0.38970  1.0000
  C   C2        1.0  0.33810  0.87830  0.11030  1.0000
  C   C3        1.0  0.16190  0.37830  0.38970  1.0000
  C   C4        1.0  0.83810  0.37830  0.11030  1.0000
  C   C5        1.0  0.33810  0.12170  0.61030  1.0000
  C   C6        1.0  0.66190  0.12170  0.88970  1.0000
  C   C7        1.0  0.83810  0.62170  0.61030  1.0000
  C   C8        1.0  0.16190  0.62170  0.88970  1.0000
  C   C9        1.0  0.63360  0.91140  0.42570  1.0000
  C   C10       1.0  0.36640  0.91140  0.07430  1.0000
  C   C11       1.0  0.13360  0.41140  0.42570  1.0000
  C   C12       1.0  0.86640  0.41140  0.07430  1.0000
  C   C13       1.0  0.36640  0.08860  0.57430  1.0000
  C   C14       1.0  0.63360  0.08860  0.92570  1.0000
  C   C15       1.0  0.86640  0.58860  0.57430  1.0000
  C   C16       1.0  0.13360  0.58860  0.92570  1.0000
  H   H1        1.0  0.62590  0.86460  0.44530  1.0000
  H   H2        1.0  0.37410  0.86460  0.05470  1.0000
  H   H3        1.0  0.12590  0.36460  0.44530  1.0000
  H   H4        1.0  0.87410  0.36460  0.05470  1.0000
  H   H5        1.0  0.37410  0.13540  0.55470  1.0000
  H   H6        1.0  0.62590  0.13540  0.94530  1.0000
  H   H7        1.0  0.87410  0.63540  0.55470  1.0000
  H   H8        1.0  0.12590  0.63540  0.94530  1.0000
  H   H9        1.0  0.66200  0.94830  0.45670  1.0000
  H   H10       1.0  0.33800  0.94830  0.04330  1.0000
  H   H11       1.0  0.16200  0.44830  0.45670  1.0000
  H   H12       1.0  0.83800  0.44830  0.04330  1.0000
  H   H13       1.0  0.33800  0.05170  0.54330  1.0000
  H   H14       1.0  0.66200  0.05170  0.95670  1.0000
  H   H15       1.0  0.83800  0.55170  0.54330  1.0000
  H   H16       1.0  0.16200  0.55170  0.95670  1.0000
  C   C17       1.0  0.57580  0.95880  0.38990  1.0000
  C   C18       1.0  0.42420  0.95880  0.11010  1.0000
  C   C19       1.0  0.07580  0.45880  0.38990  1.0000
  C   C20       1.0  0.92420  0.45880  0.11010  1.0000
  C   C21       1.0  0.42420  0.04120  0.61010  1.0000
  C   C22       1.0  0.57580  0.04120  0.88990  1.0000
  C   C23       1.0  0.92420  0.54120  0.61010  1.0000
  C   C24       1.0  0.07580  0.54120  0.88990  1.0000
  H   H17       1.0  0.54780  0.92320  0.35770  1.0000
  H   H18       1.0  0.45220  0.92320  0.14230  1.0000
  H   H19       1.0  0.04780  0.42320  0.35770  1.0000
  H   H20       1.0  0.95220  0.42320  0.14230  1.0000
  H   H21       1.0  0.45220  0.07680  0.64230  1.0000
  H   H22       1.0  0.54780  0.07680  0.85770  1.0000
  H   H23       1.0  0.95220  0.57680  0.64230  1.0000
  H   H24       1.0  0.04780  0.57680  0.85770  1.0000
  H   H25       1.0  0.58360  0.00770  0.37200  1.0000
  H   H26       1.0  0.41640  0.00770  0.12800  1.0000
  H   H27       1.0  0.08360  0.50770  0.37200  1.0000
  H   H28       1.0  0.91640  0.50770  0.12800  1.0000
  H   H29       1.0  0.41640  0.99230  0.62800  1.0000
  H   H30       1.0  0.58360  0.99230  0.87200  1.0000
  H   H31       1.0  0.91640  0.49230  0.62800  1.0000
  H   H32       1.0  0.08360  0.49230  0.87200  1.0000
  C   C25       1.0  0.54732  0.98710  0.42732  1.0000
  C   C26       1.0  0.45268  0.98710  0.07268  1.0000
  C   C27       1.0  0.04732  0.48710  0.42732  1.0000
  C   C28       1.0  0.95268  0.48710  0.07268  1.0000
  C   C29       1.0  0.45268  0.01290  0.57268  1.0000
  C   C30       1.0  0.54732  0.01290  0.92732  1.0000
  C   C31       1.0  0.95268  0.51290  0.57268  1.0000
  C   C32       1.0  0.04732  0.51290  0.92732  1.0000
  H   H33       1.0  0.57630  0.01930  0.46120  1.0000
  H   H34       1.0  0.42370  0.01930  0.03880  1.0000
  H   H35       1.0  0.07630  0.51930  0.46120  1.0000
  H   H36       1.0  0.92370  0.51930  0.03880  1.0000
  H   H37       1.0  0.42370  0.98070  0.53880  1.0000
  H   H38       1.0  0.57630  0.98070  0.96120  1.0000
  H   H39       1.0  0.92370  0.48070  0.53880  1.0000
  H   H40       1.0  0.07630  0.48070  0.96120  1.0000
  H   H41       1.0  0.53670  0.93810  0.44280  1.0000
  H   H42       1.0  0.46330  0.93810  0.05720  1.0000
  H   H43       1.0  0.03670  0.43810  0.44280  1.0000
  H   H44       1.0  0.96330  0.43810  0.05720  1.0000
  H   H45       1.0  0.46330  0.06190  0.55720  1.0000
  H   H46       1.0  0.53670  0.06190  0.94280  1.0000
  H   H47       1.0  0.96330  0.56190  0.55720  1.0000
  H   H48       1.0  0.03670  0.56190  0.94280  1.0000
  C   C33       1.0  0.49170  0.04030  0.39197  1.0000
  C   C34       1.0  0.50830  0.04030  0.10803  1.0000
  C   C35       1.0  0.99170  0.54030  0.39197  1.0000
  C   C36       1.0  0.00830  0.54030  0.10803  1.0000
  C   C37       1.0  0.50830  0.95970  0.60803  1.0000
  C   C38       1.0  0.49170  0.95970  0.89197  1.0000
  C   C39       1.0  0.00830  0.45970  0.60803  1.0000
  C   C40       1.0  0.99170  0.45970  0.89197  1.0000
  H   H49       1.0  0.50230  0.08750  0.37490  1.0000
  H   H50       1.0  0.49770  0.08750  0.12510  1.0000
  H   H51       1.0  0.00230  0.58750  0.37490  1.0000
  H   H52       1.0  0.99770  0.58750  0.12510  1.0000
  H   H53       1.0  0.49770  0.91250  0.62510  1.0000
  H   H54       1.0  0.50230  0.91250  0.87490  1.0000
  H   H55       1.0  0.99770  0.41250  0.62510  1.0000
  H   H56       1.0  0.00230  0.41250  0.87490  1.0000
  H   H57       1.0  0.46240  0.00690  0.35910  1.0000
  H   H58       1.0  0.53760  0.00690  0.14090  1.0000
  H   H59       1.0  0.96240  0.50690  0.35910  1.0000
  H   H60       1.0  0.03760  0.50690  0.14090  1.0000
  H   H61       1.0  0.53760  0.99310  0.64090  1.0000
  H   H62       1.0  0.46240  0.99310  0.85910  1.0000
  H   H63       1.0  0.03760  0.49310  0.64090  1.0000
  H   H64       1.0  0.96240  0.49310  0.85910  1.0000
  C   C41       1.0  0.46302  0.07350  0.42783  1.0000
  C   C42       1.0  0.53698  0.07350  0.07217  1.0000
  C   C43       1.0  0.96302  0.57350  0.42783  1.0000
  C   C44       1.0  0.03698  0.57350  0.07217  1.0000
  C   C45       1.0  0.53698  0.92650  0.57217  1.0000
  C   C46       1.0  0.46302  0.92650  0.92783  1.0000
  C   C47       1.0  0.03698  0.42650  0.57217  1.0000
  C   C48       1.0  0.96302  0.42650  0.92783  1.0000
  H   H65       1.0  0.49230  0.10610  0.46130  1.0000
  H   H66       1.0  0.50770  0.10610  0.03870  1.0000
  H   H67       1.0  0.99230  0.60610  0.46130  1.0000
  H   H68       1.0  0.00770  0.60610  0.03870  1.0000
  H   H69       1.0  0.50770  0.89390  0.53870  1.0000
  H   H70       1.0  0.49230  0.89390  0.96130  1.0000
  H   H71       1.0  0.00770  0.39390  0.53870  1.0000
  H   H72       1.0  0.99230  0.39390  0.96130  1.0000
  H   H73       1.0  0.45110  0.02650  0.44400  1.0000
  H   H74       1.0  0.54890  0.02650  0.05600  1.0000
  H   H75       1.0  0.95110  0.52650  0.44400  1.0000
  H   H76       1.0  0.04890  0.52650  0.05600  1.0000
  H   H77       1.0  0.54890  0.97350  0.55600  1.0000
  H   H78       1.0  0.45110  0.97350  0.94400  1.0000
  H   H79       1.0  0.04890  0.47350  0.55600  1.0000
  H   H80       1.0  0.95110  0.47350  0.94400  1.0000
  C   C49       1.0  0.40857  0.12800  0.39071  1.0000
  C   C50       1.0  0.59143  0.12800  0.10929  1.0000
  C   C51       1.0  0.90857  0.62800  0.39071  1.0000
  C   C52       1.0  0.09143  0.62800  0.10929  1.0000
  C   C53       1.0  0.59143  0.87200  0.60929  1.0000
  C   C54       1.0  0.40857  0.87200  0.89071  1.0000
  C   C55       1.0  0.09143  0.37200  0.60929  1.0000
  C   C56       1.0  0.90857  0.37200  0.89071  1.0000
  H   H81       1.0  0.42020  0.17380  0.37340  1.0000
  H   H82       1.0  0.57980  0.17380  0.12660  1.0000
  H   H83       1.0  0.92020  0.67380  0.37340  1.0000
  H   H84       1.0  0.07980  0.67380  0.12660  1.0000
  H   H85       1.0  0.57980  0.82620  0.62660  1.0000
  H   H86       1.0  0.42020  0.82620  0.87340  1.0000
  H   H87       1.0  0.07980  0.32620  0.62660  1.0000
  H   H88       1.0  0.92020  0.32620  0.87340  1.0000
  H   H89       1.0  0.37880  0.09470  0.35800  1.0000
  H   H90       1.0  0.62120  0.09470  0.14200  1.0000
  H   H91       1.0  0.87880  0.59470  0.35800  1.0000
  H   H92       1.0  0.12120  0.59470  0.14200  1.0000
  H   H93       1.0  0.62120  0.90530  0.64200  1.0000
  H   H94       1.0  0.37880  0.90530  0.85800  1.0000
  H   H95       1.0  0.12120  0.40530  0.64200  1.0000
  H   H96       1.0  0.87880  0.40530  0.85800  1.0000
  C   C57       1.0  0.38070  0.16380  0.42650  1.0000
  C   C58       1.0  0.61930  0.16380  0.07350  1.0000
  C   C59       1.0  0.88070  0.66380  0.42650  1.0000
  C   C60       1.0  0.11930  0.66380  0.07350  1.0000
  C   C61       1.0  0.61930  0.83620  0.57350  1.0000
  C   C62       1.0  0.38070  0.83620  0.92650  1.0000
  C   C63       1.0  0.11930  0.33620  0.57350  1.0000
  C   C64       1.0  0.88070  0.33620  0.92650  1.0000
  H   H97       1.0  0.37290  0.11810  0.44690  1.0000
  H   H98       1.0  0.62710  0.11810  0.05310  1.0000
  H   H99       1.0  0.87290  0.61810  0.44690  1.0000
  H   H100      1.0  0.12710  0.61810  0.05310  1.0000
  H   H101      1.0  0.62710  0.88190  0.55310  1.0000
  H   H102      1.0  0.37290  0.88190  0.94690  1.0000
  H   H103      1.0  0.12710  0.38190  0.55310  1.0000
  H   H104      1.0  0.87290  0.38190  0.94690  1.0000
  H   H105      1.0  0.40960  0.20080  0.45690  1.0000
  H   H106      1.0  0.59040  0.20080  0.04310  1.0000
  H   H107      1.0  0.90960  0.70080  0.45690  1.0000
  H   H108      1.0  0.09040  0.70080  0.04310  1.0000
  H   H109      1.0  0.59040  0.79920  0.54310  1.0000
  H   H110      1.0  0.40960  0.79920  0.95690  1.0000
  H   H111      1.0  0.09040  0.29920  0.54310  1.0000
  H   H112      1.0  0.90960  0.29920  0.95690  1.0000
  C   C65       1.0  0.32368  0.21170  0.39080  1.0000
  C   C66       1.0  0.67632  0.21170  0.10920  1.0000
  C   C67       1.0  0.82368  0.71170  0.39080  1.0000
  C   C68       1.0  0.17632  0.71170  0.10920  1.0000
  C   C69       1.0  0.67632  0.78830  0.60920  1.0000
  C   C70       1.0  0.32368  0.78830  0.89080  1.0000
  C   C71       1.0  0.17632  0.28830  0.60920  1.0000
  C   C72       1.0  0.82368  0.28830  0.89080  1.0000
  C   C73       1.0  0.16700  0.33170  0.20070  1.0000
  C   C74       1.0  0.83300  0.33170  0.29930  1.0000
  C   C75       1.0  0.66700  0.83170  0.20070  1.0000
  C   C76       1.0  0.33300  0.83170  0.29930  1.0000
  C   C77       1.0  0.83300  0.66830  0.79930  1.0000
  C   C78       1.0  0.16700  0.66830  0.70070  1.0000
  C   C79       1.0  0.33300  0.16830  0.79930  1.0000
  C   C80       1.0  0.66700  0.16830  0.70070  1.0000
  C   C81       1.0  0.14080  0.34750  0.13510  1.0000
  C   C82       1.0  0.85920  0.34750  0.36490  1.0000
  C   C83       1.0  0.64080  0.84750  0.13510  1.0000
  C   C84       1.0  0.35920  0.84750  0.36490  1.0000
  C   C85       1.0  0.85920  0.65250  0.86490  1.0000
  C   C86       1.0  0.14080  0.65250  0.63510  1.0000
  C   C87       1.0  0.35920  0.15250  0.86490  1.0000
  C   C88       1.0  0.64080  0.15250  0.63510  1.0000
  H   H113      1.0  0.11080  0.39120  0.12340  1.0000
  H   H114      1.0  0.88920  0.39120  0.37660  1.0000
  H   H115      1.0  0.61080  0.89120  0.12340  1.0000
  H   H116      1.0  0.38920  0.89120  0.37660  1.0000
  H   H117      1.0  0.88920  0.60880  0.87660  1.0000
  H   H118      1.0  0.11080  0.60880  0.62340  1.0000
  H   H119      1.0  0.38920  0.10880  0.87660  1.0000
  H   H120      1.0  0.61080  0.10880  0.62340  1.0000
  H   H121      1.0  0.12110  0.29680  0.11340  1.0000
  H   H122      1.0  0.87890  0.29680  0.38660  1.0000
  H   H123      1.0  0.62110  0.79680  0.11340  1.0000
  H   H124      1.0  0.37890  0.79680  0.38660  1.0000
  H   H125      1.0  0.87890  0.70320  0.88660  1.0000
  H   H126      1.0  0.12110  0.70320  0.61340  1.0000
  H   H127      1.0  0.37890  0.20320  0.88660  1.0000
  H   H128      1.0  0.62110  0.20320  0.61340  1.0000
  C   C89       1.0  0.18800  0.37390  0.11760  1.0000
  C   C90       1.0  0.81200  0.37390  0.38240  1.0000
  C   C91       1.0  0.68800  0.87390  0.11760  1.0000
  C   C92       1.0  0.31200  0.87390  0.38240  1.0000
  C   C93       1.0  0.81200  0.62610  0.88240  1.0000
  C   C94       1.0  0.18800  0.62610  0.61760  1.0000
  C   C95       1.0  0.31200  0.12610  0.88240  1.0000
  C   C96       1.0  0.68800  0.12610  0.61760  1.0000
  H   H129      1.0  0.21710  0.32900  0.12800  1.0000
  H   H130      1.0  0.78290  0.32900  0.37200  1.0000
  H   H131      1.0  0.71710  0.82900  0.12800  1.0000
  H   H132      1.0  0.28290  0.82900  0.37200  1.0000
  H   H133      1.0  0.78290  0.67100  0.87200  1.0000
  H   H134      1.0  0.21710  0.67100  0.62800  1.0000
  H   H135      1.0  0.28290  0.17100  0.87200  1.0000
  H   H136      1.0  0.71710  0.17100  0.62800  1.0000
  H   H137      1.0  0.16870  0.38120  0.07450  1.0000
  H   H138      1.0  0.83130  0.38120  0.42550  1.0000
  H   H139      1.0  0.66870  0.88120  0.07450  1.0000
  H   H140      1.0  0.33130  0.88120  0.42550  1.0000
  H   H141      1.0  0.83130  0.61880  0.92550  1.0000
  H   H142      1.0  0.16870  0.61880  0.57450  1.0000
  H   H143      1.0  0.33130  0.11880  0.92550  1.0000
  H   H144      1.0  0.66870  0.11880  0.57450  1.0000
  C   C97       1.0  0.22030  0.45300  0.14690  1.0000
  C   C98       1.0  0.77970  0.45300  0.35310  1.0000
  C   C99       1.0  0.72030  0.95300  0.14690  1.0000
  C   C100      1.0  0.27970  0.95300  0.35310  1.0000
  C   C101      1.0  0.77970  0.54700  0.85310  1.0000
  C   C102      1.0  0.22030  0.54700  0.64690  1.0000
  C   C103      1.0  0.27970  0.04700  0.85310  1.0000
  C   C104      1.0  0.72030  0.04700  0.64690  1.0000
  H   H145      1.0  0.23900  0.44560  0.18990  1.0000
  H   H146      1.0  0.76100  0.44560  0.31010  1.0000
  H   H147      1.0  0.73900  0.94560  0.18990  1.0000
  H   H148      1.0  0.26100  0.94560  0.31010  1.0000
  H   H149      1.0  0.76100  0.55440  0.81010  1.0000
  H   H150      1.0  0.23900  0.55440  0.68990  1.0000
  H   H151      1.0  0.26100  0.05440  0.81010  1.0000
  H   H152      1.0  0.73900  0.05440  0.68990  1.0000
  H   H153      1.0  0.19110  0.49770  0.13620  1.0000
  H   H154      1.0  0.80890  0.49770  0.36380  1.0000
  H   H155      1.0  0.69110  0.99770  0.13620  1.0000
  H   H156      1.0  0.30890  0.99770  0.36380  1.0000
  H   H157      1.0  0.80890  0.50230  0.86380  1.0000
  H   H158      1.0  0.19110  0.50230  0.63620  1.0000
  H   H159      1.0  0.30890  0.00230  0.86380  1.0000
  H   H160      1.0  0.69110  0.00230  0.63620  1.0000
  C   C105      1.0  0.26850  0.48110  0.13090  1.0000
  C   C106      1.0  0.73150  0.48110  0.36910  1.0000
  C   C107      1.0  0.76850  0.98110  0.13090  1.0000
  C   C108      1.0  0.23150  0.98110  0.36910  1.0000
  C   C109      1.0  0.73150  0.51890  0.86910  1.0000
  C   C110      1.0  0.26850  0.51890  0.63090  1.0000
  C   C111      1.0  0.23150  0.01890  0.86910  1.0000
  C   C112      1.0  0.76850  0.01890  0.63090  1.0000
  H   H161      1.0  0.24980  0.49190  0.08820  1.0000
  H   H162      1.0  0.75020  0.49190  0.41180  1.0000
  H   H163      1.0  0.74980  0.99190  0.08820  1.0000
  H   H164      1.0  0.25020  0.99190  0.41180  1.0000
  H   H165      1.0  0.75020  0.50810  0.91180  1.0000
  H   H166      1.0  0.24980  0.50810  0.58820  1.0000
  H   H167      1.0  0.25020  0.00810  0.91180  1.0000
  H   H168      1.0  0.74980  0.00810  0.58820  1.0000
  H   H169      1.0  0.28600  0.53330  0.15150  1.0000
  H   H170      1.0  0.71400  0.53330  0.34850  1.0000
  H   H171      1.0  0.78600  0.03330  0.15150  1.0000
  H   H172      1.0  0.21400  0.03330  0.34850  1.0000
  H   H173      1.0  0.71400  0.46670  0.84850  1.0000
  H   H174      1.0  0.28600  0.46670  0.65150  1.0000
  H   H175      1.0  0.21400  0.96670  0.84850  1.0000
  H   H176      1.0  0.78600  0.96670  0.65150  1.0000
  C   C113      1.0  0.31730  0.41740  0.14720  1.0000
  C   C114      1.0  0.68270  0.41740  0.35280  1.0000
  C   C115      1.0  0.81730  0.91740  0.14720  1.0000
  C   C116      1.0  0.18270  0.91740  0.35280  1.0000
  C   C117      1.0  0.68270  0.58260  0.85280  1.0000
  C   C118      1.0  0.31730  0.58260  0.64720  1.0000
  C   C119      1.0  0.18270  0.08260  0.85280  1.0000
  C   C120      1.0  0.81730  0.08260  0.64720  1.0000
  H   H177      1.0  0.30160  0.37110  0.11920  1.0000
  H   H178      1.0  0.69840  0.37110  0.38080  1.0000
  H   H179      1.0  0.80160  0.87110  0.11920  1.0000
  H   H180      1.0  0.19840  0.87110  0.38080  1.0000
  H   H181      1.0  0.69840  0.62890  0.88080  1.0000
  H   H182      1.0  0.30160  0.62890  0.61920  1.0000
  H   H183      1.0  0.19840  0.12890  0.88080  1.0000
  H   H184      1.0  0.80160  0.12890  0.61920  1.0000
  H   H185      1.0  0.32810  0.39550  0.18670  1.0000
  H   H186      1.0  0.67190  0.39550  0.31330  1.0000
  H   H187      1.0  0.82810  0.89550  0.18670  1.0000
  H   H188      1.0  0.17190  0.89550  0.31330  1.0000
  H   H189      1.0  0.67190  0.60450  0.81330  1.0000
  H   H190      1.0  0.32810  0.60450  0.68670  1.0000
  H   H191      1.0  0.17190  0.10450  0.81330  1.0000
  H   H192      1.0  0.82810  0.10450  0.68670  1.0000
  C   C121      1.0  0.37390  0.44960  0.14780  1.0000
  C   C122      1.0  0.62610  0.44960  0.35220  1.0000
  C   C123      1.0  0.87390  0.94960  0.14780  1.0000
  C   C124      1.0  0.12610  0.94960  0.35220  1.0000
  C   C125      1.0  0.62610  0.55040  0.85220  1.0000
  C   C126      1.0  0.37390  0.55040  0.64780  1.0000
  C   C127      1.0  0.12610  0.05040  0.85220  1.0000
  C   C128      1.0  0.87390  0.05040  0.64780  1.0000
  H   H193      1.0  0.39990  0.40240  0.15280  1.0000
  H   H194      1.0  0.60010  0.40240  0.34720  1.0000
  H   H195      1.0  0.89990  0.90240  0.15280  1.0000
  H   H196      1.0  0.10010  0.90240  0.34720  1.0000
  H   H197      1.0  0.60010  0.59760  0.84720  1.0000
  H   H198      1.0  0.39990  0.59760  0.65280  1.0000
  H   H199      1.0  0.10010  0.09760  0.84720  1.0000
  H   H200      1.0  0.89990  0.09760  0.65280  1.0000
  H   H201      1.0  0.36300  0.47510  0.10930  1.0000
  H   H202      1.0  0.63700  0.47510  0.39070  1.0000
  H   H203      1.0  0.86300  0.97510  0.10930  1.0000
  H   H204      1.0  0.13700  0.97510  0.39070  1.0000
  H   H205      1.0  0.63700  0.52490  0.89070  1.0000
  H   H206      1.0  0.36300  0.52490  0.60930  1.0000
  H   H207      1.0  0.13700  0.02490  0.89070  1.0000
  H   H208      1.0  0.86300  0.02490  0.60930  1.0000
  C   C129      1.0  0.40810  0.51280  0.19638  1.0000
  C   C130      1.0  0.59190  0.51280  0.30362  1.0000
  C   C131      1.0  0.90810  0.01280  0.19638  1.0000
  C   C132      1.0  0.09190  0.01280  0.30362  1.0000
  C   C133      1.0  0.59190  0.48720  0.80362  1.0000
  C   C134      1.0  0.40810  0.48720  0.69638  1.0000
  C   C135      1.0  0.09190  0.98720  0.80362  1.0000
  C   C136      1.0  0.90810  0.98720  0.69638  1.0000
  H   H209      1.0  0.38430  0.56350  0.18840  1.0000
  H   H210      1.0  0.61570  0.56350  0.31160  1.0000
  H   H211      1.0  0.88430  0.06350  0.18840  1.0000
  H   H212      1.0  0.11570  0.06350  0.31160  1.0000
  H   H213      1.0  0.61570  0.43650  0.81160  1.0000
  H   H214      1.0  0.38430  0.43650  0.68840  1.0000
  H   H215      1.0  0.11570  0.93650  0.81160  1.0000
  H   H216      1.0  0.88430  0.93650  0.68840  1.0000
  H   H217      1.0  0.44480  0.52730  0.19590  1.0000
  H   H218      1.0  0.55520  0.52730  0.30410  1.0000
  H   H219      1.0  0.94480  0.02730  0.19590  1.0000
  H   H220      1.0  0.05520  0.02730  0.30410  1.0000
  H   H221      1.0  0.55520  0.47270  0.80410  1.0000
  H   H222      1.0  0.44480  0.47270  0.69590  1.0000
  H   H223      1.0  0.05520  0.97270  0.80410  1.0000
  H   H224      1.0  0.94480  0.97270  0.69590  1.0000
  C   C137      1.0  0.42322  0.48030  0.25759  1.0000
  C   C138      1.0  0.57678  0.48030  0.24241  1.0000
  C   C139      1.0  0.92322  0.98030  0.25759  1.0000
  C   C140      1.0  0.07678  0.98030  0.24241  1.0000
  C   C141      1.0  0.57678  0.51970  0.74241  1.0000
  C   C142      1.0  0.42322  0.51970  0.75759  1.0000
  C   C143      1.0  0.07678  0.01970  0.74241  1.0000
  C   C144      1.0  0.92322  0.01970  0.75759  1.0000
  C   C145      1.0  0.03872  0.78820  0.42730  1.0000
  C   C146      1.0  0.96128  0.78820  0.07270  1.0000
  C   C147      1.0  0.53872  0.28820  0.42730  1.0000
  C   C148      1.0  0.46128  0.28820  0.07270  1.0000
  C   C149      1.0  0.96128  0.21180  0.57270  1.0000
  C   C150      1.0  0.03872  0.21180  0.92730  1.0000
  C   C151      1.0  0.46128  0.71180  0.57270  1.0000
  C   C152      1.0  0.53872  0.71180  0.92730  1.0000
  C   C153      1.0  0.09413  0.73510  0.46120  1.0000
  C   C154      1.0  0.90587  0.73510  0.03880  1.0000
  C   C155      1.0  0.59413  0.23510  0.46120  1.0000
  C   C156      1.0  0.40587  0.23510  0.03880  1.0000
  C   C157      1.0  0.90587  0.26490  0.53880  1.0000
  C   C158      1.0  0.09413  0.26490  0.96120  1.0000
  C   C159      1.0  0.40587  0.76490  0.53880  1.0000
  C   C160      1.0  0.59413  0.76490  0.96120  1.0000
  H   H225      1.0  0.08280  0.68330  0.47320  1.0000
  H   H226      1.0  0.91720  0.68330  0.02680  1.0000
  H   H227      1.0  0.58280  0.18330  0.47320  1.0000
  H   H228      1.0  0.41720  0.18330  0.02680  1.0000
  H   H229      1.0  0.91720  0.31670  0.52680  1.0000
  H   H230      1.0  0.08280  0.31670  0.97320  1.0000
  H   H231      1.0  0.41720  0.81670  0.52680  1.0000
  H   H232      1.0  0.58280  0.81670  0.97320  1.0000
  H   H233      1.0  0.12150  0.76460  0.49750  1.0000
  H   H234      1.0  0.87850  0.76460  0.00250  1.0000
  H   H235      1.0  0.62150  0.26460  0.49750  1.0000
  H   H236      1.0  0.37850  0.26460  0.00250  1.0000
  H   H237      1.0  0.87850  0.23540  0.50250  1.0000
  H   H238      1.0  0.12150  0.23540  0.99750  1.0000
  H   H239      1.0  0.37850  0.73540  0.50250  1.0000
  H   H240      1.0  0.62150  0.73540  0.99750  1.0000
  C   C161      1.0  0.12679  0.71340  0.42660  1.0000
  C   C162      1.0  0.87321  0.71340  0.07340  1.0000
  C   C163      1.0  0.62679  0.21340  0.42660  1.0000
  C   C164      1.0  0.37321  0.21340  0.07340  1.0000
  C   C165      1.0  0.87321  0.28660  0.57340  1.0000
  C   C166      1.0  0.12679  0.28660  0.92660  1.0000
  C   C167      1.0  0.37321  0.78660  0.57340  1.0000
  C   C168      1.0  0.62679  0.78660  0.92660  1.0000
  H   H241      1.0  0.13740  0.76490  0.41370  1.0000
  H   H242      1.0  0.86260  0.76490  0.08630  1.0000
  H   H243      1.0  0.63740  0.26490  0.41370  1.0000
  H   H244      1.0  0.36260  0.26490  0.08630  1.0000
  H   H245      1.0  0.86260  0.23510  0.58630  1.0000
  H   H246      1.0  0.13740  0.23510  0.91370  1.0000
  H   H247      1.0  0.36260  0.73510  0.58630  1.0000
  H   H248      1.0  0.63740  0.73510  0.91370  1.0000
  H   H249      1.0  0.10010  0.68190  0.39110  1.0000
  H   H250      1.0  0.89990  0.68190  0.10890  1.0000
  H   H251      1.0  0.60010  0.18190  0.39110  1.0000
  H   H252      1.0  0.39990  0.18190  0.10890  1.0000
  H   H253      1.0  0.89990  0.31810  0.60890  1.0000
  H   H254      1.0  0.10010  0.31810  0.89110  1.0000
  H   H255      1.0  0.39990  0.81810  0.60890  1.0000
  H   H256      1.0  0.60010  0.81810  0.89110  1.0000
  C   C169      1.0  0.18328  0.66210  0.46327  1.0000
  C   C170      1.0  0.81672  0.66210  0.03673  1.0000
  C   C171      1.0  0.68328  0.16210  0.46327  1.0000
  C   C172      1.0  0.31672  0.16210  0.03673  1.0000
  C   C173      1.0  0.81672  0.33790  0.53673  1.0000
  C   C174      1.0  0.18328  0.33790  0.96327  1.0000
  C   C175      1.0  0.31672  0.83790  0.53673  1.0000
  C   C176      1.0  0.68328  0.83790  0.96327  1.0000
  H   H257      1.0  0.20950  0.69340  0.49910  1.0000
  H   H258      1.0  0.79050  0.69340  0.00090  1.0000
  H   H259      1.0  0.70950  0.19340  0.49910  1.0000
  H   H260      1.0  0.29050  0.19340  0.00090  1.0000
  H   H261      1.0  0.79050  0.30660  0.50090  1.0000
  H   H262      1.0  0.20950  0.30660  0.99910  1.0000
  H   H263      1.0  0.29050  0.80660  0.50090  1.0000
  H   H264      1.0  0.70950  0.80660  0.99910  1.0000
  H   H265      1.0  0.17240  0.61040  0.47570  1.0000
  H   H266      1.0  0.82760  0.61040  0.02430  1.0000
  H   H267      1.0  0.67240  0.11040  0.47570  1.0000
  H   H268      1.0  0.32760  0.11040  0.02430  1.0000
  H   H269      1.0  0.82760  0.38960  0.52430  1.0000
  H   H270      1.0  0.17240  0.38960  0.97570  1.0000
  H   H271      1.0  0.32760  0.88960  0.52430  1.0000
  H   H272      1.0  0.67240  0.88960  0.97570  1.0000
  C   C177      1.0  0.21733  0.64070  0.42984  1.0000
  C   C178      1.0  0.78267  0.64070  0.07016  1.0000
  C   C179      1.0  0.71733  0.14070  0.42984  1.0000
  C   C180      1.0  0.28267  0.14070  0.07016  1.0000
  C   C181      1.0  0.78267  0.35930  0.57016  1.0000
  C   C182      1.0  0.21733  0.35930  0.92984  1.0000
  C   C183      1.0  0.28267  0.85930  0.57016  1.0000
  C   C184      1.0  0.71733  0.85930  0.92984  1.0000
  H   H273      1.0  0.19060  0.61110  0.39340  1.0000
  H   H274      1.0  0.80940  0.61110  0.10660  1.0000
  H   H275      1.0  0.69060  0.11110  0.39340  1.0000
  H   H276      1.0  0.30940  0.11110  0.10660  1.0000
  H   H277      1.0  0.80940  0.38890  0.60660  1.0000
  H   H278      1.0  0.19060  0.38890  0.89340  1.0000
  H   H279      1.0  0.30940  0.88890  0.60660  1.0000
  H   H280      1.0  0.69060  0.88890  0.89340  1.0000
  H   H281      1.0  0.22920  0.69250  0.41850  1.0000
  H   H282      1.0  0.77080  0.69250  0.08150  1.0000
  H   H283      1.0  0.72920  0.19250  0.41850  1.0000
  H   H284      1.0  0.27080  0.19250  0.08150  1.0000
  H   H285      1.0  0.77080  0.30750  0.58150  1.0000
  H   H286      1.0  0.22920  0.30750  0.91850  1.0000
  H   H287      1.0  0.27080  0.80750  0.58150  1.0000
  H   H288      1.0  0.72920  0.80750  0.91850  1.0000
  C   C185      1.0  0.27231  0.58760  0.46509  1.0000
  C   C186      1.0  0.72769  0.58760  0.03491  1.0000
  C   C187      1.0  0.77231  0.08760  0.46509  1.0000
  C   C188      1.0  0.22769  0.08760  0.03491  1.0000
  C   C189      1.0  0.72769  0.41240  0.53491  1.0000
  C   C190      1.0  0.27231  0.41240  0.96509  1.0000
  C   C191      1.0  0.22769  0.91240  0.53491  1.0000
  C   C192      1.0  0.77231  0.91240  0.96509  1.0000
  H   H289      1.0  0.26040  0.53580  0.47650  1.0000
  H   H290      1.0  0.73960  0.53580  0.02350  1.0000
  H   H291      1.0  0.76040  0.03580  0.47650  1.0000
  H   H292      1.0  0.23960  0.03580  0.02350  1.0000
  H   H293      1.0  0.73960  0.46420  0.52350  1.0000
  H   H294      1.0  0.26040  0.46420  0.97650  1.0000
  H   H295      1.0  0.23960  0.96420  0.52350  1.0000
  H   H296      1.0  0.76040  0.96420  0.97650  1.0000
  H   H297      1.0  0.29900  0.61720  0.50160  1.0000
  H   H298      1.0  0.70100  0.61720  0.99840  1.0000
  H   H299      1.0  0.79900  0.11720  0.50160  1.0000
  H   H300      1.0  0.20100  0.11720  0.99840  1.0000
  H   H301      1.0  0.70100  0.38280  0.49840  1.0000
  H   H302      1.0  0.29900  0.38280  0.00160  1.0000
  H   H303      1.0  0.20100  0.88280  0.49840  1.0000
  H   H304      1.0  0.79900  0.88280  0.00160  1.0000
  C   C193      1.0  0.30628  0.56620  0.43179  1.0000
  C   C194      1.0  0.69372  0.56620  0.06821  1.0000
  C   C195      1.0  0.80628  0.06620  0.43179  1.0000
  C   C196      1.0  0.19372  0.06620  0.06821  1.0000
  C   C197      1.0  0.69372  0.43380  0.56821  1.0000
  C   C198      1.0  0.30628  0.43380  0.93179  1.0000
  C   C199      1.0  0.19372  0.93380  0.56821  1.0000
  C   C200      1.0  0.80628  0.93380  0.93179  1.0000
  H   H305      1.0  0.27850  0.54330  0.39290  1.0000
  H   H306      1.0  0.72150  0.54330  0.10710  1.0000
  H   H307      1.0  0.77850  0.04330  0.39290  1.0000
  H   H308      1.0  0.22150  0.04330  0.10710  1.0000
  H   H309      1.0  0.72150  0.45670  0.60710  1.0000
  H   H310      1.0  0.27850  0.45670  0.89290  1.0000
  H   H311      1.0  0.22150  0.95670  0.60710  1.0000
  H   H312      1.0  0.77850  0.95670  0.89290  1.0000
  H   H313      1.0  0.32310  0.61730  0.42530  1.0000
  H   H314      1.0  0.67690  0.61730  0.07470  1.0000
  H   H315      1.0  0.82310  0.11730  0.42530  1.0000
  H   H316      1.0  0.17690  0.11730  0.07470  1.0000
  H   H317      1.0  0.67690  0.38270  0.57470  1.0000
  H   H318      1.0  0.32310  0.38270  0.92530  1.0000
  H   H319      1.0  0.17690  0.88270  0.57470  1.0000
  H   H320      1.0  0.82310  0.88270  0.92530  1.0000
  C   C201      1.0  0.35588  0.50400  0.46465  1.0000
  C   C202      1.0  0.64412  0.50400  0.03535  1.0000
  C   C203      1.0  0.85588  0.00400  0.46465  1.0000
  C   C204      1.0  0.14412  0.00400  0.03535  1.0000
  C   C205      1.0  0.64412  0.49600  0.53535  1.0000
  C   C206      1.0  0.35588  0.49600  0.96465  1.0000
  C   C207      1.0  0.14412  0.99600  0.53535  1.0000
  C   C208      1.0  0.85588  0.99600  0.96465  1.0000
  H   H321      1.0  0.38330  0.52760  0.50340  1.0000
  H   H322      1.0  0.61670  0.52760  0.99660  1.0000
  H   H323      1.0  0.88330  0.02760  0.50340  1.0000
  H   H324      1.0  0.11670  0.02760  0.99660  1.0000
  H   H325      1.0  0.61670  0.47240  0.49660  1.0000
  H   H326      1.0  0.38330  0.47240  0.00340  1.0000
  H   H327      1.0  0.11670  0.97240  0.49660  1.0000
  H   H328      1.0  0.88330  0.97240  0.00340  1.0000
  H   H329      1.0  0.33870  0.45380  0.47170  1.0000
  H   H330      1.0  0.66130  0.45380  0.02830  1.0000
  H   H331      1.0  0.83870  0.95380  0.47170  1.0000
  H   H332      1.0  0.16130  0.95380  0.02830  1.0000
  H   H333      1.0  0.66130  0.54620  0.52830  1.0000
  H   H334      1.0  0.33870  0.54620  0.97170  1.0000
  H   H335      1.0  0.16130  0.04620  0.52830  1.0000
  H   H336      1.0  0.83870  0.04620  0.97170  1.0000
  C   C209      1.0  0.39128  0.47900  0.43417  1.0000
  C   C210      1.0  0.60872  0.47900  0.06583  1.0000
  C   C211      1.0  0.89128  0.97900  0.43417  1.0000
  C   C212      1.0  0.10872  0.97900  0.06583  1.0000
  C   C213      1.0  0.60872  0.52100  0.56583  1.0000
  C   C214      1.0  0.39128  0.52100  0.93417  1.0000
  C   C215      1.0  0.10872  0.02100  0.56583  1.0000
  C   C216      1.0  0.89128  0.02100  0.93417  1.0000
  O   O1        1.0  0.25835  0.39892  0.33565  1.0000
  O   O2        1.0  0.74165  0.39892  0.16435  1.0000
  O   O3        1.0  0.75835  0.89892  0.33565  1.0000
  O   O4        1.0  0.24165  0.89892  0.16435  1.0000
  O   O5        1.0  0.74165  0.60108  0.66435  1.0000
  O   O6        1.0  0.25835  0.60108  0.83565  1.0000
  O   O7        1.0  0.24165  0.10108  0.66435  1.0000
  O   O8        1.0  0.75835  0.10108  0.83565  1.0000
  O   O9        1.0  0.17446  0.21444  0.31597  1.0000
  O   O10       1.0  0.82554  0.21444  0.18403  1.0000
  O   O11       1.0  0.67446  0.71444  0.31597  1.0000
  O   O12       1.0  0.32554  0.71444  0.18403  1.0000
  O   O13       1.0  0.82554  0.78556  0.68403  1.0000
  O   O14       1.0  0.17446  0.78556  0.81597  1.0000
  O   O15       1.0  0.32554  0.28556  0.68403  1.0000
  O   O16       1.0  0.67446  0.28556  0.81597  1.0000
  O   O17       1.0  0.29762  0.21321  0.33484  1.0000
  O   O18       1.0  0.70238  0.21321  0.16516  1.0000
  O   O19       1.0  0.79762  0.71321  0.33484  1.0000
  O   O20       1.0  0.20238  0.71321  0.16516  1.0000
  O   O21       1.0  0.70238  0.78679  0.66516  1.0000
  O   O22       1.0  0.29762  0.78679  0.83484  1.0000
  O   O23       1.0  0.20238  0.28679  0.66516  1.0000
  O   O24       1.0  0.79762  0.28679  0.83484  1.0000
  O   O25       1.0  0.30145  0.25110  0.41861  1.0000
  O   O26       1.0  0.69855  0.25110  0.08139  1.0000
  O   O27       1.0  0.80145  0.75110  0.41861  1.0000
  O   O28       1.0  0.19855  0.75110  0.08139  1.0000
  O   O29       1.0  0.69855  0.74890  0.58139  1.0000
  O   O30       1.0  0.30145  0.74890  0.91861  1.0000
  O   O31       1.0  0.19855  0.24890  0.58139  1.0000
  O   O32       1.0  0.80145  0.24890  0.91861  1.0000
  O   O33       1.0  0.71062  0.83900  0.41658  1.0000
  O   O34       1.0  0.28938  0.83900  0.08342  1.0000
  O   O35       1.0  0.21062  0.33900  0.41658  1.0000
  O   O36       1.0  0.78938  0.33900  0.08342  1.0000
  O   O37       1.0  0.28938  0.16100  0.58342  1.0000
  O   O38       1.0  0.71062  0.16100  0.91658  1.0000
  O   O39       1.0  0.78938  0.66100  0.58342  1.0000
  O   O40       1.0  0.21062  0.66100  0.91658  1.0000
  O   O41       1.0  0.63742  0.88660  0.33429  1.0000
  O   O42       1.0  0.36258  0.88660  0.16571  1.0000
  O   O43       1.0  0.13742  0.38660  0.33429  1.0000
  O   O44       1.0  0.86258  0.38660  0.16571  1.0000
  O   O45       1.0  0.36258  0.11340  0.66571  1.0000
  O   O46       1.0  0.63742  0.11340  0.83429  1.0000
  O   O47       1.0  0.86258  0.61340  0.66571  1.0000
  O   O48       1.0  0.13742  0.61340  0.83429  1.0000
  O   O49       1.0  0.14097  0.35970  0.22846  1.0000
  O   O50       1.0  0.85903  0.35970  0.27154  1.0000
  O   O51       1.0  0.64097  0.85970  0.22846  1.0000
  O   O52       1.0  0.35903  0.85970  0.27154  1.0000
  O   O53       1.0  0.85903  0.64030  0.77154  1.0000
  O   O54       1.0  0.14097  0.64030  0.72846  1.0000
  O   O55       1.0  0.35903  0.14030  0.77154  1.0000
  O   O56       1.0  0.64097  0.14030  0.72846  1.0000
  O   O57       1.0  0.21402  0.28890  0.22871  1.0000
  O   O58       1.0  0.78598  0.28890  0.27129  1.0000
  O   O59       1.0  0.71402  0.78890  0.22871  1.0000
  O   O60       1.0  0.28598  0.78890  0.27129  1.0000
  O   O61       1.0  0.78598  0.71110  0.77129  1.0000
  O   O62       1.0  0.21402  0.71110  0.72871  1.0000
  O   O63       1.0  0.28598  0.21110  0.77129  1.0000
  O   O64       1.0  0.71402  0.21110  0.72871  1.0000
  O   O65       1.0  0.51176  0.48541  0.40583  1.0000
  O   O66       1.0  0.48824  0.48541  0.09417  1.0000
  O   O67       1.0  0.01176  0.98541  0.40583  1.0000
  O   O68       1.0  0.98824  0.98541  0.09417  1.0000
  O   O69       1.0  0.48824  0.51459  0.59417  1.0000
  O   O70       1.0  0.51176  0.51459  0.90583  1.0000
  O   O71       1.0  0.98824  0.01459  0.59417  1.0000
  O   O72       1.0  0.01176  0.01459  0.90583  1.0000
  O   O73       1.0  0.39035  0.34579  0.33632  1.0000
  O   O74       1.0  0.60965  0.34579  0.16368  1.0000
  O   O75       1.0  0.89035  0.84579  0.33632  1.0000
  O   O76       1.0  0.10965  0.84579  0.16368  1.0000
  O   O77       1.0  0.60965  0.65421  0.66368  1.0000
  O   O78       1.0  0.39035  0.65421  0.83632  1.0000
  O   O79       1.0  0.10965  0.15421  0.66368  1.0000
  O   O80       1.0  0.89035  0.15421  0.83632  1.0000
  O   O81       1.0  0.42610  0.41700  0.45389  1.0000
  O   O82       1.0  0.57390  0.41700  0.04611  1.0000
  O   O83       1.0  0.92610  0.91700  0.45389  1.0000
  O   O84       1.0  0.07390  0.91700  0.04611  1.0000
  O   O85       1.0  0.57390  0.58300  0.54611  1.0000
  O   O86       1.0  0.42610  0.58300  0.95389  1.0000
  O   O87       1.0  0.07390  0.08300  0.54611  1.0000
  O   O88       1.0  0.92610  0.08300  0.95389  1.0000
  O   O89       1.0  0.38669  0.51719  0.38907  1.0000
  O   O90       1.0  0.61331  0.51719  0.11093  1.0000
  O   O91       1.0  0.88669  0.01719  0.38907  1.0000
  O   O92       1.0  0.11331  0.01719  0.11093  1.0000
  O   O93       1.0  0.61331  0.48281  0.61093  1.0000
  O   O94       1.0  0.38669  0.48281  0.88907  1.0000
  O   O95       1.0  0.11331  0.98281  0.61093  1.0000
  O   O96       1.0  0.88669  0.98281  0.88907  1.0000
  O   O97       1.0  0.40345  0.51650  0.28841  1.0000
  O   O98       1.0  0.59655  0.51650  0.21159  1.0000
  O   O99       1.0  0.90345  0.01650  0.28841  1.0000
  O   O100      1.0  0.09655  0.01650  0.21159  1.0000
  O   O101      1.0  0.59655  0.48350  0.71159  1.0000
  O   O102      1.0  0.40345  0.48350  0.78841  1.0000
  O   O103      1.0  0.09655  0.98350  0.71159  1.0000
  O   O104      1.0  0.90345  0.98350  0.78841  1.0000
  O   O105      1.0  0.45518  0.41570  0.27812  1.0000
  O   O106      1.0  0.54482  0.41570  0.22188  1.0000
  O   O107      1.0  0.95518  0.91570  0.27812  1.0000
  O   O108      1.0  0.04482  0.91570  0.22188  1.0000
  O   O109      1.0  0.54482  0.58430  0.72188  1.0000
  O   O110      1.0  0.45518  0.58430  0.77812  1.0000
  O   O111      1.0  0.04482  0.08430  0.72188  1.0000
  O   O112      1.0  0.95518  0.08430  0.77812  1.0000
  O   O113      1.0  0.02062  0.80680  0.37344  1.0000
  O   O114      1.0  0.97938  0.80680  0.12656  1.0000
  O   O115      1.0  0.52062  0.30680  0.37344  1.0000
  O   O116      1.0  0.47938  0.30680  0.12656  1.0000
  O   O117      1.0  0.97938  0.19320  0.62656  1.0000
  O   O118      1.0  0.02062  0.19320  0.87344  1.0000
  O   O119      1.0  0.47938  0.69320  0.62656  1.0000
  O   O120      1.0  0.52062  0.69320  0.87344  1.0000
  O   O121      1.0  0.01213  0.81650  0.45446  1.0000
  O   O122      1.0  0.98787  0.81650  0.04554  1.0000
  O   O123      1.0  0.51213  0.31650  0.45446  1.0000
  O   O124      1.0  0.48787  0.31650  0.04554  1.0000
  O   O125      1.0  0.98787  0.18350  0.54554  1.0000
  O   O126      1.0  0.01213  0.18350  0.95446  1.0000
  O   O127      1.0  0.48787  0.68350  0.54554  1.0000
  O   O128      1.0  0.51213  0.68350  0.95446  1.0000
  U   U1        1.0  0.21753  0.30611  0.32622  1.0000
  U   U2        1.0  0.78247  0.30611  0.17378  1.0000
  U   U3        1.0  0.71753  0.80611  0.32622  1.0000
  U   U4        1.0  0.28247  0.80611  0.17378  1.0000
  U   U5        1.0  0.78247  0.69389  0.67378  1.0000
  U   U6        1.0  0.21753  0.69389  0.82622  1.0000
  U   U7        1.0  0.28247  0.19389  0.67378  1.0000
  U   U8        1.0  0.71753  0.19389  0.82622  1.0000
  U   U9        1.0  0.45117  0.41507  0.37147  1.0000
  U   U10       1.0  0.54883  0.41507  0.12853  1.0000
  U   U11       1.0  0.95117  0.91507  0.37147  1.0000
  U   U12       1.0  0.04883  0.91507  0.12853  1.0000
  U   U13       1.0  0.54883  0.58493  0.62853  1.0000
  U   U14       1.0  0.45117  0.58493  0.87147  1.0000
  U   U15       1.0  0.04883  0.08493  0.62853  1.0000
  U   U16       1.0  0.95117  0.08493  0.87147  1.0000
