data_image0
_chemical_formula_structural       Fe4Ni4N16C16H8C8H8C32H8C8H8C32H8C8H8C16H8C8H8C8O16C16H8C8H8C16H8C8H8C8O16
_chemical_formula_sum              "Fe4 Ni4 N16 C192 H96 O32"
_cell_length_a       7.4852
_cell_length_b       24.226
_cell_length_c       30.107
_cell_angle_alpha    90
_cell_angle_beta     93.299
_cell_angle_gamma    90

_space_group_name_H-M_alt    "P 1"
_space_group_IT_number       1

loop_
  _space_group_symop_operation_xyz
  'x, y, z'

loop_
  _atom_site_type_symbol
  _atom_site_label
  _atom_site_symmetry_multiplicity
  _atom_site_fract_x
  _atom_site_fract_y
  _atom_site_fract_z
  _atom_site_occupancy
  Fe  Fe1       1.0  0.00000  0.84787  0.75000  1.0000
  Fe  Fe2       1.0  0.50000  0.34787  0.75000  1.0000
  Fe  Fe3       1.0  0.00000  0.15213  0.25000  1.0000
  Fe  Fe4       1.0  0.50000  0.65213  0.25000  1.0000
  Ni  Ni1       1.0  0.00000  0.00000  0.50000  1.0000
  Ni  Ni2       1.0  0.00000  0.00000  0.00000  1.0000
  Ni  Ni3       1.0  0.50000  0.50000  0.50000  1.0000
  Ni  Ni4       1.0  0.50000  0.50000  0.00000  1.0000
  N   N1        1.0  0.79750  0.94990  0.50230  1.0000
  N   N2        1.0  0.20250  0.94990  0.99770  1.0000
  N   N3        1.0  0.29750  0.44990  0.50230  1.0000
  N   N4        1.0  0.70250  0.44990  0.99770  1.0000
  N   N5        1.0  0.20250  0.05010  0.49770  1.0000
  N   N6        1.0  0.79750  0.05010  0.00230  1.0000
  N   N7        1.0  0.70250  0.55010  0.49770  1.0000
  N   N8        1.0  0.29750  0.55010  0.00230  1.0000
  N   N9        1.0  0.05720  0.96986  0.44277  1.0000
  N   N10       1.0  0.94280  0.96986  0.05723  1.0000
  N   N11       1.0  0.55720  0.46986  0.44277  1.0000
  N   N12       1.0  0.44280  0.46986  0.05723  1.0000
  N   N13       1.0  0.94280  0.03014  0.55723  1.0000
  N   N14       1.0  0.05720  0.03014  0.94277  1.0000
  N   N15       1.0  0.44280  0.53014  0.55723  1.0000
  N   N16       1.0  0.55720  0.53014  0.94277  1.0000
  C   C1        1.0  0.68010  0.94430  0.53586  1.0000
  C   C2        1.0  0.31990  0.94430  0.96414  1.0000
  C   C3        1.0  0.18010  0.44430  0.53586  1.0000
  C   C4        1.0  0.81990  0.44430  0.96414  1.0000
  C   C5        1.0  0.31990  0.05570  0.46414  1.0000
  C   C6        1.0  0.68010  0.05570  0.03586  1.0000
  C   C7        1.0  0.81990  0.55570  0.46414  1.0000
  C   C8        1.0  0.18010  0.55570  0.03586  1.0000
  C   C9        1.0  0.55300  0.90080  0.52460  1.0000
  C   C10       1.0  0.44700  0.90080  0.97540  1.0000
  C   C11       1.0  0.05300  0.40080  0.52460  1.0000
  C   C12       1.0  0.94700  0.40080  0.97540  1.0000
  C   C13       1.0  0.44700  0.09920  0.47540  1.0000
  C   C14       1.0  0.55300  0.09920  0.02460  1.0000
  C   C15       1.0  0.94700  0.59920  0.47540  1.0000
  C   C16       1.0  0.05300  0.59920  0.02460  1.0000
  H   H1        1.0  0.46160  0.88890  0.54200  1.0000
  H   H2        1.0  0.53840  0.88890  0.95800  1.0000
  H   H3        1.0  0.96160  0.38890  0.54200  1.0000
  H   H4        1.0  0.03840  0.38890  0.95800  1.0000
  H   H5        1.0  0.53840  0.11110  0.45800  1.0000
  H   H6        1.0  0.46160  0.11110  0.04200  1.0000
  H   H7        1.0  0.03840  0.61110  0.45800  1.0000
  H   H8        1.0  0.96160  0.61110  0.04200  1.0000
  C   C17       1.0  0.58890  0.88130  0.48620  1.0000
  C   C18       1.0  0.41110  0.88130  0.01380  1.0000
  C   C19       1.0  0.08890  0.38130  0.48620  1.0000
  C   C20       1.0  0.91110  0.38130  0.01380  1.0000
  C   C21       1.0  0.41110  0.11870  0.51380  1.0000
  C   C22       1.0  0.58890  0.11870  0.98620  1.0000
  C   C23       1.0  0.91110  0.61870  0.51380  1.0000
  C   C24       1.0  0.08890  0.61870  0.98620  1.0000
  H   H9        1.0  0.52580  0.85340  0.47100  1.0000
  H   H10       1.0  0.47420  0.85340  0.02900  1.0000
  H   H11       1.0  0.02580  0.35340  0.47100  1.0000
  H   H12       1.0  0.97420  0.35340  0.02900  1.0000
  H   H13       1.0  0.47420  0.14660  0.52900  1.0000
  H   H14       1.0  0.52580  0.14660  0.97100  1.0000
  H   H15       1.0  0.97420  0.64660  0.52900  1.0000
  H   H16       1.0  0.02580  0.64660  0.97100  1.0000
  C   C25       1.0  0.74280  0.90990  0.47062  1.0000
  C   C26       1.0  0.25720  0.90990  0.02938  1.0000
  C   C27       1.0  0.24280  0.40990  0.47062  1.0000
  C   C28       1.0  0.75720  0.40990  0.02938  1.0000
  C   C29       1.0  0.25720  0.09010  0.52938  1.0000
  C   C30       1.0  0.74280  0.09010  0.97062  1.0000
  C   C31       1.0  0.75720  0.59010  0.52938  1.0000
  C   C32       1.0  0.24280  0.59010  0.97062  1.0000
  C   C33       1.0  0.82030  0.89913  0.43106  1.0000
  C   C34       1.0  0.17970  0.89913  0.06894  1.0000
  C   C35       1.0  0.32030  0.39913  0.43106  1.0000
  C   C36       1.0  0.67970  0.39913  0.06894  1.0000
  C   C37       1.0  0.17970  0.10087  0.56894  1.0000
  C   C38       1.0  0.82030  0.10087  0.93106  1.0000
  C   C39       1.0  0.67970  0.60087  0.56894  1.0000
  C   C40       1.0  0.32030  0.60087  0.93106  1.0000
  C   C41       1.0  0.96930  0.92755  0.41855  1.0000
  C   C42       1.0  0.03070  0.92755  0.08145  1.0000
  C   C43       1.0  0.46930  0.42755  0.41855  1.0000
  C   C44       1.0  0.53070  0.42755  0.08145  1.0000
  C   C45       1.0  0.03070  0.07245  0.58145  1.0000
  C   C46       1.0  0.96930  0.07245  0.91855  1.0000
  C   C47       1.0  0.53070  0.57245  0.58145  1.0000
  C   C48       1.0  0.46930  0.57245  0.91855  1.0000
  C   C49       1.0  0.04790  0.91860  0.37766  1.0000
  C   C50       1.0  0.95210  0.91860  0.12234  1.0000
  C   C51       1.0  0.54790  0.41860  0.37766  1.0000
  C   C52       1.0  0.45210  0.41860  0.12234  1.0000
  C   C53       1.0  0.95210  0.08140  0.62234  1.0000
  C   C54       1.0  0.04790  0.08140  0.87766  1.0000
  C   C55       1.0  0.45210  0.58140  0.62234  1.0000
  C   C56       1.0  0.54790  0.58140  0.87766  1.0000
  H   H17       1.0  0.01340  0.89240  0.35620  1.0000
  H   H18       1.0  0.98660  0.89240  0.14380  1.0000
  H   H19       1.0  0.51340  0.39240  0.35620  1.0000
  H   H20       1.0  0.48660  0.39240  0.14380  1.0000
  H   H21       1.0  0.98660  0.10760  0.64380  1.0000
  H   H22       1.0  0.01340  0.10760  0.85620  1.0000
  H   H23       1.0  0.48660  0.60760  0.64380  1.0000
  H   H24       1.0  0.51340  0.60760  0.85620  1.0000
  C   C57       1.0  0.18330  0.95530  0.37573  1.0000
  C   C58       1.0  0.81670  0.95530  0.12427  1.0000
  C   C59       1.0  0.68330  0.45530  0.37573  1.0000
  C   C60       1.0  0.31670  0.45530  0.12427  1.0000
  C   C61       1.0  0.81670  0.04470  0.62427  1.0000
  C   C62       1.0  0.18330  0.04470  0.87573  1.0000
  C   C63       1.0  0.31670  0.54470  0.62427  1.0000
  C   C64       1.0  0.68330  0.54470  0.87573  1.0000
  H   H25       1.0  0.25860  0.95940  0.35240  1.0000
  H   H26       1.0  0.74140  0.95940  0.14760  1.0000
  H   H27       1.0  0.75860  0.45940  0.35240  1.0000
  H   H28       1.0  0.24140  0.45940  0.14760  1.0000
  H   H29       1.0  0.74140  0.04060  0.64760  1.0000
  H   H30       1.0  0.25860  0.04060  0.85240  1.0000
  H   H31       1.0  0.24140  0.54060  0.64760  1.0000
  H   H32       1.0  0.75860  0.54060  0.85240  1.0000
  C   C65       1.0  0.18980  0.98631  0.41539  1.0000
  C   C66       1.0  0.81020  0.98631  0.08461  1.0000
  C   C67       1.0  0.68980  0.48631  0.41539  1.0000
  C   C68       1.0  0.31020  0.48631  0.08461  1.0000
  C   C69       1.0  0.81020  0.01369  0.58461  1.0000
  C   C70       1.0  0.18980  0.01369  0.91539  1.0000
  C   C71       1.0  0.31020  0.51369  0.58461  1.0000
  C   C72       1.0  0.68980  0.51369  0.91539  1.0000
  C   C73       1.0  0.68690  0.97254  0.57478  1.0000
  C   C74       1.0  0.31310  0.97254  0.92522  1.0000
  C   C75       1.0  0.18690  0.47254  0.57478  1.0000
  C   C76       1.0  0.81310  0.47254  0.92522  1.0000
  C   C77       1.0  0.31310  0.02746  0.42522  1.0000
  C   C78       1.0  0.68690  0.02746  0.07478  1.0000
  C   C79       1.0  0.81310  0.52746  0.42522  1.0000
  C   C80       1.0  0.18690  0.52746  0.07478  1.0000
  C   C81       1.0  0.73920  0.85680  0.40085  1.0000
  C   C82       1.0  0.26080  0.85680  0.09915  1.0000
  C   C83       1.0  0.23920  0.35680  0.40085  1.0000
  C   C84       1.0  0.76080  0.35680  0.09915  1.0000
  C   C85       1.0  0.26080  0.14320  0.59915  1.0000
  C   C86       1.0  0.73920  0.14320  0.90085  1.0000
  C   C87       1.0  0.76080  0.64320  0.59915  1.0000
  C   C88       1.0  0.23920  0.64320  0.90085  1.0000
  C   C89       1.0  0.81950  0.80790  0.39300  1.0000
  C   C90       1.0  0.18050  0.80790  0.10700  1.0000
  C   C91       1.0  0.31950  0.30790  0.39300  1.0000
  C   C92       1.0  0.68050  0.30790  0.10700  1.0000
  C   C93       1.0  0.18050  0.19210  0.60700  1.0000
  C   C94       1.0  0.81950  0.19210  0.89300  1.0000
  C   C95       1.0  0.68050  0.69210  0.60700  1.0000
  C   C96       1.0  0.31950  0.69210  0.89300  1.0000
  H   H33       1.0  0.92840  0.79940  0.40780  1.0000
  H   H34       1.0  0.07160  0.79940  0.09220  1.0000
  H   H35       1.0  0.42840  0.29940  0.40780  1.0000
  H   H36       1.0  0.57160  0.29940  0.09220  1.0000
  H   H37       1.0  0.07160  0.20060  0.59220  1.0000
  H   H38       1.0  0.92840  0.20060  0.90780  1.0000
  H   H39       1.0  0.57160  0.70060  0.59220  1.0000
  H   H40       1.0  0.42840  0.70060  0.90780  1.0000
  C   C97       1.0  0.73940  0.77010  0.36250  1.0000
  C   C98       1.0  0.26060  0.77010  0.13750  1.0000
  C   C99       1.0  0.23940  0.27010  0.36250  1.0000
  C   C100      1.0  0.76060  0.27010  0.13750  1.0000
  C   C101      1.0  0.26060  0.22990  0.63750  1.0000
  C   C102      1.0  0.73940  0.22990  0.86250  1.0000
  C   C103      1.0  0.76060  0.72990  0.63750  1.0000
  C   C104      1.0  0.23940  0.72990  0.86250  1.0000
  H   H41       1.0  0.79420  0.73640  0.35760  1.0000
  H   H42       1.0  0.20580  0.73640  0.14240  1.0000
  H   H43       1.0  0.29420  0.23640  0.35760  1.0000
  H   H44       1.0  0.70580  0.23640  0.14240  1.0000
  H   H45       1.0  0.20580  0.26360  0.64240  1.0000
  H   H46       1.0  0.79420  0.26360  0.85760  1.0000
  H   H47       1.0  0.70580  0.76360  0.64240  1.0000
  H   H48       1.0  0.29420  0.76360  0.85760  1.0000
  C   C105      1.0  0.57950  0.78310  0.33970  1.0000
  C   C106      1.0  0.42050  0.78310  0.16030  1.0000
  C   C107      1.0  0.07950  0.28310  0.33970  1.0000
  C   C108      1.0  0.92050  0.28310  0.16030  1.0000
  C   C109      1.0  0.42050  0.21690  0.66030  1.0000
  C   C110      1.0  0.57950  0.21690  0.83970  1.0000
  C   C111      1.0  0.92050  0.71690  0.66030  1.0000
  C   C112      1.0  0.07950  0.71690  0.83970  1.0000
  C   C113      1.0  0.49960  0.82900  0.34980  1.0000
  C   C114      1.0  0.50040  0.82900  0.15020  1.0000
  C   C115      1.0  0.99960  0.32900  0.34980  1.0000
  C   C116      1.0  0.00040  0.32900  0.15020  1.0000
  C   C117      1.0  0.50040  0.17100  0.65020  1.0000
  C   C118      1.0  0.49960  0.17100  0.84980  1.0000
  C   C119      1.0  0.00040  0.67100  0.65020  1.0000
  C   C120      1.0  0.99960  0.67100  0.84980  1.0000
  H   H49       1.0  0.38580  0.83600  0.33700  1.0000
  H   H50       1.0  0.61420  0.83600  0.16300  1.0000
  H   H51       1.0  0.88580  0.33600  0.33700  1.0000
  H   H52       1.0  0.11420  0.33600  0.16300  1.0000
  H   H53       1.0  0.61420  0.16400  0.66300  1.0000
  H   H54       1.0  0.38580  0.16400  0.83700  1.0000
  H   H55       1.0  0.11420  0.66400  0.66300  1.0000
  H   H56       1.0  0.88580  0.66400  0.83700  1.0000
  C   C121      1.0  0.57870  0.86770  0.37890  1.0000
  C   C122      1.0  0.42130  0.86770  0.12110  1.0000
  C   C123      1.0  0.07870  0.36770  0.37890  1.0000
  C   C124      1.0  0.92130  0.36770  0.12110  1.0000
  C   C125      1.0  0.42130  0.13230  0.62110  1.0000
  C   C126      1.0  0.57870  0.13230  0.87890  1.0000
  C   C127      1.0  0.92130  0.63230  0.62110  1.0000
  C   C128      1.0  0.07870  0.63230  0.87890  1.0000
  H   H57       1.0  0.52180  0.90130  0.38330  1.0000
  H   H58       1.0  0.47820  0.90130  0.11670  1.0000
  H   H59       1.0  0.02180  0.40130  0.38330  1.0000
  H   H60       1.0  0.97820  0.40130  0.11670  1.0000
  H   H61       1.0  0.47820  0.09870  0.61670  1.0000
  H   H62       1.0  0.52180  0.09870  0.88330  1.0000
  H   H63       1.0  0.97820  0.59870  0.61670  1.0000
  H   H64       1.0  0.02180  0.59870  0.88330  1.0000
  C   C129      1.0  0.49370  0.74290  0.30680  1.0000
  C   C130      1.0  0.50630  0.74290  0.19320  1.0000
  C   C131      1.0  0.99370  0.24290  0.30680  1.0000
  C   C132      1.0  0.00630  0.24290  0.19320  1.0000
  C   C133      1.0  0.50630  0.25710  0.69320  1.0000
  C   C134      1.0  0.49370  0.25710  0.80680  1.0000
  C   C135      1.0  0.00630  0.75710  0.69320  1.0000
  C   C136      1.0  0.99370  0.75710  0.80680  1.0000
  O   O1        1.0  0.58150  0.70097  0.29698  1.0000
  O   O2        1.0  0.41850  0.70097  0.20302  1.0000
  O   O3        1.0  0.08150  0.20097  0.29698  1.0000
  O   O4        1.0  0.91850  0.20097  0.20302  1.0000
  O   O5        1.0  0.41850  0.29903  0.70302  1.0000
  O   O6        1.0  0.58150  0.29903  0.79698  1.0000
  O   O7        1.0  0.91850  0.79903  0.70302  1.0000
  O   O8        1.0  0.08150  0.79903  0.79698  1.0000
  O   O9        1.0  0.34580  0.75470  0.28860  1.0000
  O   O10       1.0  0.65420  0.75470  0.21140  1.0000
  O   O11       1.0  0.84580  0.25470  0.28860  1.0000
  O   O12       1.0  0.15420  0.25470  0.21140  1.0000
  O   O13       1.0  0.65420  0.24530  0.71140  1.0000
  O   O14       1.0  0.34580  0.24530  0.78860  1.0000
  O   O15       1.0  0.15420  0.74530  0.71140  1.0000
  O   O16       1.0  0.84580  0.74530  0.78860  1.0000
  C   C137      1.0  0.55760  0.95723  0.60928  1.0000
  C   C138      1.0  0.44240  0.95723  0.89072  1.0000
  C   C139      1.0  0.05760  0.45723  0.60928  1.0000
  C   C140      1.0  0.94240  0.45723  0.89072  1.0000
  C   C141      1.0  0.44240  0.04277  0.39072  1.0000
  C   C142      1.0  0.55760  0.04277  0.10928  1.0000
  C   C143      1.0  0.94240  0.54277  0.39072  1.0000
  C   C144      1.0  0.05760  0.54277  0.10928  1.0000
  C   C145      1.0  0.37730  0.97037  0.60327  1.0000
  C   C146      1.0  0.62270  0.97037  0.89673  1.0000
  C   C147      1.0  0.87730  0.47037  0.60327  1.0000
  C   C148      1.0  0.12270  0.47037  0.89673  1.0000
  C   C149      1.0  0.62270  0.02963  0.39673  1.0000
  C   C150      1.0  0.37730  0.02963  0.10327  1.0000
  C   C151      1.0  0.12270  0.52963  0.39673  1.0000
  C   C152      1.0  0.87730  0.52963  0.10327  1.0000
  H   H65       1.0  0.33660  0.99000  0.57810  1.0000
  H   H66       1.0  0.66340  0.99000  0.92190  1.0000
  H   H67       1.0  0.83660  0.49000  0.57810  1.0000
  H   H68       1.0  0.16340  0.49000  0.92190  1.0000
  H   H69       1.0  0.66340  0.01000  0.42190  1.0000
  H   H70       1.0  0.33660  0.01000  0.07810  1.0000
  H   H71       1.0  0.16340  0.51000  0.42190  1.0000
  H   H72       1.0  0.83660  0.51000  0.07810  1.0000
  C   C153      1.0  0.25740  0.95460  0.63431  1.0000
  C   C154      1.0  0.74260  0.95460  0.86569  1.0000
  C   C155      1.0  0.75740  0.45460  0.63431  1.0000
  C   C156      1.0  0.24260  0.45460  0.86569  1.0000
  C   C157      1.0  0.74260  0.04540  0.36569  1.0000
  C   C158      1.0  0.25740  0.04540  0.13431  1.0000
  C   C159      1.0  0.24260  0.54540  0.36569  1.0000
  C   C160      1.0  0.75740  0.54540  0.13431  1.0000
  H   H73       1.0  0.13680  0.96360  0.63010  1.0000
  H   H74       1.0  0.86320  0.96360  0.86990  1.0000
  H   H75       1.0  0.63680  0.46360  0.63010  1.0000
  H   H76       1.0  0.36320  0.46360  0.86990  1.0000
  H   H77       1.0  0.86320  0.03640  0.36990  1.0000
  H   H78       1.0  0.13680  0.03640  0.13010  1.0000
  H   H79       1.0  0.36320  0.53640  0.36990  1.0000
  H   H80       1.0  0.63680  0.53640  0.13010  1.0000
  C   C161      1.0  0.31930  0.92502  0.67199  1.0000
  C   C162      1.0  0.68070  0.92502  0.82801  1.0000
  C   C163      1.0  0.81930  0.42502  0.67199  1.0000
  C   C164      1.0  0.18070  0.42502  0.82801  1.0000
  C   C165      1.0  0.68070  0.07498  0.32801  1.0000
  C   C166      1.0  0.31930  0.07498  0.17199  1.0000
  C   C167      1.0  0.18070  0.57498  0.32801  1.0000
  C   C168      1.0  0.81930  0.57498  0.17199  1.0000
  C   C169      1.0  0.50100  0.91270  0.67735  1.0000
  C   C170      1.0  0.49900  0.91270  0.82265  1.0000
  C   C171      1.0  0.00100  0.41270  0.67735  1.0000
  C   C172      1.0  0.99900  0.41270  0.82265  1.0000
  C   C173      1.0  0.49900  0.08730  0.32265  1.0000
  C   C174      1.0  0.50100  0.08730  0.17735  1.0000
  C   C175      1.0  0.99900  0.58730  0.32265  1.0000
  C   C176      1.0  0.00100  0.58730  0.17735  1.0000
  H   H81       1.0  0.54360  0.89290  0.70220  1.0000
  H   H82       1.0  0.45640  0.89290  0.79780  1.0000
  H   H83       1.0  0.04360  0.39290  0.70220  1.0000
  H   H84       1.0  0.95640  0.39290  0.79780  1.0000
  H   H85       1.0  0.45640  0.10710  0.29780  1.0000
  H   H86       1.0  0.54360  0.10710  0.20220  1.0000
  H   H87       1.0  0.95640  0.60710  0.29780  1.0000
  H   H88       1.0  0.04360  0.60710  0.20220  1.0000
  C   C177      1.0  0.61820  0.92910  0.64663  1.0000
  C   C178      1.0  0.38180  0.92910  0.85337  1.0000
  C   C179      1.0  0.11820  0.42910  0.64663  1.0000
  C   C180      1.0  0.88180  0.42910  0.85337  1.0000
  C   C181      1.0  0.38180  0.07090  0.35337  1.0000
  C   C182      1.0  0.61820  0.07090  0.14663  1.0000
  C   C183      1.0  0.88180  0.57090  0.35337  1.0000
  C   C184      1.0  0.11820  0.57090  0.14663  1.0000
  H   H89       1.0  0.73940  0.92110  0.65110  1.0000
  H   H90       1.0  0.26060  0.92110  0.84890  1.0000
  H   H91       1.0  0.23940  0.42110  0.65110  1.0000
  H   H92       1.0  0.76060  0.42110  0.84890  1.0000
  H   H93       1.0  0.26060  0.07890  0.34890  1.0000
  H   H94       1.0  0.73940  0.07890  0.15110  1.0000
  H   H95       1.0  0.76060  0.57890  0.34890  1.0000
  H   H96       1.0  0.23940  0.57890  0.15110  1.0000
  C   C185      1.0  0.19310  0.90252  0.70341  1.0000
  C   C186      1.0  0.80690  0.90252  0.79659  1.0000
  C   C187      1.0  0.69310  0.40252  0.70341  1.0000
  C   C188      1.0  0.30690  0.40252  0.79659  1.0000
  C   C189      1.0  0.80690  0.09748  0.29659  1.0000
  C   C190      1.0  0.19310  0.09748  0.20341  1.0000
  C   C191      1.0  0.30690  0.59748  0.29659  1.0000
  C   C192      1.0  0.69310  0.59748  0.20341  1.0000
  O   O17       1.0  0.02830  0.91191  0.69895  1.0000
  O   O18       1.0  0.97170  0.91191  0.80105  1.0000
  O   O19       1.0  0.52830  0.41191  0.69895  1.0000
  O   O20       1.0  0.47170  0.41191  0.80105  1.0000
  O   O21       1.0  0.97170  0.08809  0.30105  1.0000
  O   O22       1.0  0.02830  0.08809  0.19895  1.0000
  O   O23       1.0  0.47170  0.58809  0.30105  1.0000
  O   O24       1.0  0.52830  0.58809  0.19895  1.0000
  O   O25       1.0  0.24790  0.87112  0.73477  1.0000
  O   O26       1.0  0.75210  0.87112  0.76523  1.0000
  O   O27       1.0  0.74790  0.37112  0.73477  1.0000
  O   O28       1.0  0.25210  0.37112  0.76523  1.0000
  O   O29       1.0  0.75210  0.12888  0.26523  1.0000
  O   O30       1.0  0.24790  0.12888  0.23477  1.0000
  O   O31       1.0  0.25210  0.62888  0.26523  1.0000
  O   O32       1.0  0.74790  0.62888  0.23477  1.0000
