data_image0
_chemical_formula_structural       Zn4C8H4C8H4C8H4C4O8C4O8P4O12C8H12C4H16
_chemical_formula_sum              "Zn4 C44 H40 O28 P4"
_cell_length_a       9.7414
_cell_length_b       16.0486
_cell_length_c       11.0596
_cell_angle_alpha    90
_cell_angle_beta     95.446
_cell_angle_gamma    90

_space_group_name_H-M_alt    "P 1"
_space_group_IT_number       1

loop_
  _space_group_symop_operation_xyz
  'x, y, z'

loop_
  _atom_site_type_symbol
  _atom_site_label
  _atom_site_symmetry_multiplicity
  _atom_site_fract_x
  _atom_site_fract_y
  _atom_site_fract_z
  _atom_site_occupancy
  Zn  Zn1       1.0  0.65794  0.41742  0.91700  1.0000
  Zn  Zn2       1.0  0.84206  0.91742  0.58300  1.0000
  Zn  Zn3       1.0  0.34206  0.58258  0.08300  1.0000
  Zn  Zn4       1.0  0.15794  0.08258  0.41700  1.0000
  C   C1        1.0  0.66840  0.20450  0.12880  1.0000
  C   C2        1.0  0.83160  0.70450  0.37120  1.0000
  C   C3        1.0  0.33160  0.79550  0.87120  1.0000
  C   C4        1.0  0.16840  0.29550  0.62880  1.0000
  C   C5        1.0  0.53290  0.19540  0.15570  1.0000
  C   C6        1.0  0.96710  0.69540  0.34430  1.0000
  C   C7        1.0  0.46710  0.80460  0.84430  1.0000
  C   C8        1.0  0.03290  0.30460  0.65570  1.0000
  H   H1        1.0  0.46440  0.23260  0.12050  1.0000
  H   H2        1.0  0.03560  0.73260  0.37950  1.0000
  H   H3        1.0  0.53560  0.76740  0.87950  1.0000
  H   H4        1.0  0.96440  0.26740  0.62050  1.0000
  C   C9        1.0  0.49580  0.13290  0.23310  1.0000
  C   C10       1.0  0.00420  0.63290  0.26690  1.0000
  C   C11       1.0  0.50420  0.86710  0.76690  1.0000
  C   C12       1.0  0.99580  0.36710  0.73310  1.0000
  C   C13       1.0  0.59640  0.07750  0.28220  1.0000
  C   C14       1.0  0.90360  0.57750  0.21780  1.0000
  C   C15       1.0  0.40360  0.92250  0.71780  1.0000
  C   C16       1.0  0.09640  0.42250  0.78220  1.0000
  H   H5        1.0  0.57160  0.03400  0.33420  1.0000
  H   H6        1.0  0.92840  0.53400  0.16580  1.0000
  H   H7        1.0  0.42840  0.96600  0.66580  1.0000
  H   H8        1.0  0.07160  0.46600  0.83420  1.0000
  C   C17       1.0  0.73340  0.08530  0.25580  1.0000
  C   C18       1.0  0.76660  0.58530  0.24420  1.0000
  C   C19       1.0  0.26660  0.91470  0.74420  1.0000
  C   C20       1.0  0.23340  0.41470  0.75580  1.0000
  C   C21       1.0  0.76860  0.14940  0.18020  1.0000
  C   C22       1.0  0.73140  0.64940  0.31980  1.0000
  C   C23       1.0  0.23140  0.85060  0.81980  1.0000
  C   C24       1.0  0.26860  0.35060  0.68020  1.0000
  H   H9        1.0  0.86180  0.15590  0.16340  1.0000
  H   H10       1.0  0.63820  0.65590  0.33660  1.0000
  H   H11       1.0  0.13820  0.84410  0.83660  1.0000
  H   H12       1.0  0.36180  0.34410  0.66340  1.0000
  C   C25       1.0  0.70860  0.27570  0.05080  1.0000
  C   C26       1.0  0.79140  0.77570  0.44920  1.0000
  C   C27       1.0  0.29140  0.72430  0.94920  1.0000
  C   C28       1.0  0.20860  0.22430  0.55080  1.0000
  O   O1        1.0  0.83100  0.29599  0.04970  1.0000
  O   O2        1.0  0.66900  0.79599  0.45030  1.0000
  O   O3        1.0  0.16900  0.70401  0.95030  1.0000
  O   O4        1.0  0.33100  0.20401  0.54970  1.0000
  O   O5        1.0  0.60810  0.31211  0.98920  1.0000
  O   O6        1.0  0.89190  0.81211  0.51080  1.0000
  O   O7        1.0  0.39190  0.68789  0.01080  1.0000
  O   O8        1.0  0.10810  0.18789  0.48920  1.0000
  C   C29       1.0  0.35150  0.12790  0.26970  1.0000
  C   C30       1.0  0.14850  0.62790  0.23030  1.0000
  C   C31       1.0  0.64850  0.87210  0.73030  1.0000
  C   C32       1.0  0.85150  0.37210  0.76970  1.0000
  O   O9        1.0  0.32570  0.06594  0.33640  1.0000
  O   O10       1.0  0.17430  0.56594  0.16360  1.0000
  O   O11       1.0  0.67430  0.93406  0.66360  1.0000
  O   O12       1.0  0.82570  0.43406  0.83640  1.0000
  O   O13       1.0  0.26740  0.18351  0.23700  1.0000
  O   O14       1.0  0.23260  0.68351  0.26300  1.0000
  O   O15       1.0  0.73260  0.81649  0.76300  1.0000
  O   O16       1.0  0.76740  0.31649  0.73700  1.0000
  P   P1        1.0  0.86118  0.01479  0.32493  1.0000
  P   P2        1.0  0.63882  0.51479  0.17507  1.0000
  P   P3        1.0  0.13882  0.98521  0.67507  1.0000
  P   P4        1.0  0.36118  0.48521  0.82493  1.0000
  O   O17       1.0  0.99950  0.05024  0.30541  1.0000
  O   O18       1.0  0.50050  0.55024  0.19459  1.0000
  O   O19       1.0  0.00050  0.94976  0.69459  1.0000
  O   O20       1.0  0.49950  0.44976  0.80541  1.0000
  O   O21       1.0  0.82700  0.99997  0.45190  1.0000
  O   O22       1.0  0.67300  0.49997  0.04810  1.0000
  O   O23       1.0  0.17300  0.00003  0.54810  1.0000
  O   O24       1.0  0.32700  0.50003  0.95190  1.0000
  O   O25       1.0  0.84000  0.92914  0.25420  1.0000
  O   O26       1.0  0.66000  0.42914  0.24580  1.0000
  O   O27       1.0  0.16000  0.07086  0.74580  1.0000
  O   O28       1.0  0.34000  0.57086  0.75420  1.0000
  C   C33       1.0  0.87950  0.92170  0.12970  1.0000
  C   C34       1.0  0.62050  0.42170  0.37030  1.0000
  C   C35       1.0  0.12050  0.07830  0.87030  1.0000
  C   C36       1.0  0.37950  0.57830  0.62970  1.0000
  C   C37       1.0  0.77290  0.86600  0.06590  1.0000
  C   C38       1.0  0.72710  0.36600  0.43410  1.0000
  C   C39       1.0  0.22710  0.13400  0.93410  1.0000
  C   C40       1.0  0.27290  0.63400  0.56590  1.0000
  H   H13       1.0  0.76650  0.81440  0.11240  1.0000
  H   H14       1.0  0.73350  0.31440  0.38760  1.0000
  H   H15       1.0  0.23350  0.18560  0.88760  1.0000
  H   H16       1.0  0.26650  0.68560  0.61240  1.0000
  H   H17       1.0  0.79890  0.85280  0.98460  1.0000
  H   H18       1.0  0.70110  0.35280  0.51540  1.0000
  H   H19       1.0  0.20110  0.14720  0.01540  1.0000
  H   H20       1.0  0.29890  0.64720  0.48460  1.0000
  H   H21       1.0  0.68330  0.89430  0.05890  1.0000
  H   H22       1.0  0.81670  0.39430  0.44110  1.0000
  H   H23       1.0  0.31670  0.10570  0.94110  1.0000
  H   H24       1.0  0.18330  0.60570  0.55890  1.0000
  C   C41       1.0  0.02200  0.88510  0.13420  1.0000
  C   C42       1.0  0.47800  0.38510  0.36580  1.0000
  C   C43       1.0  0.97800  0.11490  0.86580  1.0000
  C   C44       1.0  0.52200  0.61490  0.63420  1.0000
  H   H25       1.0  0.08720  0.92170  0.18160  1.0000
  H   H26       1.0  0.41280  0.42170  0.31840  1.0000
  H   H27       1.0  0.91280  0.07830  0.81840  1.0000
  H   H28       1.0  0.58720  0.57830  0.68160  1.0000
  H   H29       1.0  0.04910  0.87970  0.05150  1.0000
  H   H30       1.0  0.45090  0.37970  0.44850  1.0000
  H   H31       1.0  0.95090  0.12030  0.94850  1.0000
  H   H32       1.0  0.54910  0.62030  0.55150  1.0000
  H   H33       1.0  0.02250  0.83000  0.17250  1.0000
  H   H34       1.0  0.47750  0.33000  0.32750  1.0000
  H   H35       1.0  0.97750  0.17000  0.82750  1.0000
  H   H36       1.0  0.52250  0.67000  0.67250  1.0000
  H   H37       1.0  0.87500  0.97500  0.08700  1.0000
  H   H38       1.0  0.62500  0.47500  0.41300  1.0000
  H   H39       1.0  0.12500  0.02500  0.91300  1.0000
  H   H40       1.0  0.37500  0.52500  0.58700  1.0000
