data_image0
_chemical_formula_structural       Mn5S6O36C6H2C2H2C4H2C2H2C4H2C2H2C4H2C2H2C8H2C2H2C4H2C2H2C4H2C2H2C4H2C2H2C8H2C2H2C4H2C2H2C4H2C2H2C4H2C2H2C2
_chemical_formula_sum              "Mn5 S6 O36 C84 H48"
_cell_length_a       12.7609
_cell_length_b       12.7682
_cell_length_c       16.0315
_cell_angle_alpha    87.646
_cell_angle_beta     72.508
_cell_angle_gamma    60.477

_space_group_name_H-M_alt    "P 1"
_space_group_IT_number       1

loop_
  _space_group_symop_operation_xyz
  'x, y, z'

loop_
  _atom_site_type_symbol
  _atom_site_label
  _atom_site_symmetry_multiplicity
  _atom_site_fract_x
  _atom_site_fract_y
  _atom_site_fract_z
  _atom_site_occupancy
  Mn  Mn1       1.0  0.50000  0.50000  0.50000  1.0000
  Mn  Mn2       1.0  0.54319  0.25865  0.41249  1.0000
  Mn  Mn3       1.0  0.45681  0.74135  0.58751  1.0000
  Mn  Mn4       1.0  0.64718  0.23515  0.21056  1.0000
  Mn  Mn5       1.0  0.35282  0.76485  0.78944  1.0000
  S   S1        1.0  0.07756  0.01329  0.29621  1.0000
  S   S2        1.0  0.92244  0.98671  0.70379  1.0000
  S   S3        1.0  0.11891  0.49597  0.31185  1.0000
  S   S4        1.0  0.88109  0.50403  0.68815  1.0000
  S   S5        1.0  0.28124  0.20477  0.97368  1.0000
  S   S6        1.0  0.71876  0.79523  0.02632  1.0000
  O   O1        1.0  0.45510  0.39790  0.59213  1.0000
  O   O2        1.0  0.54490  0.60210  0.40787  1.0000
  O   O3        1.0  0.66855  0.33565  0.41330  1.0000
  O   O4        1.0  0.33145  0.66435  0.58670  1.0000
  O   O5        1.0  0.42344  0.45647  0.40585  1.0000
  O   O6        1.0  0.57656  0.54353  0.59415  1.0000
  O   O7        1.0  0.70130  0.08980  0.36850  1.0000
  O   O8        1.0  0.29870  0.91020  0.63150  1.0000
  O   O9        1.0  0.44590  0.21850  0.34992  1.0000
  O   O10       1.0  0.55410  0.78150  0.65008  1.0000
  O   O11       1.0  0.47070  0.23250  0.53971  1.0000
  O   O12       1.0  0.52930  0.76750  0.46029  1.0000
  O   O13       1.0  0.70550  0.25450  0.08018  1.0000
  O   O14       1.0  0.29450  0.74550  0.91982  1.0000
  O   O15       1.0  0.76690  0.05440  0.22227  1.0000
  O   O16       1.0  0.23310  0.94560  0.77773  1.0000
  O   O17       1.0  0.74460  0.29150  0.26709  1.0000
  O   O18       1.0  0.25540  0.70850  0.73291  1.0000
  O   O19       1.0  0.50850  0.19310  0.20341  1.0000
  O   O20       1.0  0.49150  0.80690  0.79659  1.0000
  O   O21       1.0  0.48920  0.41874  0.25953  1.0000
  O   O22       1.0  0.51080  0.58126  0.74047  1.0000
  O   O23       1.0  0.66700  0.42140  0.01900  1.0000
  O   O24       1.0  0.33300  0.57860  0.98100  1.0000
  O   O25       1.0  0.05610  0.01890  0.21300  1.0000
  O   O26       1.0  0.94390  0.98110  0.78700  1.0000
  O   O27       1.0  0.97200  0.06910  0.37623  1.0000
  O   O28       1.0  0.02800  0.93090  0.62377  1.0000
  O   O29       1.0  0.15030  0.48014  0.39187  1.0000
  O   O30       1.0  0.84970  0.51986  0.60813  1.0000
  O   O31       1.0  0.21920  0.44357  0.22877  1.0000
  O   O32       1.0  0.78080  0.55643  0.77123  1.0000
  O   O33       1.0  0.27350  0.29410  0.03058  1.0000
  O   O34       1.0  0.72650  0.70590  0.96942  1.0000
  O   O35       1.0  0.35870  0.07890  0.98022  1.0000
  O   O36       1.0  0.64130  0.92110  0.01978  1.0000
  C   C1        1.0  0.44040  0.19100  0.27780  1.0000
  C   C2        1.0  0.55960  0.80900  0.72220  1.0000
  C   C3        1.0  0.34530  0.15250  0.28210  1.0000
  C   C4        1.0  0.65470  0.84750  0.71790  1.0000
  C   C5        1.0  0.34510  0.10610  0.20580  1.0000
  C   C6        1.0  0.65490  0.89390  0.79420  1.0000
  H   H1        1.0  0.40110  0.10230  0.15150  1.0000
  H   H2        1.0  0.59890  0.89770  0.84850  1.0000
  C   C7        1.0  0.26180  0.06530  0.21020  1.0000
  C   C8        1.0  0.73820  0.93470  0.78980  1.0000
  H   H3        1.0  0.26190  0.03320  0.15920  1.0000
  H   H4        1.0  0.73810  0.96680  0.84080  1.0000
  C   C9        1.0  0.17910  0.07250  0.29020  1.0000
  C   C10       1.0  0.82090  0.92750  0.70980  1.0000
  C   C11       1.0  0.17530  0.12140  0.36700  1.0000
  C   C12       1.0  0.82470  0.87860  0.63300  1.0000
  H   H5        1.0  0.11700  0.12770  0.42090  1.0000
  H   H6        1.0  0.88300  0.87230  0.57910  1.0000
  C   C13       1.0  0.25990  0.16040  0.36200  1.0000
  C   C14       1.0  0.74010  0.83960  0.63800  1.0000
  H   H7        1.0  0.25940  0.19270  0.41320  1.0000
  H   H8        1.0  0.74060  0.80730  0.58680  1.0000
  C   C15       1.0  0.17510  0.85870  0.30690  1.0000
  C   C16       1.0  0.82490  0.14130  0.69310  1.0000
  C   C17       1.0  0.25250  0.77620  0.23210  1.0000
  C   C18       1.0  0.74750  0.22380  0.76790  1.0000
  H   H9        1.0  0.25140  0.80040  0.17670  1.0000
  H   H10       1.0  0.74860  0.19960  0.82330  1.0000
  C   C19       1.0  0.33230  0.65630  0.24040  1.0000
  C   C20       1.0  0.66770  0.34370  0.75960  1.0000
  H   H11       1.0  0.38520  0.60000  0.19010  1.0000
  H   H12       1.0  0.61480  0.40000  0.80990  1.0000
  C   C21       1.0  0.33390  0.61980  0.32270  1.0000
  C   C22       1.0  0.66610  0.38020  0.67730  1.0000
  C   C23       1.0  0.25600  0.70540  0.39630  1.0000
  C   C24       1.0  0.74400  0.29460  0.60370  1.0000
  H   H13       1.0  0.25740  0.68220  0.45180  1.0000
  H   H14       1.0  0.74260  0.31780  0.54820  1.0000
  C   C25       1.0  0.17560  0.82510  0.38900  1.0000
  C   C26       1.0  0.82440  0.17490  0.61100  1.0000
  H   H15       1.0  0.12290  0.88180  0.43910  1.0000
  H   H16       1.0  0.87710  0.11820  0.56090  1.0000
  C   C27       1.0  0.42180  0.48920  0.32920  1.0000
  C   C28       1.0  0.57820  0.51080  0.67080  1.0000
  C   C29       1.0  0.74430  0.32890  0.33730  1.0000
  C   C30       1.0  0.25570  0.67110  0.66270  1.0000
  C   C31       1.0  0.83930  0.36840  0.33180  1.0000
  C   C32       1.0  0.16070  0.63160  0.66820  1.0000
  C   C33       1.0  0.83540  0.42570  0.40530  1.0000
  C   C34       1.0  0.16460  0.57430  0.59470  1.0000
  H   H17       1.0  0.77380  0.43950  0.45930  1.0000
  H   H18       1.0  0.22620  0.56050  0.54070  1.0000
  C   C35       1.0  0.92280  0.46220  0.39860  1.0000
  C   C36       1.0  0.07720  0.53780  0.60140  1.0000
  H   H19       1.0  0.92040  0.50010  0.44800  1.0000
  H   H20       1.0  0.07960  0.49990  0.55200  1.0000
  C   C37       1.0  0.01310  0.44240  0.31870  1.0000
  C   C38       1.0  0.98690  0.55760  0.68130  1.0000
  C   C39       1.0  0.01930  0.38510  0.24430  1.0000
  C   C40       1.0  0.98070  0.61490  0.75570  1.0000
  H   H21       1.0  0.08110  0.37120  0.19040  1.0000
  H   H22       1.0  0.91890  0.62880  0.80960  1.0000
  C   C41       1.0  0.93080  0.34880  0.25230  1.0000
  C   C42       1.0  0.06920  0.65120  0.74770  1.0000
  H   H23       1.0  0.93340  0.31050  0.20300  1.0000
  H   H24       1.0  0.06660  0.68950  0.79700  1.0000
  C   C43       1.0  0.02410  0.65240  0.30820  1.0000
  C   C44       1.0  0.97590  0.34760  0.69180  1.0000
  C   C45       1.0  0.94620  0.73020  0.38490  1.0000
  C   C46       1.0  0.05380  0.26980  0.61510  1.0000
  H   H25       1.0  0.94810  0.70220  0.43920  1.0000
  H   H26       1.0  0.05190  0.29780  0.56080  1.0000
  C   C47       1.0  0.86500  0.85050  0.38070  1.0000
  C   C48       1.0  0.13500  0.14950  0.61930  1.0000
  H   H27       1.0  0.81100  0.90350  0.43250  1.0000
  H   H28       1.0  0.18900  0.09650  0.56750  1.0000
  C   C49       1.0  0.86330  0.89260  0.30030  1.0000
  C   C50       1.0  0.13670  0.10740  0.69970  1.0000
  C   C51       1.0  0.94540  0.81410  0.22400  1.0000
  C   C52       1.0  0.05460  0.18590  0.77600  1.0000
  H   H29       1.0  0.94640  0.84230  0.16950  1.0000
  H   H30       1.0  0.05360  0.15770  0.83050  1.0000
  C   C53       1.0  0.02610  0.69380  0.22820  1.0000
  C   C54       1.0  0.97390  0.30620  0.77180  1.0000
  H   H31       1.0  0.08190  0.64090  0.17660  1.0000
  H   H32       1.0  0.91810  0.35910  0.82340  1.0000
  C   C55       1.0  0.77080  0.02300  0.29640  1.0000
  C   C56       1.0  0.22920  0.97700  0.70360  1.0000
  C   C57       1.0  0.73980  0.32700  0.04180  1.0000
  C   C58       1.0  0.26020  0.67300  0.95820  1.0000
  C   C59       1.0  0.87530  0.29420  0.02470  1.0000
  C   C60       1.0  0.12470  0.70580  0.97530  1.0000
  C   C61       1.0  0.96280  0.18350  0.04120  1.0000
  C   C62       1.0  0.03720  0.81650  0.95880  1.0000
  H   H33       1.0  0.93720  0.12870  0.06410  1.0000
  H   H34       1.0  0.06280  0.87130  0.93590  1.0000
  C   C63       1.0  0.08740  0.15310  0.02420  1.0000
  C   C64       1.0  0.91260  0.84690  0.97580  1.0000
  H   H35       1.0  0.14600  0.07770  0.03460  1.0000
  H   H36       1.0  0.85400  0.92230  0.96540  1.0000
  C   C65       1.0  0.12450  0.23570  0.99160  1.0000
  C   C66       1.0  0.87550  0.76430  0.00840  1.0000
  C   C67       1.0  0.03780  0.34760  0.97530  1.0000
  C   C68       1.0  0.96220  0.65240  0.02470  1.0000
  H   H37       1.0  0.06350  0.40270  0.95330  1.0000
  H   H38       1.0  0.93650  0.59730  0.04670  1.0000
  C   C69       1.0  0.91340  0.37720  0.99170  1.0000
  C   C70       1.0  0.08660  0.62280  0.00830  1.0000
  H   H39       1.0  0.85500  0.45220  0.98080  1.0000
  H   H40       1.0  0.14500  0.54780  0.01920  1.0000
  C   C71       1.0  0.33140  0.23160  0.86380  1.0000
  C   C72       1.0  0.66860  0.76840  0.13620  1.0000
  C   C73       1.0  0.34160  0.33370  0.84940  1.0000
  C   C74       1.0  0.65840  0.66630  0.15060  1.0000
  H   H41       1.0  0.32500  0.38580  0.89650  1.0000
  H   H42       1.0  0.67500  0.61420  0.10350  1.0000
  C   C75       1.0  0.37690  0.35740  0.76380  1.0000
  C   C76       1.0  0.62310  0.64260  0.23620  1.0000
  H   H43       1.0  0.38180  0.42740  0.75340  1.0000
  H   H44       1.0  0.61820  0.57260  0.24660  1.0000
  C   C77       1.0  0.40500  0.27870  0.69370  1.0000
  C   C78       1.0  0.59500  0.72130  0.30630  1.0000
  C   C79       1.0  0.39440  0.17630  0.71000  1.0000
  C   C80       1.0  0.60560  0.82370  0.29000  1.0000
  H   H45       1.0  0.41240  0.12330  0.66300  1.0000
  H   H46       1.0  0.58760  0.87670  0.33700  1.0000
  C   C81       1.0  0.35790  0.15210  0.79460  1.0000
  C   C82       1.0  0.64210  0.84790  0.20540  1.0000
  H   H47       1.0  0.35100  0.08330  0.80520  1.0000
  H   H48       1.0  0.64900  0.91670  0.19480  1.0000
  C   C83       1.0  0.44630  0.30430  0.60210  1.0000
  C   C84       1.0  0.55370  0.69570  0.39790  1.0000
