data_image0
_chemical_formula_structural       U16O96C24H8C24H8O8C24H8C8H8C24H8C8H8C8H8C24H8C8H8C16H8O8C8H8C8H8O16C8
_chemical_formula_sum              "U16 O128 C192 H96"
_cell_length_a       23.5464
_cell_length_b       23.5464
_cell_length_c       20.1023
_cell_angle_alpha    90
_cell_angle_beta     90
_cell_angle_gamma    90

_space_group_name_H-M_alt    "P 1"
_space_group_IT_number       1

loop_
  _space_group_symop_operation_xyz
  'x, y, z'

loop_
  _atom_site_type_symbol
  _atom_site_label
  _atom_site_symmetry_multiplicity
  _atom_site_fract_x
  _atom_site_fract_y
  _atom_site_fract_z
  _atom_site_occupancy
  U   U1        1.0  0.80117  0.53909  0.79828  1.0000
  U   U2        1.0  0.19883  0.46091  0.79828  1.0000
  U   U3        1.0  0.53909  0.19883  0.20172  1.0000
  U   U4        1.0  0.46091  0.80117  0.20172  1.0000
  U   U5        1.0  0.69883  0.03909  0.70172  1.0000
  U   U6        1.0  0.30117  0.96091  0.70172  1.0000
  U   U7        1.0  0.96091  0.69883  0.29828  1.0000
  U   U8        1.0  0.03909  0.30117  0.29828  1.0000
  U   U9        1.0  0.42817  0.23284  0.80565  1.0000
  U   U10       1.0  0.57183  0.76716  0.80565  1.0000
  U   U11       1.0  0.23284  0.57183  0.19435  1.0000
  U   U12       1.0  0.76716  0.42817  0.19435  1.0000
  U   U13       1.0  0.07183  0.73284  0.69435  1.0000
  U   U14       1.0  0.92817  0.26716  0.69435  1.0000
  U   U15       1.0  0.26716  0.07183  0.30565  1.0000
  U   U16       1.0  0.73284  0.92817  0.30565  1.0000
  O   O1        1.0  0.48130  0.18160  0.80130  1.0000
  O   O2        1.0  0.51870  0.81840  0.80130  1.0000
  O   O3        1.0  0.18160  0.51870  0.19870  1.0000
  O   O4        1.0  0.81840  0.48130  0.19870  1.0000
  O   O5        1.0  0.01870  0.68160  0.69870  1.0000
  O   O6        1.0  0.98130  0.31840  0.69870  1.0000
  O   O7        1.0  0.31840  0.01870  0.30130  1.0000
  O   O8        1.0  0.68160  0.98130  0.30130  1.0000
  O   O9        1.0  0.42200  0.23170  0.68420  1.0000
  O   O10       1.0  0.57800  0.76830  0.68420  1.0000
  O   O11       1.0  0.23170  0.57800  0.31580  1.0000
  O   O12       1.0  0.76830  0.42200  0.31580  1.0000
  O   O13       1.0  0.07800  0.73170  0.81580  1.0000
  O   O14       1.0  0.92200  0.26830  0.81580  1.0000
  O   O15       1.0  0.26830  0.07800  0.18420  1.0000
  O   O16       1.0  0.73170  0.92200  0.18420  1.0000
  O   O17       1.0  0.80780  0.53840  0.91830  1.0000
  O   O18       1.0  0.19220  0.46160  0.91830  1.0000
  O   O19       1.0  0.53840  0.19220  0.08170  1.0000
  O   O20       1.0  0.46160  0.80780  0.08170  1.0000
  O   O21       1.0  0.69220  0.03840  0.58170  1.0000
  O   O22       1.0  0.30780  0.96160  0.58170  1.0000
  O   O23       1.0  0.96160  0.69220  0.41830  1.0000
  O   O24       1.0  0.03840  0.30780  0.41830  1.0000
  O   O25       1.0  0.95710  0.69610  0.17570  1.0000
  O   O26       1.0  0.04290  0.30390  0.17570  1.0000
  O   O27       1.0  0.69610  0.04290  0.82430  1.0000
  O   O28       1.0  0.30390  0.95710  0.82430  1.0000
  O   O29       1.0  0.54290  0.19610  0.32430  1.0000
  O   O30       1.0  0.45710  0.80390  0.32430  1.0000
  O   O31       1.0  0.80390  0.54290  0.67570  1.0000
  O   O32       1.0  0.19610  0.45710  0.67570  1.0000
  O   O33       1.0  0.37510  0.28300  0.80950  1.0000
  O   O34       1.0  0.62490  0.71700  0.80950  1.0000
  O   O35       1.0  0.28300  0.62490  0.19050  1.0000
  O   O36       1.0  0.71700  0.37510  0.19050  1.0000
  O   O37       1.0  0.12490  0.78300  0.69050  1.0000
  O   O38       1.0  0.87510  0.21700  0.69050  1.0000
  O   O39       1.0  0.21700  0.12490  0.30950  1.0000
  O   O40       1.0  0.78300  0.87510  0.30950  1.0000
  O   O41       1.0  0.72950  0.48090  0.85270  1.0000
  O   O42       1.0  0.27050  0.51910  0.85270  1.0000
  O   O43       1.0  0.48090  0.27050  0.14730  1.0000
  O   O44       1.0  0.51910  0.72950  0.14730  1.0000
  O   O45       1.0  0.77050  0.98090  0.64730  1.0000
  O   O46       1.0  0.22950  0.01910  0.64730  1.0000
  O   O47       1.0  0.01910  0.77050  0.35270  1.0000
  O   O48       1.0  0.98090  0.22950  0.35270  1.0000
  O   O49       1.0  0.36770  0.17070  0.73720  1.0000
  O   O50       1.0  0.63230  0.82930  0.73720  1.0000
  O   O51       1.0  0.17070  0.63230  0.26280  1.0000
  O   O52       1.0  0.82930  0.36770  0.26280  1.0000
  O   O53       1.0  0.13230  0.67070  0.76280  1.0000
  O   O54       1.0  0.86770  0.32930  0.76280  1.0000
  O   O55       1.0  0.32930  0.13230  0.23720  1.0000
  O   O56       1.0  0.67070  0.86770  0.23720  1.0000
  O   O57       1.0  0.49160  0.30040  0.74990  1.0000
  O   O58       1.0  0.50840  0.69960  0.74990  1.0000
  O   O59       1.0  0.30040  0.50840  0.25010  1.0000
  O   O60       1.0  0.69960  0.49160  0.25010  1.0000
  O   O61       1.0  0.00840  0.80040  0.75010  1.0000
  O   O62       1.0  0.99160  0.19960  0.75010  1.0000
  O   O63       1.0  0.19960  0.00840  0.24990  1.0000
  O   O64       1.0  0.80040  0.99160  0.24990  1.0000
  O   O65       1.0  0.73000  0.47770  0.74630  1.0000
  O   O66       1.0  0.27000  0.52230  0.74630  1.0000
  O   O67       1.0  0.47770  0.27000  0.25370  1.0000
  O   O68       1.0  0.52230  0.73000  0.25370  1.0000
  O   O69       1.0  0.77000  0.97770  0.75370  1.0000
  O   O70       1.0  0.23000  0.02230  0.75370  1.0000
  O   O71       1.0  0.02230  0.77000  0.24630  1.0000
  O   O72       1.0  0.97770  0.23000  0.24630  1.0000
  O   O73       1.0  0.49500  0.29700  0.85780  1.0000
  O   O74       1.0  0.50500  0.70300  0.85780  1.0000
  O   O75       1.0  0.29700  0.50500  0.14220  1.0000
  O   O76       1.0  0.70300  0.49500  0.14220  1.0000
  O   O77       1.0  0.00500  0.79700  0.64220  1.0000
  O   O78       1.0  0.99500  0.20300  0.64220  1.0000
  O   O79       1.0  0.20300  0.00500  0.35780  1.0000
  O   O80       1.0  0.79700  0.99500  0.35780  1.0000
  O   O81       1.0  0.90660  0.63270  0.22880  1.0000
  O   O82       1.0  0.09340  0.36730  0.22880  1.0000
  O   O83       1.0  0.63270  0.09340  0.77120  1.0000
  O   O84       1.0  0.36730  0.90660  0.77120  1.0000
  O   O85       1.0  0.59340  0.13270  0.27120  1.0000
  O   O86       1.0  0.40660  0.86730  0.27120  1.0000
  O   O87       1.0  0.86730  0.59340  0.72880  1.0000
  O   O88       1.0  0.13270  0.40660  0.72880  1.0000
  O   O89       1.0  0.86720  0.59440  0.86810  1.0000
  O   O90       1.0  0.13280  0.40560  0.86810  1.0000
  O   O91       1.0  0.59440  0.13280  0.13190  1.0000
  O   O92       1.0  0.40560  0.86720  0.13190  1.0000
  O   O93       1.0  0.63280  0.09440  0.63190  1.0000
  O   O94       1.0  0.36720  0.90560  0.63190  1.0000
  O   O95       1.0  0.90560  0.63280  0.36810  1.0000
  O   O96       1.0  0.09440  0.36720  0.36810  1.0000
  C   C1        1.0  0.70710  0.46380  0.79970  1.0000
  C   C2        1.0  0.29290  0.53620  0.79970  1.0000
  C   C3        1.0  0.46380  0.29290  0.20030  1.0000
  C   C4        1.0  0.53620  0.70710  0.20030  1.0000
  C   C5        1.0  0.79290  0.96380  0.70030  1.0000
  C   C6        1.0  0.20710  0.03620  0.70030  1.0000
  C   C7        1.0  0.03620  0.79290  0.29970  1.0000
  C   C8        1.0  0.96380  0.20710  0.29970  1.0000
  C   C9        1.0  0.65720  0.42680  0.80100  1.0000
  C   C10       1.0  0.34280  0.57320  0.80100  1.0000
  C   C11       1.0  0.42680  0.34280  0.19900  1.0000
  C   C12       1.0  0.57320  0.65720  0.19900  1.0000
  C   C13       1.0  0.84280  0.92680  0.69900  1.0000
  C   C14       1.0  0.15720  0.07320  0.69900  1.0000
  C   C15       1.0  0.07320  0.84280  0.30100  1.0000
  C   C16       1.0  0.92680  0.15720  0.30100  1.0000
  C   C17       1.0  0.32350  0.12910  0.61350  1.0000
  C   C18       1.0  0.67650  0.87090  0.61350  1.0000
  C   C19       1.0  0.12910  0.67650  0.38650  1.0000
  C   C20       1.0  0.87090  0.32350  0.38650  1.0000
  C   C21       1.0  0.17650  0.62910  0.88650  1.0000
  C   C22       1.0  0.82350  0.37090  0.88650  1.0000
  C   C23       1.0  0.37090  0.17650  0.11350  1.0000
  C   C24       1.0  0.62910  0.82350  0.11350  1.0000
  H   H1        1.0  0.30610  0.11550  0.65180  1.0000
  H   H2        1.0  0.69390  0.88450  0.65180  1.0000
  H   H3        1.0  0.11550  0.69390  0.34820  1.0000
  H   H4        1.0  0.88450  0.30610  0.34820  1.0000
  H   H5        1.0  0.19390  0.61550  0.84820  1.0000
  H   H6        1.0  0.80610  0.38450  0.84820  1.0000
  H   H7        1.0  0.38450  0.19390  0.15180  1.0000
  H   H8        1.0  0.61550  0.80610  0.15180  1.0000
  C   C25       1.0  0.38840  0.19130  0.68180  1.0000
  C   C26       1.0  0.61160  0.80870  0.68180  1.0000
  C   C27       1.0  0.19130  0.61160  0.31820  1.0000
  C   C28       1.0  0.80870  0.38840  0.31820  1.0000
  C   C29       1.0  0.11160  0.69130  0.81820  1.0000
  C   C30       1.0  0.88840  0.30870  0.81820  1.0000
  C   C31       1.0  0.30870  0.11160  0.18180  1.0000
  C   C32       1.0  0.69130  0.88840  0.18180  1.0000
  C   C33       1.0  0.36970  0.17090  0.61900  1.0000
  C   C34       1.0  0.63030  0.82910  0.61900  1.0000
  C   C35       1.0  0.17090  0.63030  0.38100  1.0000
  C   C36       1.0  0.82910  0.36970  0.38100  1.0000
  C   C37       1.0  0.13030  0.67090  0.88100  1.0000
  C   C38       1.0  0.86970  0.32910  0.88100  1.0000
  C   C39       1.0  0.32910  0.13030  0.11900  1.0000
  C   C40       1.0  0.67090  0.86970  0.11900  1.0000
  C   C41       1.0  0.90880  0.63810  0.98860  1.0000
  C   C42       1.0  0.09120  0.36190  0.98860  1.0000
  C   C43       1.0  0.63810  0.09120  0.01140  1.0000
  C   C44       1.0  0.36190  0.90880  0.01140  1.0000
  C   C45       1.0  0.59120  0.13810  0.51140  1.0000
  C   C46       1.0  0.40880  0.86190  0.51140  1.0000
  C   C47       1.0  0.86190  0.59120  0.48860  1.0000
  C   C48       1.0  0.13810  0.40880  0.48860  1.0000
  H   H9        1.0  0.92240  0.65410  0.94940  1.0000
  H   H10       1.0  0.07760  0.34590  0.94940  1.0000
  H   H11       1.0  0.65410  0.07760  0.05060  1.0000
  H   H12       1.0  0.34590  0.92240  0.05060  1.0000
  H   H13       1.0  0.57760  0.15410  0.55060  1.0000
  H   H14       1.0  0.42240  0.84590  0.55060  1.0000
  H   H15       1.0  0.84590  0.57760  0.44940  1.0000
  H   H16       1.0  0.15410  0.42240  0.44940  1.0000
  O   O97       1.0  0.84810  0.48370  0.79500  1.0000
  O   O98       1.0  0.15190  0.51630  0.79500  1.0000
  O   O99       1.0  0.48370  0.15190  0.20500  1.0000
  O   O100      1.0  0.51630  0.84810  0.20500  1.0000
  O   O101      1.0  0.65190  0.98370  0.70500  1.0000
  O   O102      1.0  0.34810  0.01630  0.70500  1.0000
  O   O103      1.0  0.01630  0.65190  0.29500  1.0000
  O   O104      1.0  0.98370  0.34810  0.29500  1.0000
  C   C49       1.0  0.86870  0.59620  0.98820  1.0000
  C   C50       1.0  0.13130  0.40380  0.98820  1.0000
  C   C51       1.0  0.59620  0.13130  0.01180  1.0000
  C   C52       1.0  0.40380  0.86870  0.01180  1.0000
  C   C53       1.0  0.63130  0.09620  0.51180  1.0000
  C   C54       1.0  0.36870  0.90380  0.51180  1.0000
  C   C55       1.0  0.90380  0.63130  0.48820  1.0000
  C   C56       1.0  0.09620  0.36870  0.48820  1.0000
  C   C57       1.0  0.92440  0.65460  0.17550  1.0000
  C   C58       1.0  0.07560  0.34540  0.17550  1.0000
  C   C59       1.0  0.65460  0.07560  0.82450  1.0000
  C   C60       1.0  0.34540  0.92440  0.82450  1.0000
  C   C61       1.0  0.57560  0.15460  0.32450  1.0000
  C   C62       1.0  0.42440  0.84540  0.32450  1.0000
  C   C63       1.0  0.84540  0.57560  0.67550  1.0000
  C   C64       1.0  0.15460  0.42440  0.67550  1.0000
  C   C65       1.0  0.84780  0.57150  0.04420  1.0000
  C   C66       1.0  0.15220  0.42850  0.04420  1.0000
  C   C67       1.0  0.57150  0.15220  0.95580  1.0000
  C   C68       1.0  0.42850  0.84780  0.95580  1.0000
  C   C69       1.0  0.65220  0.07150  0.45580  1.0000
  C   C70       1.0  0.34780  0.92850  0.45580  1.0000
  C   C71       1.0  0.92850  0.65220  0.54420  1.0000
  C   C72       1.0  0.07150  0.34780  0.54420  1.0000
  H   H17       1.0  0.81970  0.54380  0.04100  1.0000
  H   H18       1.0  0.18030  0.45620  0.04100  1.0000
  H   H19       1.0  0.54380  0.18030  0.95900  1.0000
  H   H20       1.0  0.45620  0.81970  0.95900  1.0000
  H   H21       1.0  0.68030  0.04380  0.45900  1.0000
  H   H22       1.0  0.31970  0.95620  0.45900  1.0000
  H   H23       1.0  0.95620  0.68030  0.54100  1.0000
  H   H24       1.0  0.04380  0.31970  0.54100  1.0000
  C   C73       1.0  0.63520  0.40600  0.74200  1.0000
  C   C74       1.0  0.36480  0.59400  0.74200  1.0000
  C   C75       1.0  0.40600  0.36480  0.25800  1.0000
  C   C76       1.0  0.59400  0.63520  0.25800  1.0000
  C   C77       1.0  0.86480  0.90600  0.75800  1.0000
  C   C78       1.0  0.13520  0.09400  0.75800  1.0000
  C   C79       1.0  0.09400  0.86480  0.24200  1.0000
  C   C80       1.0  0.90600  0.13520  0.24200  1.0000
  H   H25       1.0  0.65210  0.41660  0.70210  1.0000
  H   H26       1.0  0.34790  0.58340  0.70210  1.0000
  H   H27       1.0  0.41660  0.34790  0.29790  1.0000
  H   H28       1.0  0.58340  0.65210  0.29790  1.0000
  H   H29       1.0  0.84790  0.91660  0.79790  1.0000
  H   H30       1.0  0.15210  0.08340  0.79790  1.0000
  H   H31       1.0  0.08340  0.84790  0.20210  1.0000
  H   H32       1.0  0.91660  0.15210  0.20210  1.0000
  C   C81       1.0  0.84770  0.57490  0.92160  1.0000
  C   C82       1.0  0.15230  0.42510  0.92160  1.0000
  C   C83       1.0  0.57490  0.15230  0.07840  1.0000
  C   C84       1.0  0.42510  0.84770  0.07840  1.0000
  C   C85       1.0  0.65230  0.07490  0.57840  1.0000
  C   C86       1.0  0.34770  0.92510  0.57840  1.0000
  C   C87       1.0  0.92510  0.65230  0.42160  1.0000
  C   C88       1.0  0.07490  0.34770  0.42160  1.0000
  C   C89       1.0  0.56330  0.35660  0.80430  1.0000
  C   C90       1.0  0.43670  0.64340  0.80430  1.0000
  C   C91       1.0  0.35660  0.43670  0.19570  1.0000
  C   C92       1.0  0.64340  0.56330  0.19570  1.0000
  C   C93       1.0  0.93670  0.85660  0.69570  1.0000
  C   C94       1.0  0.06330  0.14340  0.69570  1.0000
  C   C95       1.0  0.14340  0.93670  0.30430  1.0000
  C   C96       1.0  0.85660  0.06330  0.30430  1.0000
  C   C97       1.0  0.30640  0.11040  0.55400  1.0000
  C   C98       1.0  0.69360  0.88960  0.55400  1.0000
  C   C99       1.0  0.11040  0.69360  0.44600  1.0000
  C   C100      1.0  0.88960  0.30640  0.44600  1.0000
  C   C101      1.0  0.19360  0.61040  0.94600  1.0000
  C   C102      1.0  0.80640  0.38960  0.94600  1.0000
  C   C103      1.0  0.38960  0.19360  0.05400  1.0000
  C   C104      1.0  0.61040  0.80640  0.05400  1.0000
  H   H33       1.0  0.27850  0.08250  0.55150  1.0000
  H   H34       1.0  0.72150  0.91750  0.55150  1.0000
  H   H35       1.0  0.08250  0.72150  0.44850  1.0000
  H   H36       1.0  0.91750  0.27850  0.44850  1.0000
  H   H37       1.0  0.22150  0.58250  0.94850  1.0000
  H   H38       1.0  0.77850  0.41750  0.94850  1.0000
  H   H39       1.0  0.41750  0.22150  0.05150  1.0000
  H   H40       1.0  0.58250  0.77850  0.05150  1.0000
  C   C105      1.0  0.58990  0.37060  0.74080  1.0000
  C   C106      1.0  0.41010  0.62940  0.74080  1.0000
  C   C107      1.0  0.37060  0.41010  0.25920  1.0000
  C   C108      1.0  0.62940  0.58990  0.25920  1.0000
  C   C109      1.0  0.91010  0.87060  0.75920  1.0000
  C   C110      1.0  0.08990  0.12940  0.75920  1.0000
  C   C111      1.0  0.12940  0.91010  0.24080  1.0000
  C   C112      1.0  0.87060  0.08990  0.24080  1.0000
  H   H41       1.0  0.57620  0.35570  0.70100  1.0000
  H   H42       1.0  0.42380  0.64430  0.70100  1.0000
  H   H43       1.0  0.35570  0.42380  0.29900  1.0000
  H   H44       1.0  0.64430  0.57620  0.29900  1.0000
  H   H45       1.0  0.92380  0.85570  0.79900  1.0000
  H   H46       1.0  0.07620  0.14430  0.79900  1.0000
  H   H47       1.0  0.14430  0.92380  0.20100  1.0000
  H   H48       1.0  0.85570  0.07620  0.20100  1.0000
  C   C113      1.0  0.92880  0.65610  0.05160  1.0000
  C   C114      1.0  0.07120  0.34390  0.05160  1.0000
  C   C115      1.0  0.65610  0.07120  0.94840  1.0000
  C   C116      1.0  0.34390  0.92880  0.94840  1.0000
  C   C117      1.0  0.57120  0.15610  0.44840  1.0000
  C   C118      1.0  0.42880  0.84390  0.44840  1.0000
  C   C119      1.0  0.84390  0.57120  0.55160  1.0000
  C   C120      1.0  0.15610  0.42880  0.55160  1.0000
  H   H49       1.0  0.95760  0.68310  0.05380  1.0000
  H   H50       1.0  0.04240  0.31690  0.05380  1.0000
  H   H51       1.0  0.68310  0.04240  0.94620  1.0000
  H   H52       1.0  0.31690  0.95760  0.94620  1.0000
  H   H53       1.0  0.54240  0.18310  0.44620  1.0000
  H   H54       1.0  0.45760  0.81690  0.44620  1.0000
  H   H55       1.0  0.81690  0.54240  0.55380  1.0000
  H   H56       1.0  0.18310  0.45760  0.55380  1.0000
  C   C121      1.0  0.90620  0.63430  0.11060  1.0000
  C   C122      1.0  0.09380  0.36570  0.11060  1.0000
  C   C123      1.0  0.63430  0.09380  0.88940  1.0000
  C   C124      1.0  0.36570  0.90620  0.88940  1.0000
  C   C125      1.0  0.59380  0.13430  0.38940  1.0000
  C   C126      1.0  0.40620  0.86570  0.38940  1.0000
  C   C127      1.0  0.86570  0.59380  0.61060  1.0000
  C   C128      1.0  0.13430  0.40620  0.61060  1.0000
  C   C129      1.0  0.51440  0.31770  0.80460  1.0000
  C   C130      1.0  0.48560  0.68230  0.80460  1.0000
  C   C131      1.0  0.31770  0.48560  0.19540  1.0000
  C   C132      1.0  0.68230  0.51440  0.19540  1.0000
  C   C133      1.0  0.98560  0.81770  0.69540  1.0000
  C   C134      1.0  0.01440  0.18230  0.69540  1.0000
  C   C135      1.0  0.18230  0.98560  0.30460  1.0000
  C   C136      1.0  0.81770  0.01440  0.30460  1.0000
  C   C137      1.0  0.86790  0.58730  0.10500  1.0000
  C   C138      1.0  0.13210  0.41270  0.10500  1.0000
  C   C139      1.0  0.58730  0.13210  0.89500  1.0000
  C   C140      1.0  0.41270  0.86790  0.89500  1.0000
  C   C141      1.0  0.63210  0.08730  0.39500  1.0000
  C   C142      1.0  0.36790  0.91270  0.39500  1.0000
  C   C143      1.0  0.91270  0.63210  0.60500  1.0000
  C   C144      1.0  0.08730  0.36790  0.60500  1.0000
  H   H57       1.0  0.85670  0.56760  0.14290  1.0000
  H   H58       1.0  0.14330  0.43240  0.14290  1.0000
  H   H59       1.0  0.56760  0.14330  0.85710  1.0000
  H   H60       1.0  0.43240  0.85670  0.85710  1.0000
  H   H61       1.0  0.64330  0.06760  0.35710  1.0000
  H   H62       1.0  0.35670  0.93240  0.35710  1.0000
  H   H63       1.0  0.93240  0.64330  0.64290  1.0000
  H   H64       1.0  0.06760  0.35670  0.64290  1.0000
  C   C145      1.0  0.37220  0.17130  0.49830  1.0000
  C   C146      1.0  0.62780  0.82870  0.49830  1.0000
  C   C147      1.0  0.17130  0.62780  0.50170  1.0000
  C   C148      1.0  0.82870  0.37220  0.50170  1.0000
  C   C149      1.0  0.12780  0.67130  0.00170  1.0000
  C   C150      1.0  0.87220  0.32870  0.00170  1.0000
  C   C151      1.0  0.32870  0.12780  0.99830  1.0000
  C   C152      1.0  0.67130  0.87220  0.99830  1.0000
  H   H65       1.0  0.38800  0.18490  0.45900  1.0000
  H   H66       1.0  0.61200  0.81510  0.45900  1.0000
  H   H67       1.0  0.18490  0.61200  0.54100  1.0000
  H   H68       1.0  0.81510  0.38800  0.54100  1.0000
  H   H69       1.0  0.11200  0.68490  0.04100  1.0000
  H   H70       1.0  0.88800  0.31510  0.04100  1.0000
  H   H71       1.0  0.31510  0.11200  0.95900  1.0000
  H   H72       1.0  0.68490  0.88800  0.95900  1.0000
  C   C153      1.0  0.32960  0.13210  0.49600  1.0000
  C   C154      1.0  0.67040  0.86790  0.49600  1.0000
  C   C155      1.0  0.13210  0.67040  0.50400  1.0000
  C   C156      1.0  0.86790  0.32960  0.50400  1.0000
  C   C157      1.0  0.17040  0.63210  0.00400  1.0000
  C   C158      1.0  0.82960  0.36790  0.00400  1.0000
  C   C159      1.0  0.36790  0.17040  0.99600  1.0000
  C   C160      1.0  0.63210  0.82960  0.99600  1.0000
  C   C161      1.0  0.63130  0.41070  0.86050  1.0000
  C   C162      1.0  0.36870  0.58930  0.86050  1.0000
  C   C163      1.0  0.41070  0.36870  0.13950  1.0000
  C   C164      1.0  0.58930  0.63130  0.13950  1.0000
  C   C165      1.0  0.86870  0.91070  0.63950  1.0000
  C   C166      1.0  0.13130  0.08930  0.63950  1.0000
  C   C167      1.0  0.08930  0.86870  0.36050  1.0000
  C   C168      1.0  0.91070  0.13130  0.36050  1.0000
  H   H73       1.0  0.64720  0.42250  0.90050  1.0000
  H   H74       1.0  0.35280  0.57750  0.90050  1.0000
  H   H75       1.0  0.42250  0.35280  0.09950  1.0000
  H   H76       1.0  0.57750  0.64720  0.09950  1.0000
  H   H77       1.0  0.85280  0.92250  0.59950  1.0000
  H   H78       1.0  0.14720  0.07750  0.59950  1.0000
  H   H79       1.0  0.07750  0.85280  0.40050  1.0000
  H   H80       1.0  0.92250  0.14720  0.40050  1.0000
  O   O105      1.0  0.75220  0.59600  0.79970  1.0000
  O   O106      1.0  0.24780  0.40400  0.79970  1.0000
  O   O107      1.0  0.59600  0.24780  0.20030  1.0000
  O   O108      1.0  0.40400  0.75220  0.20030  1.0000
  O   O109      1.0  0.74780  0.09600  0.70030  1.0000
  O   O110      1.0  0.25220  0.90400  0.70030  1.0000
  O   O111      1.0  0.90400  0.74780  0.29970  1.0000
  O   O112      1.0  0.09600  0.25220  0.29970  1.0000
  C   C169      1.0  0.58430  0.37880  0.86190  1.0000
  C   C170      1.0  0.41570  0.62120  0.86190  1.0000
  C   C171      1.0  0.37880  0.41570  0.13810  1.0000
  C   C172      1.0  0.62120  0.58430  0.13810  1.0000
  C   C173      1.0  0.91570  0.87880  0.63810  1.0000
  C   C174      1.0  0.08430  0.12120  0.63810  1.0000
  C   C175      1.0  0.12120  0.91570  0.36190  1.0000
  C   C176      1.0  0.87880  0.08430  0.36190  1.0000
  H   H81       1.0  0.56610  0.37170  0.90210  1.0000
  H   H82       1.0  0.43390  0.62830  0.90210  1.0000
  H   H83       1.0  0.37170  0.43390  0.09790  1.0000
  H   H84       1.0  0.62830  0.56610  0.09790  1.0000
  H   H85       1.0  0.93390  0.87170  0.59790  1.0000
  H   H86       1.0  0.06610  0.12830  0.59790  1.0000
  H   H87       1.0  0.12830  0.93390  0.40210  1.0000
  H   H88       1.0  0.87170  0.06610  0.40210  1.0000
  C   C177      1.0  0.39190  0.19080  0.55910  1.0000
  C   C178      1.0  0.60810  0.80920  0.55910  1.0000
  C   C179      1.0  0.19080  0.60810  0.44090  1.0000
  C   C180      1.0  0.80920  0.39190  0.44090  1.0000
  C   C181      1.0  0.10810  0.69080  0.94090  1.0000
  C   C182      1.0  0.89190  0.30920  0.94090  1.0000
  C   C183      1.0  0.30920  0.10810  0.05910  1.0000
  C   C184      1.0  0.69080  0.89190  0.05910  1.0000
  H   H89       1.0  0.42070  0.21780  0.55990  1.0000
  H   H90       1.0  0.57930  0.78220  0.55990  1.0000
  H   H91       1.0  0.21780  0.57930  0.44010  1.0000
  H   H92       1.0  0.78220  0.42070  0.44010  1.0000
  H   H93       1.0  0.07930  0.71780  0.94010  1.0000
  H   H94       1.0  0.92070  0.28220  0.94010  1.0000
  H   H95       1.0  0.28220  0.07930  0.05990  1.0000
  H   H96       1.0  0.71780  0.92070  0.05990  1.0000
  O   O113      1.0  0.27120  0.07200  0.42610  1.0000
  O   O114      1.0  0.72880  0.92800  0.42610  1.0000
  O   O115      1.0  0.07200  0.72880  0.57390  1.0000
  O   O116      1.0  0.92800  0.27120  0.57390  1.0000
  O   O117      1.0  0.22880  0.57200  0.07390  1.0000
  O   O118      1.0  0.77120  0.42800  0.07390  1.0000
  O   O119      1.0  0.42800  0.22880  0.92610  1.0000
  O   O120      1.0  0.57200  0.77120  0.92610  1.0000
  O   O121      1.0  0.33010  0.12640  0.37650  1.0000
  O   O122      1.0  0.66990  0.87360  0.37650  1.0000
  O   O123      1.0  0.12640  0.66990  0.62350  1.0000
  O   O124      1.0  0.87360  0.33010  0.62350  1.0000
  O   O125      1.0  0.16990  0.62640  0.12350  1.0000
  O   O126      1.0  0.83010  0.37360  0.12350  1.0000
  O   O127      1.0  0.37360  0.16990  0.87650  1.0000
  O   O128      1.0  0.62640  0.83010  0.87650  1.0000
  C   C185      1.0  0.31020  0.10960  0.43010  1.0000
  C   C186      1.0  0.68980  0.89040  0.43010  1.0000
  C   C187      1.0  0.10960  0.68980  0.56990  1.0000
  C   C188      1.0  0.89040  0.31020  0.56990  1.0000
  C   C189      1.0  0.18980  0.60960  0.06990  1.0000
  C   C190      1.0  0.81020  0.39040  0.06990  1.0000
  C   C191      1.0  0.39040  0.18980  0.93010  1.0000
  C   C192      1.0  0.60960  0.81020  0.93010  1.0000
