data_image0
_chemical_formula_structural       U16O32C16O48C16O16C32H16C16H16C32H16C16H16C32H16C16H16C16O32
_chemical_formula_sum              "U16 O128 C192 H96"
_cell_length_a       24.0601
_cell_length_b       24.0601
_cell_length_c       19.7832
_cell_angle_alpha    90
_cell_angle_beta     90
_cell_angle_gamma    90

_space_group_name_H-M_alt    "P 1"
_space_group_IT_number       1

loop_
  _space_group_symop_operation_xyz
  'x, y, z'

loop_
  _atom_site_type_symbol
  _atom_site_label
  _atom_site_symmetry_multiplicity
  _atom_site_fract_x
  _atom_site_fract_y
  _atom_site_fract_z
  _atom_site_occupancy
  U   U1        1.0  0.55146  0.21701  0.29516  1.0000
  U   U2        1.0  0.21701  0.44854  0.70484  1.0000
  U   U3        1.0  0.55146  0.78299  0.70484  1.0000
  U   U4        1.0  0.44854  0.78299  0.29516  1.0000
  U   U5        1.0  0.21701  0.55146  0.29516  1.0000
  U   U6        1.0  0.78299  0.44854  0.29516  1.0000
  U   U7        1.0  0.78299  0.55146  0.70484  1.0000
  U   U8        1.0  0.44854  0.21701  0.70484  1.0000
  U   U9        1.0  0.05146  0.71701  0.79516  1.0000
  U   U10       1.0  0.71701  0.94854  0.20484  1.0000
  U   U11       1.0  0.05146  0.28299  0.20484  1.0000
  U   U12       1.0  0.94854  0.28299  0.79516  1.0000
  U   U13       1.0  0.71701  0.05146  0.79516  1.0000
  U   U14       1.0  0.28299  0.94854  0.79516  1.0000
  U   U15       1.0  0.28299  0.05146  0.20484  1.0000
  U   U16       1.0  0.94854  0.71701  0.20484  1.0000
  O   O1        1.0  0.55080  0.20930  0.41910  1.0000
  O   O2        1.0  0.20930  0.44920  0.58090  1.0000
  O   O3        1.0  0.55080  0.79070  0.58090  1.0000
  O   O4        1.0  0.44920  0.79070  0.41910  1.0000
  O   O5        1.0  0.20930  0.55080  0.41910  1.0000
  O   O6        1.0  0.79070  0.44920  0.41910  1.0000
  O   O7        1.0  0.79070  0.55080  0.58090  1.0000
  O   O8        1.0  0.44920  0.20930  0.58090  1.0000
  O   O9        1.0  0.05080  0.70930  0.91910  1.0000
  O   O10       1.0  0.70930  0.94920  0.08090  1.0000
  O   O11       1.0  0.05080  0.29070  0.08090  1.0000
  O   O12       1.0  0.94920  0.29070  0.91910  1.0000
  O   O13       1.0  0.70930  0.05080  0.91910  1.0000
  O   O14       1.0  0.29070  0.94920  0.91910  1.0000
  O   O15       1.0  0.29070  0.05080  0.08090  1.0000
  O   O16       1.0  0.94920  0.70930  0.08090  1.0000
  O   O17       1.0  0.60900  0.15450  0.36530  1.0000
  O   O18       1.0  0.15450  0.39100  0.63470  1.0000
  O   O19       1.0  0.60900  0.84550  0.63470  1.0000
  O   O20       1.0  0.39100  0.84550  0.36530  1.0000
  O   O21       1.0  0.15450  0.60900  0.36530  1.0000
  O   O22       1.0  0.84550  0.39100  0.36530  1.0000
  O   O23       1.0  0.84550  0.60900  0.63470  1.0000
  O   O24       1.0  0.39100  0.15450  0.63470  1.0000
  O   O25       1.0  0.10900  0.65450  0.86530  1.0000
  O   O26       1.0  0.65450  0.89100  0.13470  1.0000
  O   O27       1.0  0.10900  0.34550  0.13470  1.0000
  O   O28       1.0  0.89100  0.34550  0.86530  1.0000
  O   O29       1.0  0.65450  0.10900  0.86530  1.0000
  O   O30       1.0  0.34550  0.89100  0.86530  1.0000
  O   O31       1.0  0.34550  0.10900  0.13470  1.0000
  O   O32       1.0  0.89100  0.65450  0.13470  1.0000
  C   C1        1.0  0.47280  0.30580  0.29420  1.0000
  C   C2        1.0  0.30580  0.52720  0.70580  1.0000
  C   C3        1.0  0.47280  0.69420  0.70580  1.0000
  C   C4        1.0  0.52720  0.69420  0.29420  1.0000
  C   C5        1.0  0.30580  0.47280  0.29420  1.0000
  C   C6        1.0  0.69420  0.52720  0.29420  1.0000
  C   C7        1.0  0.69420  0.47280  0.70580  1.0000
  C   C8        1.0  0.52720  0.30580  0.70580  1.0000
  C   C9        1.0  0.97280  0.80580  0.79420  1.0000
  C   C10       1.0  0.80580  0.02720  0.20580  1.0000
  C   C11       1.0  0.97280  0.19420  0.20580  1.0000
  C   C12       1.0  0.02720  0.19420  0.79420  1.0000
  C   C13       1.0  0.80580  0.97280  0.79420  1.0000
  C   C14       1.0  0.19420  0.02720  0.79420  1.0000
  C   C15       1.0  0.19420  0.97280  0.20580  1.0000
  C   C16       1.0  0.02720  0.80580  0.20580  1.0000
  O   O33       1.0  0.49340  0.28990  0.23960  1.0000
  O   O34       1.0  0.28990  0.50660  0.76040  1.0000
  O   O35       1.0  0.49340  0.71010  0.76040  1.0000
  O   O36       1.0  0.50660  0.71010  0.23960  1.0000
  O   O37       1.0  0.28990  0.49340  0.23960  1.0000
  O   O38       1.0  0.71010  0.50660  0.23960  1.0000
  O   O39       1.0  0.71010  0.49340  0.76040  1.0000
  O   O40       1.0  0.50660  0.28990  0.76040  1.0000
  O   O41       1.0  0.99340  0.78990  0.73960  1.0000
  O   O42       1.0  0.78990  0.00660  0.26040  1.0000
  O   O43       1.0  0.99340  0.21010  0.26040  1.0000
  O   O44       1.0  0.00660  0.21010  0.73960  1.0000
  O   O45       1.0  0.78990  0.99340  0.73960  1.0000
  O   O46       1.0  0.21010  0.00660  0.73960  1.0000
  O   O47       1.0  0.21010  0.99340  0.26040  1.0000
  O   O48       1.0  0.00660  0.78990  0.26040  1.0000
  O   O49       1.0  0.48590  0.27940  0.34870  1.0000
  O   O50       1.0  0.27940  0.51410  0.65130  1.0000
  O   O51       1.0  0.48590  0.72060  0.65130  1.0000
  O   O52       1.0  0.51410  0.72060  0.34870  1.0000
  O   O53       1.0  0.27940  0.48590  0.34870  1.0000
  O   O54       1.0  0.72060  0.51410  0.34870  1.0000
  O   O55       1.0  0.72060  0.48590  0.65130  1.0000
  O   O56       1.0  0.51410  0.27940  0.65130  1.0000
  O   O57       1.0  0.98590  0.77940  0.84870  1.0000
  O   O58       1.0  0.77940  0.01410  0.15130  1.0000
  O   O59       1.0  0.98590  0.22060  0.15130  1.0000
  O   O60       1.0  0.01410  0.22060  0.84870  1.0000
  O   O61       1.0  0.77940  0.98590  0.84870  1.0000
  O   O62       1.0  0.22060  0.01410  0.84870  1.0000
  O   O63       1.0  0.22060  0.98590  0.15130  1.0000
  O   O64       1.0  0.01410  0.77940  0.15130  1.0000
  O   O65       1.0  0.70890  0.05840  0.67130  1.0000
  O   O66       1.0  0.05840  0.29110  0.32870  1.0000
  O   O67       1.0  0.70890  0.94160  0.32870  1.0000
  O   O68       1.0  0.29110  0.94160  0.67130  1.0000
  O   O69       1.0  0.05840  0.70890  0.67130  1.0000
  O   O70       1.0  0.94160  0.29110  0.67130  1.0000
  O   O71       1.0  0.94160  0.70890  0.32870  1.0000
  O   O72       1.0  0.29110  0.05840  0.32870  1.0000
  O   O73       1.0  0.20890  0.55840  0.17130  1.0000
  O   O74       1.0  0.55840  0.79110  0.82870  1.0000
  O   O75       1.0  0.20890  0.44160  0.82870  1.0000
  O   O76       1.0  0.79110  0.44160  0.17130  1.0000
  O   O77       1.0  0.55840  0.20890  0.17130  1.0000
  O   O78       1.0  0.44160  0.79110  0.17130  1.0000
  O   O79       1.0  0.44160  0.20890  0.82870  1.0000
  O   O80       1.0  0.79110  0.55840  0.82870  1.0000
  C   C17       1.0  0.58750  0.17380  0.42060  1.0000
  C   C18       1.0  0.17380  0.41250  0.57940  1.0000
  C   C19       1.0  0.58750  0.82620  0.57940  1.0000
  C   C20       1.0  0.41250  0.82620  0.42060  1.0000
  C   C21       1.0  0.17380  0.58750  0.42060  1.0000
  C   C22       1.0  0.82620  0.41250  0.42060  1.0000
  C   C23       1.0  0.82620  0.58750  0.57940  1.0000
  C   C24       1.0  0.41250  0.17380  0.57940  1.0000
  C   C25       1.0  0.08750  0.67380  0.92060  1.0000
  C   C26       1.0  0.67380  0.91250  0.07940  1.0000
  C   C27       1.0  0.08750  0.32620  0.07940  1.0000
  C   C28       1.0  0.91250  0.32620  0.92060  1.0000
  C   C29       1.0  0.67380  0.08750  0.92060  1.0000
  C   C30       1.0  0.32620  0.91250  0.92060  1.0000
  C   C31       1.0  0.32620  0.08750  0.07940  1.0000
  C   C32       1.0  0.91250  0.67380  0.07940  1.0000
  O   O81       1.0  0.65220  0.10340  0.72740  1.0000
  O   O82       1.0  0.10340  0.34780  0.27260  1.0000
  O   O83       1.0  0.65220  0.89660  0.27260  1.0000
  O   O84       1.0  0.34780  0.89660  0.72740  1.0000
  O   O85       1.0  0.10340  0.65220  0.72740  1.0000
  O   O86       1.0  0.89660  0.34780  0.72740  1.0000
  O   O87       1.0  0.89660  0.65220  0.27260  1.0000
  O   O88       1.0  0.34780  0.10340  0.27260  1.0000
  O   O89       1.0  0.15220  0.60340  0.22740  1.0000
  O   O90       1.0  0.60340  0.84780  0.77260  1.0000
  O   O91       1.0  0.15220  0.39660  0.77260  1.0000
  O   O92       1.0  0.84780  0.39660  0.22740  1.0000
  O   O93       1.0  0.60340  0.15220  0.22740  1.0000
  O   O94       1.0  0.39660  0.84780  0.22740  1.0000
  O   O95       1.0  0.39660  0.15220  0.77260  1.0000
  O   O96       1.0  0.84780  0.60340  0.77260  1.0000
  C   C33       1.0  0.60720  0.14310  0.48280  1.0000
  C   C34       1.0  0.14310  0.39280  0.51720  1.0000
  C   C35       1.0  0.60720  0.85690  0.51720  1.0000
  C   C36       1.0  0.39280  0.85690  0.48280  1.0000
  C   C37       1.0  0.14310  0.60720  0.48280  1.0000
  C   C38       1.0  0.85690  0.39280  0.48280  1.0000
  C   C39       1.0  0.85690  0.60720  0.51720  1.0000
  C   C40       1.0  0.39280  0.14310  0.51720  1.0000
  C   C41       1.0  0.10720  0.64310  0.98280  1.0000
  C   C42       1.0  0.64310  0.89280  0.01720  1.0000
  C   C43       1.0  0.10720  0.35690  0.01720  1.0000
  C   C44       1.0  0.89280  0.35690  0.98280  1.0000
  C   C45       1.0  0.64310  0.10720  0.98280  1.0000
  C   C46       1.0  0.35690  0.89280  0.98280  1.0000
  C   C47       1.0  0.35690  0.10720  0.01720  1.0000
  C   C48       1.0  0.89280  0.64310  0.01720  1.0000
  C   C49       1.0  0.65300  0.10790  0.48320  1.0000
  C   C50       1.0  0.10790  0.34700  0.51680  1.0000
  C   C51       1.0  0.65300  0.89210  0.51680  1.0000
  C   C52       1.0  0.34700  0.89210  0.48320  1.0000
  C   C53       1.0  0.10790  0.65300  0.48320  1.0000
  C   C54       1.0  0.89210  0.34700  0.48320  1.0000
  C   C55       1.0  0.89210  0.65300  0.51680  1.0000
  C   C56       1.0  0.34700  0.10790  0.51680  1.0000
  C   C57       1.0  0.15300  0.60790  0.98320  1.0000
  C   C58       1.0  0.60790  0.84700  0.01680  1.0000
  C   C59       1.0  0.15300  0.39210  0.01680  1.0000
  C   C60       1.0  0.84700  0.39210  0.98320  1.0000
  C   C61       1.0  0.60790  0.15300  0.98320  1.0000
  C   C62       1.0  0.39210  0.84700  0.98320  1.0000
  C   C63       1.0  0.39210  0.15300  0.01680  1.0000
  C   C64       1.0  0.84700  0.60790  0.01680  1.0000
  H   H1        1.0  0.66830  0.09580  0.44260  1.0000
  H   H2        1.0  0.09580  0.33170  0.55740  1.0000
  H   H3        1.0  0.66830  0.90420  0.55740  1.0000
  H   H4        1.0  0.33170  0.90420  0.44260  1.0000
  H   H5        1.0  0.09580  0.66830  0.44260  1.0000
  H   H6        1.0  0.90420  0.33170  0.44260  1.0000
  H   H7        1.0  0.90420  0.66830  0.55740  1.0000
  H   H8        1.0  0.33170  0.09580  0.55740  1.0000
  H   H9        1.0  0.16830  0.59580  0.94260  1.0000
  H   H10       1.0  0.59580  0.83170  0.05740  1.0000
  H   H11       1.0  0.16830  0.40420  0.05740  1.0000
  H   H12       1.0  0.83170  0.40420  0.94260  1.0000
  H   H13       1.0  0.59580  0.16830  0.94260  1.0000
  H   H14       1.0  0.40420  0.83170  0.94260  1.0000
  H   H15       1.0  0.40420  0.16830  0.05740  1.0000
  H   H16       1.0  0.83170  0.59580  0.05740  1.0000
  C   C65       1.0  0.67580  0.09070  0.54420  1.0000
  C   C66       1.0  0.09070  0.32420  0.45580  1.0000
  C   C67       1.0  0.67580  0.90930  0.45580  1.0000
  C   C68       1.0  0.32420  0.90930  0.54420  1.0000
  C   C69       1.0  0.09070  0.67580  0.54420  1.0000
  C   C70       1.0  0.90930  0.32420  0.54420  1.0000
  C   C71       1.0  0.90930  0.67580  0.45580  1.0000
  C   C72       1.0  0.32420  0.09070  0.45580  1.0000
  C   C73       1.0  0.17580  0.59070  0.04420  1.0000
  C   C74       1.0  0.59070  0.82420  0.95580  1.0000
  C   C75       1.0  0.17580  0.40930  0.95580  1.0000
  C   C76       1.0  0.82420  0.40930  0.04420  1.0000
  C   C77       1.0  0.59070  0.17580  0.04420  1.0000
  C   C78       1.0  0.40930  0.82420  0.04420  1.0000
  C   C79       1.0  0.40930  0.17580  0.95580  1.0000
  C   C80       1.0  0.82420  0.59070  0.95580  1.0000
  H   H17       1.0  0.70650  0.06710  0.54450  1.0000
  H   H18       1.0  0.06710  0.29350  0.45550  1.0000
  H   H19       1.0  0.70650  0.93290  0.45550  1.0000
  H   H20       1.0  0.29350  0.93290  0.54450  1.0000
  H   H21       1.0  0.06710  0.70650  0.54450  1.0000
  H   H22       1.0  0.93290  0.29350  0.54450  1.0000
  H   H23       1.0  0.93290  0.70650  0.45550  1.0000
  H   H24       1.0  0.29350  0.06710  0.45550  1.0000
  H   H25       1.0  0.20650  0.56710  0.04450  1.0000
  H   H26       1.0  0.56710  0.79350  0.95550  1.0000
  H   H27       1.0  0.20650  0.43290  0.95550  1.0000
  H   H28       1.0  0.79350  0.43290  0.04450  1.0000
  H   H29       1.0  0.56710  0.20650  0.04450  1.0000
  H   H30       1.0  0.43290  0.79350  0.04450  1.0000
  H   H31       1.0  0.43290  0.20650  0.95550  1.0000
  H   H32       1.0  0.79350  0.56710  0.95550  1.0000
  C   C81       1.0  0.65290  0.10870  0.60490  1.0000
  C   C82       1.0  0.10870  0.34710  0.39510  1.0000
  C   C83       1.0  0.65290  0.89130  0.39510  1.0000
  C   C84       1.0  0.34710  0.89130  0.60490  1.0000
  C   C85       1.0  0.10870  0.65290  0.60490  1.0000
  C   C86       1.0  0.89130  0.34710  0.60490  1.0000
  C   C87       1.0  0.89130  0.65290  0.39510  1.0000
  C   C88       1.0  0.34710  0.10870  0.39510  1.0000
  C   C89       1.0  0.15290  0.60870  0.10490  1.0000
  C   C90       1.0  0.60870  0.84710  0.89510  1.0000
  C   C91       1.0  0.15290  0.39130  0.89510  1.0000
  C   C92       1.0  0.84710  0.39130  0.10490  1.0000
  C   C93       1.0  0.60870  0.15290  0.10490  1.0000
  C   C94       1.0  0.39130  0.84710  0.10490  1.0000
  C   C95       1.0  0.39130  0.15290  0.89510  1.0000
  C   C96       1.0  0.84710  0.60870  0.89510  1.0000
  C   C97       1.0  0.60720  0.14400  0.60450  1.0000
  C   C98       1.0  0.14400  0.39280  0.39550  1.0000
  C   C99       1.0  0.60720  0.85600  0.39550  1.0000
  C   C100      1.0  0.39280  0.85600  0.60450  1.0000
  C   C101      1.0  0.14400  0.60720  0.60450  1.0000
  C   C102      1.0  0.85600  0.39280  0.60450  1.0000
  C   C103      1.0  0.85600  0.60720  0.39550  1.0000
  C   C104      1.0  0.39280  0.14400  0.39550  1.0000
  C   C105      1.0  0.10720  0.64400  0.10450  1.0000
  C   C106      1.0  0.64400  0.89280  0.89550  1.0000
  C   C107      1.0  0.10720  0.35600  0.89550  1.0000
  C   C108      1.0  0.89280  0.35600  0.10450  1.0000
  C   C109      1.0  0.64400  0.10720  0.10450  1.0000
  C   C110      1.0  0.35600  0.89280  0.10450  1.0000
  C   C111      1.0  0.35600  0.10720  0.89550  1.0000
  C   C112      1.0  0.89280  0.64400  0.89550  1.0000
  H   H33       1.0  0.59180  0.15600  0.64510  1.0000
  H   H34       1.0  0.15600  0.40820  0.35490  1.0000
  H   H35       1.0  0.59180  0.84400  0.35490  1.0000
  H   H36       1.0  0.40820  0.84400  0.64510  1.0000
  H   H37       1.0  0.15600  0.59180  0.64510  1.0000
  H   H38       1.0  0.84400  0.40820  0.64510  1.0000
  H   H39       1.0  0.84400  0.59180  0.35490  1.0000
  H   H40       1.0  0.40820  0.15600  0.35490  1.0000
  H   H41       1.0  0.09180  0.65600  0.14510  1.0000
  H   H42       1.0  0.65600  0.90820  0.85490  1.0000
  H   H43       1.0  0.09180  0.34400  0.85490  1.0000
  H   H44       1.0  0.90820  0.34400  0.14510  1.0000
  H   H45       1.0  0.65600  0.09180  0.14510  1.0000
  H   H46       1.0  0.34400  0.90820  0.14510  1.0000
  H   H47       1.0  0.34400  0.09180  0.85490  1.0000
  H   H48       1.0  0.90820  0.65600  0.85490  1.0000
  C   C113      1.0  0.58430  0.16120  0.54350  1.0000
  C   C114      1.0  0.16120  0.41570  0.45650  1.0000
  C   C115      1.0  0.58430  0.83880  0.45650  1.0000
  C   C116      1.0  0.41570  0.83880  0.54350  1.0000
  C   C117      1.0  0.16120  0.58430  0.54350  1.0000
  C   C118      1.0  0.83880  0.41570  0.54350  1.0000
  C   C119      1.0  0.83880  0.58430  0.45650  1.0000
  C   C120      1.0  0.41570  0.16120  0.45650  1.0000
  C   C121      1.0  0.08430  0.66120  0.04350  1.0000
  C   C122      1.0  0.66120  0.91570  0.95650  1.0000
  C   C123      1.0  0.08430  0.33880  0.95650  1.0000
  C   C124      1.0  0.91570  0.33880  0.04350  1.0000
  C   C125      1.0  0.66120  0.08430  0.04350  1.0000
  C   C126      1.0  0.33880  0.91570  0.04350  1.0000
  C   C127      1.0  0.33880  0.08430  0.95650  1.0000
  C   C128      1.0  0.91570  0.66120  0.95650  1.0000
  H   H49       1.0  0.55370  0.18480  0.54320  1.0000
  H   H50       1.0  0.18480  0.44630  0.45680  1.0000
  H   H51       1.0  0.55370  0.81520  0.45680  1.0000
  H   H52       1.0  0.44630  0.81520  0.54320  1.0000
  H   H53       1.0  0.18480  0.55370  0.54320  1.0000
  H   H54       1.0  0.81520  0.44630  0.54320  1.0000
  H   H55       1.0  0.81520  0.55370  0.45680  1.0000
  H   H56       1.0  0.44630  0.18480  0.45680  1.0000
  H   H57       1.0  0.05370  0.68480  0.04320  1.0000
  H   H58       1.0  0.68480  0.94630  0.95680  1.0000
  H   H59       1.0  0.05370  0.31520  0.95680  1.0000
  H   H60       1.0  0.94630  0.31520  0.04320  1.0000
  H   H61       1.0  0.68480  0.05370  0.04320  1.0000
  H   H62       1.0  0.31520  0.94630  0.04320  1.0000
  H   H63       1.0  0.31520  0.05370  0.95680  1.0000
  H   H64       1.0  0.94630  0.68480  0.95680  1.0000
  C   C129      1.0  0.43190  0.35020  0.29190  1.0000
  C   C130      1.0  0.35020  0.56810  0.70810  1.0000
  C   C131      1.0  0.43190  0.64980  0.70810  1.0000
  C   C132      1.0  0.56810  0.64980  0.29190  1.0000
  C   C133      1.0  0.35020  0.43190  0.29190  1.0000
  C   C134      1.0  0.64980  0.56810  0.29190  1.0000
  C   C135      1.0  0.64980  0.43190  0.70810  1.0000
  C   C136      1.0  0.56810  0.35020  0.70810  1.0000
  C   C137      1.0  0.93190  0.85020  0.79190  1.0000
  C   C138      1.0  0.85020  0.06810  0.20810  1.0000
  C   C139      1.0  0.93190  0.14980  0.20810  1.0000
  C   C140      1.0  0.06810  0.14980  0.79190  1.0000
  C   C141      1.0  0.85020  0.93190  0.79190  1.0000
  C   C142      1.0  0.14980  0.06810  0.79190  1.0000
  C   C143      1.0  0.14980  0.93190  0.20810  1.0000
  C   C144      1.0  0.06810  0.85020  0.20810  1.0000
  C   C145      1.0  0.40870  0.36620  0.23000  1.0000
  C   C146      1.0  0.36620  0.59130  0.77000  1.0000
  C   C147      1.0  0.40870  0.63380  0.77000  1.0000
  C   C148      1.0  0.59130  0.63380  0.23000  1.0000
  C   C149      1.0  0.36620  0.40870  0.23000  1.0000
  C   C150      1.0  0.63380  0.59130  0.23000  1.0000
  C   C151      1.0  0.63380  0.40870  0.77000  1.0000
  C   C152      1.0  0.59130  0.36620  0.77000  1.0000
  C   C153      1.0  0.90870  0.86620  0.73000  1.0000
  C   C154      1.0  0.86620  0.09130  0.27000  1.0000
  C   C155      1.0  0.90870  0.13380  0.27000  1.0000
  C   C156      1.0  0.09130  0.13380  0.73000  1.0000
  C   C157      1.0  0.86620  0.90870  0.73000  1.0000
  C   C158      1.0  0.13380  0.09130  0.73000  1.0000
  C   C159      1.0  0.13380  0.90870  0.27000  1.0000
  C   C160      1.0  0.09130  0.86620  0.27000  1.0000
  H   H65       1.0  0.42040  0.34990  0.18980  1.0000
  H   H66       1.0  0.34990  0.57960  0.81020  1.0000
  H   H67       1.0  0.42040  0.65010  0.81020  1.0000
  H   H68       1.0  0.57960  0.65010  0.18980  1.0000
  H   H69       1.0  0.34990  0.42040  0.18980  1.0000
  H   H70       1.0  0.65010  0.57960  0.18980  1.0000
  H   H71       1.0  0.65010  0.42040  0.81020  1.0000
  H   H72       1.0  0.57960  0.34990  0.81020  1.0000
  H   H73       1.0  0.92040  0.84990  0.68980  1.0000
  H   H74       1.0  0.84990  0.07960  0.31020  1.0000
  H   H75       1.0  0.92040  0.15010  0.31020  1.0000
  H   H76       1.0  0.07960  0.15010  0.68980  1.0000
  H   H77       1.0  0.84990  0.92040  0.68980  1.0000
  H   H78       1.0  0.15010  0.07960  0.68980  1.0000
  H   H79       1.0  0.15010  0.92040  0.31020  1.0000
  H   H80       1.0  0.07960  0.84990  0.31020  1.0000
  C   C161      1.0  0.40970  0.37030  0.34970  1.0000
  C   C162      1.0  0.37030  0.59030  0.65030  1.0000
  C   C163      1.0  0.40970  0.62970  0.65030  1.0000
  C   C164      1.0  0.59030  0.62970  0.34970  1.0000
  C   C165      1.0  0.37030  0.40970  0.34970  1.0000
  C   C166      1.0  0.62970  0.59030  0.34970  1.0000
  C   C167      1.0  0.62970  0.40970  0.65030  1.0000
  C   C168      1.0  0.59030  0.37030  0.65030  1.0000
  C   C169      1.0  0.90970  0.87030  0.84970  1.0000
  C   C170      1.0  0.87030  0.09030  0.15030  1.0000
  C   C171      1.0  0.90970  0.12970  0.15030  1.0000
  C   C172      1.0  0.09030  0.12970  0.84970  1.0000
  C   C173      1.0  0.87030  0.90970  0.84970  1.0000
  C   C174      1.0  0.12970  0.09030  0.84970  1.0000
  C   C175      1.0  0.12970  0.90970  0.15030  1.0000
  C   C176      1.0  0.09030  0.87030  0.15030  1.0000
  H   H81       1.0  0.42210  0.35630  0.39080  1.0000
  H   H82       1.0  0.35630  0.57790  0.60920  1.0000
  H   H83       1.0  0.42210  0.64370  0.60920  1.0000
  H   H84       1.0  0.57790  0.64370  0.39080  1.0000
  H   H85       1.0  0.35630  0.42210  0.39080  1.0000
  H   H86       1.0  0.64370  0.57790  0.39080  1.0000
  H   H87       1.0  0.64370  0.42210  0.60920  1.0000
  H   H88       1.0  0.57790  0.35630  0.60920  1.0000
  H   H89       1.0  0.92210  0.85630  0.89080  1.0000
  H   H90       1.0  0.85630  0.07790  0.10920  1.0000
  H   H91       1.0  0.92210  0.14370  0.10920  1.0000
  H   H92       1.0  0.07790  0.14370  0.89080  1.0000
  H   H93       1.0  0.85630  0.92210  0.89080  1.0000
  H   H94       1.0  0.14370  0.07790  0.89080  1.0000
  H   H95       1.0  0.14370  0.92210  0.10920  1.0000
  H   H96       1.0  0.07790  0.85630  0.10920  1.0000
  C   C177      1.0  0.67670  0.09970  0.67160  1.0000
  C   C178      1.0  0.09970  0.32330  0.32840  1.0000
  C   C179      1.0  0.67670  0.90030  0.32840  1.0000
  C   C180      1.0  0.32330  0.90030  0.67160  1.0000
  C   C181      1.0  0.09970  0.67670  0.67160  1.0000
  C   C182      1.0  0.90030  0.32330  0.67160  1.0000
  C   C183      1.0  0.90030  0.67670  0.32840  1.0000
  C   C184      1.0  0.32330  0.09970  0.32840  1.0000
  C   C185      1.0  0.17670  0.59970  0.17160  1.0000
  C   C186      1.0  0.59970  0.82330  0.82840  1.0000
  C   C187      1.0  0.17670  0.40030  0.82840  1.0000
  C   C188      1.0  0.82330  0.40030  0.17160  1.0000
  C   C189      1.0  0.59970  0.17670  0.17160  1.0000
  C   C190      1.0  0.40030  0.82330  0.17160  1.0000
  C   C191      1.0  0.40030  0.17670  0.82840  1.0000
  C   C192      1.0  0.82330  0.59970  0.82840  1.0000
  O   O97       1.0  0.49750  0.17000  0.28140  1.0000
  O   O98       1.0  0.17000  0.50250  0.71860  1.0000
  O   O99       1.0  0.49750  0.83000  0.71860  1.0000
  O   O100      1.0  0.50250  0.83000  0.28140  1.0000
  O   O101      1.0  0.17000  0.49750  0.28140  1.0000
  O   O102      1.0  0.83000  0.50250  0.28140  1.0000
  O   O103      1.0  0.83000  0.49750  0.71860  1.0000
  O   O104      1.0  0.50250  0.17000  0.71860  1.0000
  O   O105      1.0  0.99750  0.67000  0.78140  1.0000
  O   O106      1.0  0.67000  0.00250  0.21860  1.0000
  O   O107      1.0  0.99750  0.33000  0.21860  1.0000
  O   O108      1.0  0.00250  0.33000  0.78140  1.0000
  O   O109      1.0  0.67000  0.99750  0.78140  1.0000
  O   O110      1.0  0.33000  0.00250  0.78140  1.0000
  O   O111      1.0  0.33000  0.99750  0.21860  1.0000
  O   O112      1.0  0.00250  0.67000  0.21860  1.0000
  O   O113      1.0  0.60830  0.26650  0.29600  1.0000
  O   O114      1.0  0.26650  0.39170  0.70400  1.0000
  O   O115      1.0  0.60830  0.73350  0.70400  1.0000
  O   O116      1.0  0.39170  0.73350  0.29600  1.0000
  O   O117      1.0  0.26650  0.60830  0.29600  1.0000
  O   O118      1.0  0.73350  0.39170  0.29600  1.0000
  O   O119      1.0  0.73350  0.60830  0.70400  1.0000
  O   O120      1.0  0.39170  0.26650  0.70400  1.0000
  O   O121      1.0  0.10830  0.76650  0.79600  1.0000
  O   O122      1.0  0.76650  0.89170  0.20400  1.0000
  O   O123      1.0  0.10830  0.23350  0.20400  1.0000
  O   O124      1.0  0.89170  0.23350  0.79600  1.0000
  O   O125      1.0  0.76650  0.10830  0.79600  1.0000
  O   O126      1.0  0.23350  0.89170  0.79600  1.0000
  O   O127      1.0  0.23350  0.10830  0.20400  1.0000
  O   O128      1.0  0.89170  0.76650  0.20400  1.0000
