data_image0
_chemical_formula_structural       Mn12C16H8C8H8C16H8C8H8C24H8C8H8C16H8C8H8C8O32C16H8C8H8C16H8C8H8C8O16C12H8C8H8C8O8C12H8C8H8C8O8
_chemical_formula_sum              "Mn12 C224 H128 O64"
_cell_length_a       18.2308
_cell_length_b       17.8579
_cell_length_c       18.6949
_cell_angle_alpha    90
_cell_angle_beta     95.948
_cell_angle_gamma    90

_space_group_name_H-M_alt    "P 1"
_space_group_IT_number       1

loop_
  _space_group_symop_operation_xyz
  'x, y, z'

loop_
  _atom_site_type_symbol
  _atom_site_label
  _atom_site_symmetry_multiplicity
  _atom_site_fract_x
  _atom_site_fract_y
  _atom_site_fract_z
  _atom_site_occupancy
  Mn  Mn1       1.0  0.61102  0.44738  0.81115  1.0000
  Mn  Mn2       1.0  0.38898  0.44738  0.68885  1.0000
  Mn  Mn3       1.0  0.11102  0.94738  0.81115  1.0000
  Mn  Mn4       1.0  0.88898  0.94738  0.68885  1.0000
  Mn  Mn5       1.0  0.38898  0.55262  0.18885  1.0000
  Mn  Mn6       1.0  0.61102  0.55262  0.31115  1.0000
  Mn  Mn7       1.0  0.88898  0.05262  0.18885  1.0000
  Mn  Mn8       1.0  0.11102  0.05262  0.31115  1.0000
  Mn  Mn9       1.0  0.50000  0.27806  0.75000  1.0000
  Mn  Mn10      1.0  0.00000  0.77806  0.75000  1.0000
  Mn  Mn11      1.0  0.50000  0.72194  0.25000  1.0000
  Mn  Mn12      1.0  0.00000  0.22194  0.25000  1.0000
  C   C1        1.0  0.46725  0.35408  0.94029  1.0000
  C   C2        1.0  0.53275  0.35408  0.55971  1.0000
  C   C3        1.0  0.96725  0.85408  0.94029  1.0000
  C   C4        1.0  0.03275  0.85408  0.55971  1.0000
  C   C5        1.0  0.53275  0.64592  0.05971  1.0000
  C   C6        1.0  0.46725  0.64592  0.44029  1.0000
  C   C7        1.0  0.03275  0.14592  0.05971  1.0000
  C   C8        1.0  0.96725  0.14592  0.44029  1.0000
  C   C9        1.0  0.45036  0.27806  0.93685  1.0000
  C   C10       1.0  0.54964  0.27806  0.56315  1.0000
  C   C11       1.0  0.95036  0.77806  0.93685  1.0000
  C   C12       1.0  0.04964  0.77806  0.56315  1.0000
  C   C13       1.0  0.54964  0.72194  0.06315  1.0000
  C   C14       1.0  0.45036  0.72194  0.43685  1.0000
  C   C15       1.0  0.04964  0.22194  0.06315  1.0000
  C   C16       1.0  0.95036  0.22194  0.43685  1.0000
  H   H1        1.0  0.47140  0.24710  0.90300  1.0000
  H   H2        1.0  0.52860  0.24710  0.59700  1.0000
  H   H3        1.0  0.97140  0.74710  0.90300  1.0000
  H   H4        1.0  0.02860  0.74710  0.59700  1.0000
  H   H5        1.0  0.52860  0.75290  0.09700  1.0000
  H   H6        1.0  0.47140  0.75290  0.40300  1.0000
  H   H7        1.0  0.02860  0.25290  0.09700  1.0000
  H   H8        1.0  0.97140  0.25290  0.40300  1.0000
  C   C17       1.0  0.40353  0.24730  0.98202  1.0000
  C   C18       1.0  0.59647  0.24730  0.51798  1.0000
  C   C19       1.0  0.90353  0.74730  0.98202  1.0000
  C   C20       1.0  0.09647  0.74730  0.51798  1.0000
  C   C21       1.0  0.59647  0.75270  0.01798  1.0000
  C   C22       1.0  0.40353  0.75270  0.48202  1.0000
  C   C23       1.0  0.09647  0.25270  0.01798  1.0000
  C   C24       1.0  0.90353  0.25270  0.48202  1.0000
  H   H9        1.0  0.39330  0.19520  0.97910  1.0000
  H   H10       1.0  0.60670  0.19520  0.52090  1.0000
  H   H11       1.0  0.89330  0.69520  0.97910  1.0000
  H   H12       1.0  0.10670  0.69520  0.52090  1.0000
  H   H13       1.0  0.60670  0.80480  0.02090  1.0000
  H   H14       1.0  0.39330  0.80480  0.47910  1.0000
  H   H15       1.0  0.10670  0.30480  0.02090  1.0000
  H   H16       1.0  0.89330  0.30480  0.47910  1.0000
  C   C25       1.0  0.37076  0.29022  0.03178  1.0000
  C   C26       1.0  0.62924  0.29022  0.46822  1.0000
  C   C27       1.0  0.87076  0.79022  0.03178  1.0000
  C   C28       1.0  0.12924  0.79022  0.46822  1.0000
  C   C29       1.0  0.62924  0.70978  0.96822  1.0000
  C   C30       1.0  0.37076  0.70978  0.53178  1.0000
  C   C31       1.0  0.12924  0.20978  0.96822  1.0000
  C   C32       1.0  0.87076  0.20978  0.53178  1.0000
  C   C33       1.0  0.38960  0.36566  0.03618  1.0000
  C   C34       1.0  0.61040  0.36566  0.46382  1.0000
  C   C35       1.0  0.88960  0.86566  0.03618  1.0000
  C   C36       1.0  0.11040  0.86566  0.46382  1.0000
  C   C37       1.0  0.61040  0.63434  0.96382  1.0000
  C   C38       1.0  0.38960  0.63434  0.53618  1.0000
  C   C39       1.0  0.11040  0.13434  0.96382  1.0000
  C   C40       1.0  0.88960  0.13434  0.53618  1.0000
  H   H17       1.0  0.36980  0.39640  0.07090  1.0000
  H   H18       1.0  0.63020  0.39640  0.42910  1.0000
  H   H19       1.0  0.86980  0.89640  0.07090  1.0000
  H   H20       1.0  0.13020  0.89640  0.42910  1.0000
  H   H21       1.0  0.63020  0.60360  0.92910  1.0000
  H   H22       1.0  0.36980  0.60360  0.57090  1.0000
  H   H23       1.0  0.13020  0.10360  0.92910  1.0000
  H   H24       1.0  0.86980  0.10360  0.57090  1.0000
  C   C41       1.0  0.43690  0.39690  0.99061  1.0000
  C   C42       1.0  0.56310  0.39690  0.50939  1.0000
  C   C43       1.0  0.93690  0.89690  0.99061  1.0000
  C   C44       1.0  0.06310  0.89690  0.50939  1.0000
  C   C45       1.0  0.56310  0.60310  0.00939  1.0000
  C   C46       1.0  0.43690  0.60310  0.49061  1.0000
  C   C47       1.0  0.06310  0.10310  0.00939  1.0000
  C   C48       1.0  0.93690  0.10310  0.49061  1.0000
  H   H25       1.0  0.44840  0.44870  0.99440  1.0000
  H   H26       1.0  0.55160  0.44870  0.50560  1.0000
  H   H27       1.0  0.94840  0.94870  0.99440  1.0000
  H   H28       1.0  0.05160  0.94870  0.50560  1.0000
  H   H29       1.0  0.55160  0.55130  0.00560  1.0000
  H   H30       1.0  0.44840  0.55130  0.49440  1.0000
  H   H31       1.0  0.05160  0.05130  0.00560  1.0000
  H   H32       1.0  0.94840  0.05130  0.49440  1.0000
  C   C49       1.0  0.51519  0.38991  0.89086  1.0000
  C   C50       1.0  0.48481  0.38991  0.60914  1.0000
  C   C51       1.0  0.01519  0.88991  0.89086  1.0000
  C   C52       1.0  0.98481  0.88991  0.60914  1.0000
  C   C53       1.0  0.48481  0.61009  0.10914  1.0000
  C   C54       1.0  0.51519  0.61009  0.39086  1.0000
  C   C55       1.0  0.98481  0.11009  0.10914  1.0000
  C   C56       1.0  0.01519  0.11009  0.39086  1.0000
  C   C57       1.0  0.21294  0.20048  0.16503  1.0000
  C   C58       1.0  0.78706  0.20048  0.33497  1.0000
  C   C59       1.0  0.71294  0.70048  0.16503  1.0000
  C   C60       1.0  0.28706  0.70048  0.33497  1.0000
  C   C61       1.0  0.78706  0.79952  0.83497  1.0000
  C   C62       1.0  0.21294  0.79952  0.66503  1.0000
  C   C63       1.0  0.28706  0.29952  0.83497  1.0000
  C   C64       1.0  0.71294  0.29952  0.66503  1.0000
  C   C65       1.0  0.25478  0.15297  0.12677  1.0000
  C   C66       1.0  0.74522  0.15297  0.37323  1.0000
  C   C67       1.0  0.75478  0.65297  0.12677  1.0000
  C   C68       1.0  0.24522  0.65297  0.37323  1.0000
  C   C69       1.0  0.74522  0.84703  0.87323  1.0000
  C   C70       1.0  0.25478  0.84703  0.62677  1.0000
  C   C71       1.0  0.24522  0.34703  0.87323  1.0000
  C   C72       1.0  0.75478  0.34703  0.62677  1.0000
  H   H33       1.0  0.24860  0.10030  0.13030  1.0000
  H   H34       1.0  0.75140  0.10030  0.36970  1.0000
  H   H35       1.0  0.74860  0.60030  0.13030  1.0000
  H   H36       1.0  0.25140  0.60030  0.36970  1.0000
  H   H37       1.0  0.75140  0.89970  0.86970  1.0000
  H   H38       1.0  0.24860  0.89970  0.63030  1.0000
  H   H39       1.0  0.25140  0.39970  0.86970  1.0000
  H   H40       1.0  0.74860  0.39970  0.63030  1.0000
  C   C73       1.0  0.30479  0.18115  0.08399  1.0000
  C   C74       1.0  0.69521  0.18115  0.41601  1.0000
  C   C75       1.0  0.80479  0.68115  0.08399  1.0000
  C   C76       1.0  0.19521  0.68115  0.41601  1.0000
  C   C77       1.0  0.69521  0.81885  0.91601  1.0000
  C   C78       1.0  0.30479  0.81885  0.58399  1.0000
  C   C79       1.0  0.19521  0.31885  0.91601  1.0000
  C   C80       1.0  0.80479  0.31885  0.58399  1.0000
  H   H41       1.0  0.33210  0.14750  0.05760  1.0000
  H   H42       1.0  0.66790  0.14750  0.44240  1.0000
  H   H43       1.0  0.83210  0.64750  0.05760  1.0000
  H   H44       1.0  0.16790  0.64750  0.44240  1.0000
  H   H45       1.0  0.66790  0.85250  0.94240  1.0000
  H   H46       1.0  0.33210  0.85250  0.55760  1.0000
  H   H47       1.0  0.16790  0.35250  0.94240  1.0000
  H   H48       1.0  0.83210  0.35250  0.55760  1.0000
  C   C81       1.0  0.31673  0.25830  0.07813  1.0000
  C   C82       1.0  0.68327  0.25830  0.42187  1.0000
  C   C83       1.0  0.81673  0.75830  0.07813  1.0000
  C   C84       1.0  0.18327  0.75830  0.42187  1.0000
  C   C85       1.0  0.68327  0.74170  0.92187  1.0000
  C   C86       1.0  0.31673  0.74170  0.57813  1.0000
  C   C87       1.0  0.18327  0.24170  0.92187  1.0000
  C   C88       1.0  0.81673  0.24170  0.57813  1.0000
  C   C89       1.0  0.27463  0.30507  0.11661  1.0000
  C   C90       1.0  0.72537  0.30507  0.38339  1.0000
  C   C91       1.0  0.77463  0.80507  0.11661  1.0000
  C   C92       1.0  0.22537  0.80507  0.38339  1.0000
  C   C93       1.0  0.72537  0.69493  0.88339  1.0000
  C   C94       1.0  0.27463  0.69493  0.61661  1.0000
  C   C95       1.0  0.22537  0.19493  0.88339  1.0000
  C   C96       1.0  0.77463  0.19493  0.61661  1.0000
  H   H49       1.0  0.28090  0.35780  0.11370  1.0000
  H   H50       1.0  0.71910  0.35780  0.38630  1.0000
  H   H51       1.0  0.78090  0.85780  0.11370  1.0000
  H   H52       1.0  0.21910  0.85780  0.38630  1.0000
  H   H53       1.0  0.71910  0.64220  0.88630  1.0000
  H   H54       1.0  0.28090  0.64220  0.61370  1.0000
  H   H55       1.0  0.21910  0.14220  0.88630  1.0000
  H   H56       1.0  0.78090  0.14220  0.61370  1.0000
  C   C97       1.0  0.22400  0.27672  0.15877  1.0000
  C   C98       1.0  0.77600  0.27672  0.34123  1.0000
  C   C99       1.0  0.72400  0.77672  0.15877  1.0000
  C   C100      1.0  0.27600  0.77672  0.34123  1.0000
  C   C101      1.0  0.77600  0.72328  0.84123  1.0000
  C   C102      1.0  0.22400  0.72328  0.65877  1.0000
  C   C103      1.0  0.27600  0.22328  0.84123  1.0000
  C   C104      1.0  0.72400  0.22328  0.65877  1.0000
  H   H57       1.0  0.19580  0.31030  0.18430  1.0000
  H   H58       1.0  0.80420  0.31030  0.31570  1.0000
  H   H59       1.0  0.69580  0.81030  0.18430  1.0000
  H   H60       1.0  0.30420  0.81030  0.31570  1.0000
  H   H61       1.0  0.80420  0.68970  0.81570  1.0000
  H   H62       1.0  0.19580  0.68970  0.68430  1.0000
  H   H63       1.0  0.30420  0.18970  0.81570  1.0000
  H   H64       1.0  0.69580  0.18970  0.68430  1.0000
  C   C105      1.0  0.15554  0.17226  0.20995  1.0000
  C   C106      1.0  0.84446  0.17226  0.29005  1.0000
  C   C107      1.0  0.65554  0.67226  0.20995  1.0000
  C   C108      1.0  0.34446  0.67226  0.29005  1.0000
  C   C109      1.0  0.84446  0.82774  0.79005  1.0000
  C   C110      1.0  0.15554  0.82774  0.70995  1.0000
  C   C111      1.0  0.34446  0.32774  0.79005  1.0000
  C   C112      1.0  0.65554  0.32774  0.70995  1.0000
  O   O1        1.0  0.53278  0.35512  0.83601  1.0000
  O   O2        1.0  0.46722  0.35512  0.66399  1.0000
  O   O3        1.0  0.03278  0.85512  0.83601  1.0000
  O   O4        1.0  0.96722  0.85512  0.66399  1.0000
  O   O5        1.0  0.46722  0.64488  0.16399  1.0000
  O   O6        1.0  0.53278  0.64488  0.33601  1.0000
  O   O7        1.0  0.96722  0.14488  0.16399  1.0000
  O   O8        1.0  0.03278  0.14488  0.33601  1.0000
  O   O9        1.0  0.53924  0.45513  0.90234  1.0000
  O   O10       1.0  0.46076  0.45513  0.59766  1.0000
  O   O11       1.0  0.03924  0.95513  0.90234  1.0000
  O   O12       1.0  0.96076  0.95513  0.59766  1.0000
  O   O13       1.0  0.46076  0.54487  0.09766  1.0000
  O   O14       1.0  0.53924  0.54487  0.40234  1.0000
  O   O15       1.0  0.96076  0.04487  0.09766  1.0000
  O   O16       1.0  0.03924  0.04487  0.40234  1.0000
  O   O17       1.0  0.15346  0.10257  0.22231  1.0000
  O   O18       1.0  0.84654  0.10257  0.27769  1.0000
  O   O19       1.0  0.65346  0.60257  0.22231  1.0000
  O   O20       1.0  0.34654  0.60257  0.27769  1.0000
  O   O21       1.0  0.84654  0.89743  0.77769  1.0000
  O   O22       1.0  0.15346  0.89743  0.72231  1.0000
  O   O23       1.0  0.34654  0.39743  0.77769  1.0000
  O   O24       1.0  0.65346  0.39743  0.72231  1.0000
  O   O25       1.0  0.11291  0.21969  0.23195  1.0000
  O   O26       1.0  0.88709  0.21969  0.26805  1.0000
  O   O27       1.0  0.61291  0.71969  0.23195  1.0000
  O   O28       1.0  0.38709  0.71969  0.26805  1.0000
  O   O29       1.0  0.88709  0.78031  0.76805  1.0000
  O   O30       1.0  0.11291  0.78031  0.73195  1.0000
  O   O31       1.0  0.38709  0.28031  0.76805  1.0000
  O   O32       1.0  0.61291  0.28031  0.73195  1.0000
  C   C113      1.0  0.81535  0.47633  0.92131  1.0000
  C   C114      1.0  0.18465  0.47633  0.57869  1.0000
  C   C115      1.0  0.31535  0.97633  0.92131  1.0000
  C   C116      1.0  0.68465  0.97633  0.57869  1.0000
  C   C117      1.0  0.18465  0.52367  0.07869  1.0000
  C   C118      1.0  0.81535  0.52367  0.42131  1.0000
  C   C119      1.0  0.68465  0.02367  0.07869  1.0000
  C   C120      1.0  0.31535  0.02367  0.42131  1.0000
  C   C121      1.0  0.84146  0.43410  0.98010  1.0000
  C   C122      1.0  0.15854  0.43410  0.51990  1.0000
  C   C123      1.0  0.34146  0.93410  0.98010  1.0000
  C   C124      1.0  0.65854  0.93410  0.51990  1.0000
  C   C125      1.0  0.15854  0.56590  0.01990  1.0000
  C   C126      1.0  0.84146  0.56590  0.48010  1.0000
  C   C127      1.0  0.65854  0.06590  0.01990  1.0000
  C   C128      1.0  0.34146  0.06590  0.48010  1.0000
  H   H65       1.0  0.81030  0.39870  0.99990  1.0000
  H   H66       1.0  0.18970  0.39870  0.50010  1.0000
  H   H67       1.0  0.31030  0.89870  0.99990  1.0000
  H   H68       1.0  0.68970  0.89870  0.50010  1.0000
  H   H69       1.0  0.18970  0.60130  0.00010  1.0000
  H   H70       1.0  0.81030  0.60130  0.49990  1.0000
  H   H71       1.0  0.68970  0.10130  0.00010  1.0000
  H   H72       1.0  0.31030  0.10130  0.49990  1.0000
  C   C129      1.0  0.91309  0.44348  0.01000  1.0000
  C   C130      1.0  0.08691  0.44348  0.49000  1.0000
  C   C131      1.0  0.41309  0.94348  0.01000  1.0000
  C   C132      1.0  0.58691  0.94348  0.49000  1.0000
  C   C133      1.0  0.08691  0.55652  0.99000  1.0000
  C   C134      1.0  0.91309  0.55652  0.51000  1.0000
  C   C135      1.0  0.58691  0.05652  0.99000  1.0000
  C   C136      1.0  0.41309  0.05652  0.51000  1.0000
  H   H73       1.0  0.93070  0.41320  0.04980  1.0000
  H   H74       1.0  0.06930  0.41320  0.45020  1.0000
  H   H75       1.0  0.43070  0.91320  0.04980  1.0000
  H   H76       1.0  0.56930  0.91320  0.45020  1.0000
  H   H77       1.0  0.06930  0.58680  0.95020  1.0000
  H   H78       1.0  0.93070  0.58680  0.54980  1.0000
  H   H79       1.0  0.56930  0.08680  0.95020  1.0000
  H   H80       1.0  0.43070  0.08680  0.54980  1.0000
  C   C137      1.0  0.96088  0.49555  0.98430  1.0000
  C   C138      1.0  0.03912  0.49555  0.51570  1.0000
  C   C139      1.0  0.46088  0.99555  0.98430  1.0000
  C   C140      1.0  0.53912  0.99555  0.51570  1.0000
  C   C141      1.0  0.03912  0.50445  0.01570  1.0000
  C   C142      1.0  0.96088  0.50445  0.48430  1.0000
  C   C143      1.0  0.53912  0.00445  0.01570  1.0000
  C   C144      1.0  0.46088  0.00445  0.48430  1.0000
  C   C145      1.0  0.93027  0.54187  0.93133  1.0000
  C   C146      1.0  0.06973  0.54187  0.56867  1.0000
  C   C147      1.0  0.43027  0.04187  0.93133  1.0000
  C   C148      1.0  0.56973  0.04187  0.56867  1.0000
  C   C149      1.0  0.06973  0.45813  0.06867  1.0000
  C   C150      1.0  0.93027  0.45813  0.43133  1.0000
  C   C151      1.0  0.56973  0.95813  0.06867  1.0000
  C   C152      1.0  0.43027  0.95813  0.43133  1.0000
  H   H81       1.0  0.95880  0.58200  0.91560  1.0000
  H   H82       1.0  0.04120  0.58200  0.58440  1.0000
  H   H83       1.0  0.45880  0.08200  0.91560  1.0000
  H   H84       1.0  0.54120  0.08200  0.58440  1.0000
  H   H85       1.0  0.04120  0.41800  0.08440  1.0000
  H   H86       1.0  0.95880  0.41800  0.41560  1.0000
  H   H87       1.0  0.54120  0.91800  0.08440  1.0000
  H   H88       1.0  0.45880  0.91800  0.41560  1.0000
  C   C153      1.0  0.85809  0.53177  0.89965  1.0000
  C   C154      1.0  0.14191  0.53177  0.60035  1.0000
  C   C155      1.0  0.35809  0.03177  0.89965  1.0000
  C   C156      1.0  0.64191  0.03177  0.60035  1.0000
  C   C157      1.0  0.14191  0.46823  0.10035  1.0000
  C   C158      1.0  0.85809  0.46823  0.39965  1.0000
  C   C159      1.0  0.64191  0.96823  0.10035  1.0000
  C   C160      1.0  0.35809  0.96823  0.39965  1.0000
  H   H89       1.0  0.83880  0.56450  0.86230  1.0000
  H   H90       1.0  0.16120  0.56450  0.63770  1.0000
  H   H91       1.0  0.33880  0.06450  0.86230  1.0000
  H   H92       1.0  0.66120  0.06450  0.63770  1.0000
  H   H93       1.0  0.16120  0.43550  0.13770  1.0000
  H   H94       1.0  0.83880  0.43550  0.36230  1.0000
  H   H95       1.0  0.66120  0.93550  0.13770  1.0000
  H   H96       1.0  0.33880  0.93550  0.36230  1.0000
  C   C161      1.0  0.73870  0.46303  0.88439  1.0000
  C   C162      1.0  0.26130  0.46303  0.61561  1.0000
  C   C163      1.0  0.23870  0.96303  0.88439  1.0000
  C   C164      1.0  0.76130  0.96303  0.61561  1.0000
  C   C165      1.0  0.26130  0.53697  0.11561  1.0000
  C   C166      1.0  0.73870  0.53697  0.38439  1.0000
  C   C167      1.0  0.76130  0.03697  0.11561  1.0000
  C   C168      1.0  0.23870  0.03697  0.38439  1.0000
  O   O33       1.0  0.70655  0.40367  0.89510  1.0000
  O   O34       1.0  0.29345  0.40367  0.60490  1.0000
  O   O35       1.0  0.20655  0.90367  0.89510  1.0000
  O   O36       1.0  0.79345  0.90367  0.60490  1.0000
  O   O37       1.0  0.29345  0.59633  0.10490  1.0000
  O   O38       1.0  0.70655  0.59633  0.39510  1.0000
  O   O39       1.0  0.79345  0.09633  0.10490  1.0000
  O   O40       1.0  0.20655  0.09633  0.39510  1.0000
  O   O41       1.0  0.70900  0.51251  0.84474  1.0000
  O   O42       1.0  0.29100  0.51251  0.65526  1.0000
  O   O43       1.0  0.20900  0.01251  0.84474  1.0000
  O   O44       1.0  0.79100  0.01251  0.65526  1.0000
  O   O45       1.0  0.29100  0.48749  0.15526  1.0000
  O   O46       1.0  0.70900  0.48749  0.34474  1.0000
  O   O47       1.0  0.79100  0.98749  0.15526  1.0000
  O   O48       1.0  0.20900  0.98749  0.34474  1.0000
  C   C169      1.0  0.50000  0.65323  0.75000  1.0000
  C   C170      1.0  0.00000  0.15323  0.75000  1.0000
  C   C171      1.0  0.50000  0.34677  0.25000  1.0000
  C   C172      1.0  0.00000  0.84677  0.25000  1.0000
  C   C173      1.0  0.56408  0.69224  0.76617  1.0000
  C   C174      1.0  0.43592  0.69224  0.73383  1.0000
  C   C175      1.0  0.06408  0.19224  0.76617  1.0000
  C   C176      1.0  0.93592  0.19224  0.73383  1.0000
  C   C177      1.0  0.43592  0.30776  0.23383  1.0000
  C   C178      1.0  0.56408  0.30776  0.26617  1.0000
  C   C179      1.0  0.93592  0.80776  0.23383  1.0000
  C   C180      1.0  0.06408  0.80776  0.26617  1.0000
  H   H97       1.0  0.60910  0.66600  0.77760  1.0000
  H   H98       1.0  0.39090  0.66600  0.72240  1.0000
  H   H99       1.0  0.10910  0.16600  0.77760  1.0000
  H   H100      1.0  0.89090  0.16600  0.72240  1.0000
  H   H101      1.0  0.39090  0.33400  0.22240  1.0000
  H   H102      1.0  0.60910  0.33400  0.27760  1.0000
  H   H103      1.0  0.89090  0.83400  0.22240  1.0000
  H   H104      1.0  0.10910  0.83400  0.27760  1.0000
  C   C181      1.0  0.56383  0.76950  0.76594  1.0000
  C   C182      1.0  0.43617  0.76950  0.73406  1.0000
  C   C183      1.0  0.06383  0.26950  0.76594  1.0000
  C   C184      1.0  0.93617  0.26950  0.73406  1.0000
  C   C185      1.0  0.43617  0.23050  0.23406  1.0000
  C   C186      1.0  0.56383  0.23050  0.26594  1.0000
  C   C187      1.0  0.93617  0.73050  0.23406  1.0000
  C   C188      1.0  0.06383  0.73050  0.26594  1.0000
  H   H105      1.0  0.60890  0.79570  0.77710  1.0000
  H   H106      1.0  0.39110  0.79570  0.72290  1.0000
  H   H107      1.0  0.10890  0.29570  0.77710  1.0000
  H   H108      1.0  0.89110  0.29570  0.72290  1.0000
  H   H109      1.0  0.39110  0.20430  0.22290  1.0000
  H   H110      1.0  0.60890  0.20430  0.27710  1.0000
  H   H111      1.0  0.89110  0.70430  0.22290  1.0000
  H   H112      1.0  0.10890  0.70430  0.27710  1.0000
  C   C189      1.0  0.50000  0.80915  0.75000  1.0000
  C   C190      1.0  0.00000  0.30915  0.75000  1.0000
  C   C191      1.0  0.50000  0.19085  0.25000  1.0000
  C   C192      1.0  0.00000  0.69085  0.25000  1.0000
  C   C193      1.0  0.50000  0.56878  0.75000  1.0000
  C   C194      1.0  0.00000  0.06878  0.75000  1.0000
  C   C195      1.0  0.50000  0.43122  0.25000  1.0000
  C   C196      1.0  0.00000  0.93122  0.25000  1.0000
  O   O49       1.0  0.56209  0.53744  0.75567  1.0000
  O   O50       1.0  0.43791  0.53744  0.74433  1.0000
  O   O51       1.0  0.06209  0.03744  0.75567  1.0000
  O   O52       1.0  0.93791  0.03744  0.74433  1.0000
  O   O53       1.0  0.43791  0.46256  0.24433  1.0000
  O   O54       1.0  0.56209  0.46256  0.25567  1.0000
  O   O55       1.0  0.93791  0.96256  0.24433  1.0000
  O   O56       1.0  0.06209  0.96256  0.25567  1.0000
  C   C197      1.0  0.50000  0.04910  0.75000  1.0000
  C   C198      1.0  0.00000  0.54910  0.75000  1.0000
  C   C199      1.0  0.50000  0.95090  0.25000  1.0000
  C   C200      1.0  0.00000  0.45090  0.25000  1.0000
  C   C201      1.0  0.45358  0.01023  0.70184  1.0000
  C   C202      1.0  0.54642  0.01023  0.79816  1.0000
  C   C203      1.0  0.95358  0.51023  0.70184  1.0000
  C   C204      1.0  0.04642  0.51023  0.79816  1.0000
  C   C205      1.0  0.54642  0.98977  0.29816  1.0000
  C   C206      1.0  0.45358  0.98977  0.20184  1.0000
  C   C207      1.0  0.04642  0.48977  0.29816  1.0000
  C   C208      1.0  0.95358  0.48977  0.20184  1.0000
  H   H113      1.0  0.42100  0.03670  0.66780  1.0000
  H   H114      1.0  0.57900  0.03670  0.83220  1.0000
  H   H115      1.0  0.92100  0.53670  0.66780  1.0000
  H   H116      1.0  0.07900  0.53670  0.83220  1.0000
  H   H117      1.0  0.57900  0.96330  0.33220  1.0000
  H   H118      1.0  0.42100  0.96330  0.16780  1.0000
  H   H119      1.0  0.07900  0.46330  0.33220  1.0000
  H   H120      1.0  0.92100  0.46330  0.16780  1.0000
  C   C209      1.0  0.45305  0.93261  0.70162  1.0000
  C   C210      1.0  0.54695  0.93261  0.79838  1.0000
  C   C211      1.0  0.95305  0.43261  0.70162  1.0000
  C   C212      1.0  0.04695  0.43261  0.79838  1.0000
  C   C213      1.0  0.54695  0.06739  0.29838  1.0000
  C   C214      1.0  0.45305  0.06739  0.20162  1.0000
  C   C215      1.0  0.04695  0.56739  0.29838  1.0000
  C   C216      1.0  0.95305  0.56739  0.20162  1.0000
  H   H121      1.0  0.41990  0.90670  0.66770  1.0000
  H   H122      1.0  0.58010  0.90670  0.83230  1.0000
  H   H123      1.0  0.91990  0.40670  0.66770  1.0000
  H   H124      1.0  0.08010  0.40670  0.83230  1.0000
  H   H125      1.0  0.58010  0.09330  0.33230  1.0000
  H   H126      1.0  0.41990  0.09330  0.16770  1.0000
  H   H127      1.0  0.08010  0.59330  0.33230  1.0000
  H   H128      1.0  0.91990  0.59330  0.16770  1.0000
  C   C217      1.0  0.50000  0.89258  0.75000  1.0000
  C   C218      1.0  0.00000  0.39258  0.75000  1.0000
  C   C219      1.0  0.50000  0.10742  0.25000  1.0000
  C   C220      1.0  0.00000  0.60742  0.25000  1.0000
  C   C221      1.0  0.50000  0.13274  0.75000  1.0000
  C   C222      1.0  0.00000  0.63274  0.75000  1.0000
  C   C223      1.0  0.50000  0.86726  0.25000  1.0000
  C   C224      1.0  0.00000  0.36726  0.25000  1.0000
  O   O57       1.0  0.47560  0.16719  0.69334  1.0000
  O   O58       1.0  0.52440  0.16719  0.80666  1.0000
  O   O59       1.0  0.97560  0.66719  0.69334  1.0000
  O   O60       1.0  0.02440  0.66719  0.80666  1.0000
  O   O61       1.0  0.52440  0.83281  0.30666  1.0000
  O   O62       1.0  0.47560  0.83281  0.19334  1.0000
  O   O63       1.0  0.02440  0.33281  0.30666  1.0000
  O   O64       1.0  0.97560  0.33281  0.19334  1.0000
