data_image0
_chemical_formula_structural       Zn6O36C4H4C6H2C12H4C8H4C8H4C16
_chemical_formula_sum              "Zn6 O36 C54 H18"
_cell_length_a       16.965
_cell_length_b       15.5171
_cell_length_c       14.0726
_cell_angle_alpha    90
_cell_angle_beta     108.119
_cell_angle_gamma    90

_space_group_name_H-M_alt    "P 1"
_space_group_IT_number       1

loop_
  _space_group_symop_operation_xyz
  'x, y, z'

loop_
  _atom_site_type_symbol
  _atom_site_label
  _atom_site_symmetry_multiplicity
  _atom_site_fract_x
  _atom_site_fract_y
  _atom_site_fract_z
  _atom_site_occupancy
  Zn  Zn1       1.0  0.51225  0.70437  0.63636  1.0000
  Zn  Zn2       1.0  0.48775  0.70437  0.86364  1.0000
  Zn  Zn3       1.0  0.48775  0.29563  0.36364  1.0000
  Zn  Zn4       1.0  0.51225  0.29563  0.13636  1.0000
  Zn  Zn5       1.0  0.00000  0.95650  0.25000  1.0000
  Zn  Zn6       1.0  0.00000  0.04350  0.75000  1.0000
  O   O1        1.0  0.48060  0.31930  0.49330  1.0000
  O   O2        1.0  0.51940  0.31930  0.00670  1.0000
  O   O3        1.0  0.51940  0.68070  0.50670  1.0000
  O   O4        1.0  0.48060  0.68070  0.99330  1.0000
  O   O5        1.0  0.49880  0.19470  0.56770  1.0000
  O   O6        1.0  0.50120  0.19470  0.93230  1.0000
  O   O7        1.0  0.50120  0.80530  0.43230  1.0000
  O   O8        1.0  0.49880  0.80530  0.06770  1.0000
  O   O9        1.0  0.51010  0.58480  0.67620  1.0000
  O   O10       1.0  0.48990  0.58480  0.82380  1.0000
  O   O11       1.0  0.48990  0.41520  0.32380  1.0000
  O   O12       1.0  0.51010  0.41520  0.17620  1.0000
  O   O13       1.0  0.40540  0.75400  0.62490  1.0000
  O   O14       1.0  0.59460  0.75400  0.87510  1.0000
  O   O15       1.0  0.59460  0.24600  0.37510  1.0000
  O   O16       1.0  0.40540  0.24600  0.12490  1.0000
  O   O17       1.0  0.39540  0.76630  0.77790  1.0000
  O   O18       1.0  0.60460  0.76630  0.72210  1.0000
  O   O19       1.0  0.60460  0.23370  0.22210  1.0000
  O   O20       1.0  0.39540  0.23370  0.27790  1.0000
  O   O21       1.0  0.05560  0.88360  0.36280  1.0000
  O   O22       1.0  0.94440  0.88360  0.13720  1.0000
  O   O23       1.0  0.94440  0.11640  0.63720  1.0000
  O   O24       1.0  0.05560  0.11640  0.86280  1.0000
  O   O25       1.0  0.17090  0.84070  0.33160  1.0000
  O   O26       1.0  0.82910  0.84070  0.16840  1.0000
  O   O27       1.0  0.82910  0.15930  0.66840  1.0000
  O   O28       1.0  0.17090  0.15930  0.83160  1.0000
  O   O29       1.0  0.06580  0.97850  0.68750  1.0000
  O   O30       1.0  0.93420  0.97850  0.81250  1.0000
  O   O31       1.0  0.93420  0.02150  0.31250  1.0000
  O   O32       1.0  0.06580  0.02150  0.18750  1.0000
  O   O33       1.0  0.15380  0.92270  0.82510  1.0000
  O   O34       1.0  0.84620  0.92270  0.67490  1.0000
  O   O35       1.0  0.84620  0.07730  0.17490  1.0000
  O   O36       1.0  0.15380  0.07730  0.32510  1.0000
  C   C1        1.0  0.49730  0.40690  0.66410  1.0000
  C   C2        1.0  0.50270  0.40690  0.83590  1.0000
  C   C3        1.0  0.50270  0.59310  0.33590  1.0000
  C   C4        1.0  0.49730  0.59310  0.16410  1.0000
  H   H1        1.0  0.49630  0.43700  0.60650  1.0000
  H   H2        1.0  0.50370  0.43700  0.89350  1.0000
  H   H3        1.0  0.50370  0.56300  0.39350  1.0000
  H   H4        1.0  0.49630  0.56300  0.10650  1.0000
  C   C5        1.0  0.49590  0.31830  0.66200  1.0000
  C   C6        1.0  0.50410  0.31830  0.83800  1.0000
  C   C7        1.0  0.50410  0.68170  0.33800  1.0000
  C   C8        1.0  0.49590  0.68170  0.16200  1.0000
  C   C9        1.0  0.50000  0.27400  0.75000  1.0000
  C   C10       1.0  0.50000  0.72600  0.25000  1.0000
  H   H5        1.0  0.50000  0.21400  0.75000  1.0000
  H   H6        1.0  0.50000  0.78600  0.25000  1.0000
  C   C11       1.0  0.50000  0.45260  0.75000  1.0000
  C   C12       1.0  0.50000  0.54740  0.25000  1.0000
  C   C13       1.0  0.49120  0.27230  0.56850  1.0000
  C   C14       1.0  0.50880  0.27230  0.93150  1.0000
  C   C15       1.0  0.50880  0.72770  0.43150  1.0000
  C   C16       1.0  0.49120  0.72770  0.06850  1.0000
  C   C17       1.0  0.50000  0.54840  0.75000  1.0000
  C   C18       1.0  0.50000  0.45160  0.25000  1.0000
  C   C19       1.0  0.13390  0.89180  0.56310  1.0000
  C   C20       1.0  0.86610  0.89180  0.93690  1.0000
  C   C21       1.0  0.86610  0.10820  0.43690  1.0000
  C   C22       1.0  0.13390  0.10820  0.06310  1.0000
  H   H7        1.0  0.08330  0.91960  0.53600  1.0000
  H   H8        1.0  0.91670  0.91960  0.96400  1.0000
  H   H9        1.0  0.91670  0.08040  0.46400  1.0000
  H   H10       1.0  0.08330  0.08040  0.03600  1.0000
  C   C23       1.0  0.17000  0.85460  0.49990  1.0000
  C   C24       1.0  0.83000  0.85460  0.00010  1.0000
  C   C25       1.0  0.83000  0.14540  0.50010  1.0000
  C   C26       1.0  0.17000  0.14540  0.99990  1.0000
  C   C27       1.0  0.24560  0.81640  0.53960  1.0000
  C   C28       1.0  0.75440  0.81640  0.96040  1.0000
  C   C29       1.0  0.75440  0.18360  0.46040  1.0000
  C   C30       1.0  0.24560  0.18360  0.03960  1.0000
  H   H11       1.0  0.27090  0.79140  0.49650  1.0000
  H   H12       1.0  0.72910  0.79140  0.00350  1.0000
  H   H13       1.0  0.72910  0.20860  0.50350  1.0000
  H   H14       1.0  0.27090  0.20860  0.99650  1.0000
  C   C31       1.0  0.28680  0.81360  0.64300  1.0000
  C   C32       1.0  0.71320  0.81360  0.85700  1.0000
  C   C33       1.0  0.71320  0.18640  0.35700  1.0000
  C   C34       1.0  0.28680  0.18640  0.14300  1.0000
  C   C35       1.0  0.24380  0.85020  0.70550  1.0000
  C   C36       1.0  0.75620  0.85020  0.79450  1.0000
  C   C37       1.0  0.75620  0.14980  0.29450  1.0000
  C   C38       1.0  0.24380  0.14980  0.20550  1.0000
  H   H15       1.0  0.26700  0.84690  0.77460  1.0000
  H   H16       1.0  0.73300  0.84690  0.72540  1.0000
  H   H17       1.0  0.73300  0.15310  0.22540  1.0000
  H   H18       1.0  0.26700  0.15310  0.27460  1.0000
  C   C39       1.0  0.16840  0.89060  0.66520  1.0000
  C   C40       1.0  0.83160  0.89060  0.83480  1.0000
  C   C41       1.0  0.83160  0.10940  0.33480  1.0000
  C   C42       1.0  0.16840  0.10940  0.16520  1.0000
  C   C43       1.0  0.36790  0.77460  0.68500  1.0000
  C   C44       1.0  0.63210  0.77460  0.81500  1.0000
  C   C45       1.0  0.63210  0.22540  0.31500  1.0000
  C   C46       1.0  0.36790  0.22540  0.18500  1.0000
  C   C47       1.0  0.13130  0.85980  0.39110  1.0000
  C   C48       1.0  0.86870  0.85980  0.10890  1.0000
  C   C49       1.0  0.86870  0.14020  0.60890  1.0000
  C   C50       1.0  0.13130  0.14020  0.89110  1.0000
  C   C51       1.0  0.12960  0.93430  0.73350  1.0000
  C   C52       1.0  0.87040  0.93430  0.76650  1.0000
  C   C53       1.0  0.87040  0.06570  0.26650  1.0000
  C   C54       1.0  0.12960  0.06570  0.23350  1.0000
