data_image0
_chemical_formula_structural       Zn16O88N8C24H8C16H8C16H8C28H4C16H8C16H16C8H16C8H16C8H16C8H16C8H16
_chemical_formula_sum              "Zn16 O88 N8 C156 H132"
_cell_length_a       18.5152
_cell_length_b       15.2446
_cell_length_c       21.4278
_cell_angle_alpha    90
_cell_angle_beta     100.999
_cell_angle_gamma    90

_space_group_name_H-M_alt    "P 1"
_space_group_IT_number       1

loop_
  _space_group_symop_operation_xyz
  'x, y, z'

loop_
  _atom_site_type_symbol
  _atom_site_label
  _atom_site_symmetry_multiplicity
  _atom_site_fract_x
  _atom_site_fract_y
  _atom_site_fract_z
  _atom_site_occupancy
  Zn  Zn1       1.0  0.30984  0.42764  0.94846  1.0000
  Zn  Zn2       1.0  0.19016  0.42764  0.05154  1.0000
  Zn  Zn3       1.0  0.80984  0.92764  0.44846  1.0000
  Zn  Zn4       1.0  0.69016  0.92764  0.55154  1.0000
  Zn  Zn5       1.0  0.69016  0.57236  0.05154  1.0000
  Zn  Zn6       1.0  0.80984  0.57236  0.94846  1.0000
  Zn  Zn7       1.0  0.19016  0.07236  0.55154  1.0000
  Zn  Zn8       1.0  0.30984  0.07236  0.44846  1.0000
  Zn  Zn9       1.0  0.56730  0.35163  0.58813  1.0000
  Zn  Zn10      1.0  0.93270  0.35163  0.41187  1.0000
  Zn  Zn11      1.0  0.06730  0.85163  0.08813  1.0000
  Zn  Zn12      1.0  0.43270  0.85163  0.91187  1.0000
  Zn  Zn13      1.0  0.43270  0.64837  0.41187  1.0000
  Zn  Zn14      1.0  0.06730  0.64837  0.58813  1.0000
  Zn  Zn15      1.0  0.93270  0.14837  0.91187  1.0000
  Zn  Zn16      1.0  0.56730  0.14837  0.08813  1.0000
  O   O1        1.0  0.34900  0.38720  0.82670  1.0000
  O   O2        1.0  0.15100  0.38720  0.17330  1.0000
  O   O3        1.0  0.84900  0.88720  0.32670  1.0000
  O   O4        1.0  0.65100  0.88720  0.67330  1.0000
  O   O5        1.0  0.65100  0.61280  0.17330  1.0000
  O   O6        1.0  0.84900  0.61280  0.82670  1.0000
  O   O7        1.0  0.15100  0.11280  0.67330  1.0000
  O   O8        1.0  0.34900  0.11280  0.32670  1.0000
  O   O9        1.0  0.40280  0.43430  0.92190  1.0000
  O   O10       1.0  0.09720  0.43430  0.07810  1.0000
  O   O11       1.0  0.90280  0.93430  0.42190  1.0000
  O   O12       1.0  0.59720  0.93430  0.57810  1.0000
  O   O13       1.0  0.59720  0.56570  0.07810  1.0000
  O   O14       1.0  0.90280  0.56570  0.92190  1.0000
  O   O15       1.0  0.09720  0.06570  0.57810  1.0000
  O   O16       1.0  0.40280  0.06570  0.42190  1.0000
  O   O17       1.0  0.65990  0.50690  0.97240  1.0000
  O   O18       1.0  0.84010  0.50690  0.02760  1.0000
  O   O19       1.0  0.15990  0.00690  0.47240  1.0000
  O   O20       1.0  0.34010  0.00690  0.52760  1.0000
  O   O21       1.0  0.34010  0.49310  0.02760  1.0000
  O   O22       1.0  0.15990  0.49310  0.97240  1.0000
  O   O23       1.0  0.84010  0.99310  0.52760  1.0000
  O   O24       1.0  0.65990  0.99310  0.47240  1.0000
  O   O25       1.0  0.72330  0.52270  0.89490  1.0000
  O   O26       1.0  0.77670  0.52270  0.10510  1.0000
  O   O27       1.0  0.22330  0.02270  0.39490  1.0000
  O   O28       1.0  0.27670  0.02270  0.60510  1.0000
  O   O29       1.0  0.27670  0.47730  0.10510  1.0000
  O   O30       1.0  0.22330  0.47730  0.89490  1.0000
  O   O31       1.0  0.77670  0.97730  0.60510  1.0000
  O   O32       1.0  0.72330  0.97730  0.39490  1.0000
  O   O33       1.0  0.50720  0.37140  0.65690  1.0000
  O   O34       1.0  0.99280  0.37140  0.34310  1.0000
  O   O35       1.0  0.00720  0.87140  0.15690  1.0000
  O   O36       1.0  0.49280  0.87140  0.84310  1.0000
  O   O37       1.0  0.49280  0.62860  0.34310  1.0000
  O   O38       1.0  0.00720  0.62860  0.65690  1.0000
  O   O39       1.0  0.99280  0.12860  0.84310  1.0000
  O   O40       1.0  0.50720  0.12860  0.15690  1.0000
  O   O41       1.0  0.62640  0.37990  0.68800  1.0000
  O   O42       1.0  0.87360  0.37990  0.31200  1.0000
  O   O43       1.0  0.12640  0.87990  0.18800  1.0000
  O   O44       1.0  0.37360  0.87990  0.81200  1.0000
  O   O45       1.0  0.37360  0.62010  0.31200  1.0000
  O   O46       1.0  0.12640  0.62010  0.68800  1.0000
  O   O47       1.0  0.87360  0.12010  0.81200  1.0000
  O   O48       1.0  0.62640  0.12010  0.18800  1.0000
  O   O49       1.0  0.29310  0.30620  0.96950  1.0000
  O   O50       1.0  0.20690  0.30620  0.03050  1.0000
  O   O51       1.0  0.79310  0.80620  0.46950  1.0000
  O   O52       1.0  0.70690  0.80620  0.53050  1.0000
  O   O53       1.0  0.70690  0.69380  0.03050  1.0000
  O   O54       1.0  0.79310  0.69380  0.96950  1.0000
  O   O55       1.0  0.20690  0.19380  0.53050  1.0000
  O   O56       1.0  0.29310  0.19380  0.46950  1.0000
  O   O57       1.0  0.08280  0.02240  0.06040  1.0000
  O   O58       1.0  0.41720  0.02240  0.93960  1.0000
  O   O59       1.0  0.58280  0.52240  0.56040  1.0000
  O   O60       1.0  0.91720  0.52240  0.43960  1.0000
  O   O61       1.0  0.91720  0.97760  0.93960  1.0000
  O   O62       1.0  0.58280  0.97760  0.06040  1.0000
  O   O63       1.0  0.41720  0.47760  0.43960  1.0000
  O   O64       1.0  0.08280  0.47760  0.56040  1.0000
  O   O65       1.0  0.14710  0.90210  0.05150  1.0000
  O   O66       1.0  0.35290  0.90210  0.94850  1.0000
  O   O67       1.0  0.64710  0.40210  0.55150  1.0000
  O   O68       1.0  0.85290  0.40210  0.44850  1.0000
  O   O69       1.0  0.85290  0.09790  0.94850  1.0000
  O   O70       1.0  0.64710  0.09790  0.05150  1.0000
  O   O71       1.0  0.35290  0.59790  0.44850  1.0000
  O   O72       1.0  0.14710  0.59790  0.55150  1.0000
  O   O73       1.0  0.48510  0.34790  0.50900  1.0000
  O   O74       1.0  0.01490  0.34790  0.49100  1.0000
  O   O75       1.0  0.98510  0.84790  0.00900  1.0000
  O   O76       1.0  0.51490  0.84790  0.99100  1.0000
  O   O77       1.0  0.51490  0.65210  0.49100  1.0000
  O   O78       1.0  0.98510  0.65210  0.50900  1.0000
  O   O79       1.0  0.01490  0.15210  0.99100  1.0000
  O   O80       1.0  0.48510  0.15210  0.00900  1.0000
  O   O81       1.0  0.61350  0.11460  0.67950  1.0000
  O   O82       1.0  0.88650  0.11460  0.32050  1.0000
  O   O83       1.0  0.11350  0.61460  0.17950  1.0000
  O   O84       1.0  0.38650  0.61460  0.82050  1.0000
  O   O85       1.0  0.38650  0.88540  0.32050  1.0000
  O   O86       1.0  0.11350  0.88540  0.67950  1.0000
  O   O87       1.0  0.88650  0.38540  0.82050  1.0000
  O   O88       1.0  0.61350  0.38540  0.17950  1.0000
  N   N1        1.0  0.57580  0.21820  0.56830  1.0000
  N   N2        1.0  0.92420  0.21820  0.43170  1.0000
  N   N3        1.0  0.07580  0.71820  0.06830  1.0000
  N   N4        1.0  0.42420  0.71820  0.93170  1.0000
  N   N5        1.0  0.42420  0.78180  0.43170  1.0000
  N   N6        1.0  0.07580  0.78180  0.56830  1.0000
  N   N7        1.0  0.92420  0.28180  0.93170  1.0000
  N   N8        1.0  0.57580  0.28180  0.06830  1.0000
  C   C1        1.0  0.40300  0.41220  0.86430  1.0000
  C   C2        1.0  0.09700  0.41220  0.13570  1.0000
  C   C3        1.0  0.90300  0.91220  0.36430  1.0000
  C   C4        1.0  0.59700  0.91220  0.63570  1.0000
  C   C5        1.0  0.59700  0.58780  0.13570  1.0000
  C   C6        1.0  0.90300  0.58780  0.86430  1.0000
  C   C7        1.0  0.09700  0.08780  0.63570  1.0000
  C   C8        1.0  0.40300  0.08780  0.36430  1.0000
  C   C9        1.0  0.47700  0.42150  0.84450  1.0000
  C   C10       1.0  0.02300  0.42150  0.15550  1.0000
  C   C11       1.0  0.97700  0.92150  0.34450  1.0000
  C   C12       1.0  0.52300  0.92150  0.65550  1.0000
  C   C13       1.0  0.52300  0.57850  0.15550  1.0000
  C   C14       1.0  0.97700  0.57850  0.84450  1.0000
  C   C15       1.0  0.02300  0.07850  0.65550  1.0000
  C   C16       1.0  0.47700  0.07850  0.34450  1.0000
  C   C17       1.0  0.53790  0.45360  0.88700  1.0000
  C   C18       1.0  0.96210  0.45360  0.11300  1.0000
  C   C19       1.0  0.03790  0.95360  0.38700  1.0000
  C   C20       1.0  0.46210  0.95360  0.61300  1.0000
  C   C21       1.0  0.46210  0.54640  0.11300  1.0000
  C   C22       1.0  0.03790  0.54640  0.88700  1.0000
  C   C23       1.0  0.96210  0.04640  0.61300  1.0000
  C   C24       1.0  0.53790  0.04640  0.38700  1.0000
  H   H1        1.0  0.53310  0.46820  0.92820  1.0000
  H   H2        1.0  0.96690  0.46820  0.07180  1.0000
  H   H3        1.0  0.03310  0.96820  0.42820  1.0000
  H   H4        1.0  0.46690  0.96820  0.57180  1.0000
  H   H5        1.0  0.46690  0.53180  0.07180  1.0000
  H   H6        1.0  0.03310  0.53180  0.92820  1.0000
  H   H7        1.0  0.96690  0.03180  0.57180  1.0000
  H   H8        1.0  0.53310  0.03180  0.42820  1.0000
  C   C25       1.0  0.60470  0.46390  0.86920  1.0000
  C   C26       1.0  0.89530  0.46390  0.13080  1.0000
  C   C27       1.0  0.10470  0.96390  0.36920  1.0000
  C   C28       1.0  0.39530  0.96390  0.63080  1.0000
  C   C29       1.0  0.39530  0.53610  0.13080  1.0000
  C   C30       1.0  0.10470  0.53610  0.86920  1.0000
  C   C31       1.0  0.89530  0.03610  0.63080  1.0000
  C   C32       1.0  0.60470  0.03610  0.36920  1.0000
  C   C33       1.0  0.61310  0.43950  0.80800  1.0000
  C   C34       1.0  0.88690  0.43950  0.19200  1.0000
  C   C35       1.0  0.11310  0.93950  0.30800  1.0000
  C   C36       1.0  0.38690  0.93950  0.69200  1.0000
  C   C37       1.0  0.38690  0.56050  0.19200  1.0000
  C   C38       1.0  0.11310  0.56050  0.80800  1.0000
  C   C39       1.0  0.88690  0.06050  0.69200  1.0000
  C   C40       1.0  0.61310  0.06050  0.30800  1.0000
  H   H9        1.0  0.65870  0.44460  0.79610  1.0000
  H   H10       1.0  0.84130  0.44460  0.20390  1.0000
  H   H11       1.0  0.15870  0.94460  0.29610  1.0000
  H   H12       1.0  0.34130  0.94460  0.70390  1.0000
  H   H13       1.0  0.34130  0.55540  0.20390  1.0000
  H   H14       1.0  0.15870  0.55540  0.79610  1.0000
  H   H15       1.0  0.84130  0.05540  0.70390  1.0000
  H   H16       1.0  0.65870  0.05540  0.29610  1.0000
  C   C41       1.0  0.55250  0.40750  0.76500  1.0000
  C   C42       1.0  0.94750  0.40750  0.23500  1.0000
  C   C43       1.0  0.05250  0.90750  0.26500  1.0000
  C   C44       1.0  0.44750  0.90750  0.73500  1.0000
  C   C45       1.0  0.44750  0.59250  0.23500  1.0000
  C   C46       1.0  0.05250  0.59250  0.76500  1.0000
  C   C47       1.0  0.94750  0.09250  0.73500  1.0000
  C   C48       1.0  0.55250  0.09250  0.26500  1.0000
  C   C49       1.0  0.48560  0.39950  0.78320  1.0000
  C   C50       1.0  0.01440  0.39950  0.21680  1.0000
  C   C51       1.0  0.98560  0.89950  0.28320  1.0000
  C   C52       1.0  0.51440  0.89950  0.71680  1.0000
  C   C53       1.0  0.51440  0.60050  0.21680  1.0000
  C   C54       1.0  0.98560  0.60050  0.78320  1.0000
  C   C55       1.0  0.01440  0.10050  0.71680  1.0000
  C   C56       1.0  0.48560  0.10050  0.28320  1.0000
  H   H17       1.0  0.44540  0.37900  0.75410  1.0000
  H   H18       1.0  0.05460  0.37900  0.24590  1.0000
  H   H19       1.0  0.94540  0.87900  0.25410  1.0000
  H   H20       1.0  0.55460  0.87900  0.74590  1.0000
  H   H21       1.0  0.55460  0.62100  0.24590  1.0000
  H   H22       1.0  0.94540  0.62100  0.75410  1.0000
  H   H23       1.0  0.05460  0.12100  0.74590  1.0000
  H   H24       1.0  0.44540  0.12100  0.25410  1.0000
  C   C57       1.0  0.66820  0.50040  0.91550  1.0000
  C   C58       1.0  0.83180  0.50040  0.08450  1.0000
  C   C59       1.0  0.16820  0.00040  0.41550  1.0000
  C   C60       1.0  0.33180  0.00040  0.58450  1.0000
  C   C61       1.0  0.33180  0.49960  0.08450  1.0000
  C   C62       1.0  0.16820  0.49960  0.91550  1.0000
  C   C63       1.0  0.83180  0.99960  0.58450  1.0000
  C   C64       1.0  0.66820  0.99960  0.41550  1.0000
  C   C65       1.0  0.56250  0.38430  0.69950  1.0000
  C   C66       1.0  0.93750  0.38430  0.30050  1.0000
  C   C67       1.0  0.06250  0.88430  0.19950  1.0000
  C   C68       1.0  0.43750  0.88430  0.80050  1.0000
  C   C69       1.0  0.43750  0.61570  0.30050  1.0000
  C   C70       1.0  0.06250  0.61570  0.69950  1.0000
  C   C71       1.0  0.93750  0.11570  0.80050  1.0000
  C   C72       1.0  0.56250  0.11570  0.19950  1.0000
  C   C73       1.0  0.25000  0.26850  0.00000  1.0000
  C   C74       1.0  0.75000  0.76850  0.50000  1.0000
  C   C75       1.0  0.75000  0.73150  0.00000  1.0000
  C   C76       1.0  0.25000  0.23150  0.50000  1.0000
  C   C77       1.0  0.25000  0.17240  0.00000  1.0000
  C   C78       1.0  0.75000  0.67240  0.50000  1.0000
  C   C79       1.0  0.75000  0.82760  0.00000  1.0000
  C   C80       1.0  0.25000  0.32760  0.50000  1.0000
  C   C81       1.0  0.25000  0.99240  0.00000  1.0000
  C   C82       1.0  0.75000  0.49240  0.50000  1.0000
  C   C83       1.0  0.75000  0.00760  0.00000  1.0000
  C   C84       1.0  0.25000  0.50760  0.50000  1.0000
  H   H25       1.0  0.25000  0.93140  0.00000  1.0000
  H   H26       1.0  0.75000  0.43140  0.50000  1.0000
  H   H27       1.0  0.75000  0.06860  0.00000  1.0000
  H   H28       1.0  0.25000  0.56860  0.50000  1.0000
  C   C85       1.0  0.19620  0.03560  0.02350  1.0000
  C   C86       1.0  0.30380  0.03560  0.97650  1.0000
  C   C87       1.0  0.69620  0.53560  0.52350  1.0000
  C   C88       1.0  0.80380  0.53560  0.47650  1.0000
  C   C89       1.0  0.80380  0.96440  0.97650  1.0000
  C   C90       1.0  0.69620  0.96440  0.02350  1.0000
  C   C91       1.0  0.30380  0.46440  0.47650  1.0000
  C   C92       1.0  0.19620  0.46440  0.52350  1.0000
  C   C93       1.0  0.19700  0.12430  0.02470  1.0000
  C   C94       1.0  0.30300  0.12430  0.97530  1.0000
  C   C95       1.0  0.69700  0.62430  0.52470  1.0000
  C   C96       1.0  0.80300  0.62430  0.47530  1.0000
  C   C97       1.0  0.80300  0.87570  0.97530  1.0000
  C   C98       1.0  0.69700  0.87570  0.02470  1.0000
  C   C99       1.0  0.30300  0.37570  0.47530  1.0000
  C   C100      1.0  0.19700  0.37570  0.52470  1.0000
  H   H29       1.0  0.16190  0.15410  0.04220  1.0000
  H   H30       1.0  0.33810  0.15410  0.95780  1.0000
  H   H31       1.0  0.66190  0.65410  0.54220  1.0000
  H   H32       1.0  0.83810  0.65410  0.45780  1.0000
  H   H33       1.0  0.83810  0.84590  0.95780  1.0000
  H   H34       1.0  0.66190  0.84590  0.04220  1.0000
  H   H35       1.0  0.33810  0.34590  0.45780  1.0000
  H   H36       1.0  0.16190  0.34590  0.54220  1.0000
  C   C101      1.0  0.13600  0.98370  0.04750  1.0000
  C   C102      1.0  0.36400  0.98370  0.95250  1.0000
  C   C103      1.0  0.63600  0.48370  0.54750  1.0000
  C   C104      1.0  0.86400  0.48370  0.45250  1.0000
  C   C105      1.0  0.86400  0.01630  0.95250  1.0000
  C   C106      1.0  0.63600  0.01630  0.04750  1.0000
  C   C107      1.0  0.36400  0.51630  0.45250  1.0000
  C   C108      1.0  0.13600  0.51630  0.54750  1.0000
  C   C109      1.0  0.48380  0.26330  0.47860  1.0000
  C   C110      1.0  0.01620  0.26330  0.52140  1.0000
  C   C111      1.0  0.98380  0.76330  0.97860  1.0000
  C   C112      1.0  0.51620  0.76330  0.02140  1.0000
  C   C113      1.0  0.51620  0.73670  0.52140  1.0000
  C   C114      1.0  0.98380  0.73670  0.47860  1.0000
  C   C115      1.0  0.01620  0.23670  0.02140  1.0000
  C   C116      1.0  0.48380  0.23670  0.97860  1.0000
  H   H37       1.0  0.47260  0.27040  0.43270  1.0000
  H   H38       1.0  0.02740  0.27040  0.56730  1.0000
  H   H39       1.0  0.97260  0.77040  0.93270  1.0000
  H   H40       1.0  0.52740  0.77040  0.06730  1.0000
  H   H41       1.0  0.52740  0.72960  0.56730  1.0000
  H   H42       1.0  0.97260  0.72960  0.43270  1.0000
  H   H43       1.0  0.02740  0.22960  0.06730  1.0000
  H   H44       1.0  0.47260  0.22960  0.93270  1.0000
  H   H45       1.0  0.44600  0.22680  0.49090  1.0000
  H   H46       1.0  0.05400  0.22680  0.50910  1.0000
  H   H47       1.0  0.94600  0.72680  0.99090  1.0000
  H   H48       1.0  0.55400  0.72680  0.00910  1.0000
  H   H49       1.0  0.55400  0.77320  0.50910  1.0000
  H   H50       1.0  0.94600  0.77320  0.49090  1.0000
  H   H51       1.0  0.05400  0.27320  0.00910  1.0000
  H   H52       1.0  0.44600  0.27320  0.99090  1.0000
  C   C117      1.0  0.56050  0.21860  0.49900  1.0000
  C   C118      1.0  0.93950  0.21860  0.50100  1.0000
  C   C119      1.0  0.06050  0.71860  0.99900  1.0000
  C   C120      1.0  0.43950  0.71860  0.00100  1.0000
  C   C121      1.0  0.43950  0.78140  0.50100  1.0000
  C   C122      1.0  0.06050  0.78140  0.49900  1.0000
  C   C123      1.0  0.93950  0.28140  0.00100  1.0000
  C   C124      1.0  0.56050  0.28140  0.99900  1.0000
  H   H53       1.0  0.55940  0.15920  0.48260  1.0000
  H   H54       1.0  0.94060  0.15920  0.51740  1.0000
  H   H55       1.0  0.05940  0.65920  0.98260  1.0000
  H   H56       1.0  0.44060  0.65920  0.01740  1.0000
  H   H57       1.0  0.44060  0.84080  0.51740  1.0000
  H   H58       1.0  0.05940  0.84080  0.48260  1.0000
  H   H59       1.0  0.94060  0.34080  0.01740  1.0000
  H   H60       1.0  0.55940  0.34080  0.98260  1.0000
  H   H61       1.0  0.59800  0.25140  0.48290  1.0000
  H   H62       1.0  0.90200  0.25140  0.51710  1.0000
  H   H63       1.0  0.09800  0.75140  0.98290  1.0000
  H   H64       1.0  0.40200  0.75140  0.01710  1.0000
  H   H65       1.0  0.40200  0.74860  0.51710  1.0000
  H   H66       1.0  0.09800  0.74860  0.48290  1.0000
  H   H67       1.0  0.90200  0.24860  0.01710  1.0000
  H   H68       1.0  0.59800  0.24860  0.98290  1.0000
  C   C125      1.0  0.64780  0.17890  0.58820  1.0000
  C   C126      1.0  0.85220  0.17890  0.41180  1.0000
  C   C127      1.0  0.14780  0.67890  0.08820  1.0000
  C   C128      1.0  0.35220  0.67890  0.91180  1.0000
  C   C129      1.0  0.35220  0.82110  0.41180  1.0000
  C   C130      1.0  0.14780  0.82110  0.58820  1.0000
  C   C131      1.0  0.85220  0.32110  0.91180  1.0000
  C   C132      1.0  0.64780  0.32110  0.08820  1.0000
  H   H69       1.0  0.68320  0.21380  0.57110  1.0000
  H   H70       1.0  0.81680  0.21380  0.42890  1.0000
  H   H71       1.0  0.18320  0.71380  0.07110  1.0000
  H   H72       1.0  0.31680  0.71380  0.92890  1.0000
  H   H73       1.0  0.31680  0.78620  0.42890  1.0000
  H   H74       1.0  0.18320  0.78620  0.57110  1.0000
  H   H75       1.0  0.81680  0.28620  0.92890  1.0000
  H   H76       1.0  0.68320  0.28620  0.07110  1.0000
  H   H77       1.0  0.64690  0.12100  0.56930  1.0000
  H   H78       1.0  0.85310  0.12100  0.43070  1.0000
  H   H79       1.0  0.14690  0.62100  0.06930  1.0000
  H   H80       1.0  0.35310  0.62100  0.93070  1.0000
  H   H81       1.0  0.35310  0.87900  0.43070  1.0000
  H   H82       1.0  0.14690  0.87900  0.56930  1.0000
  H   H83       1.0  0.85310  0.37900  0.93070  1.0000
  H   H84       1.0  0.64690  0.37900  0.06930  1.0000
  C   C133      1.0  0.67410  0.17000  0.65740  1.0000
  C   C134      1.0  0.82590  0.17000  0.34260  1.0000
  C   C135      1.0  0.17410  0.67000  0.15740  1.0000
  C   C136      1.0  0.32590  0.67000  0.84260  1.0000
  C   C137      1.0  0.32590  0.83000  0.34260  1.0000
  C   C138      1.0  0.17410  0.83000  0.65740  1.0000
  C   C139      1.0  0.82590  0.33000  0.84260  1.0000
  C   C140      1.0  0.67410  0.33000  0.15740  1.0000
  H   H85       1.0  0.67890  0.22700  0.67790  1.0000
  H   H86       1.0  0.82110  0.22700  0.32210  1.0000
  H   H87       1.0  0.17890  0.72700  0.17790  1.0000
  H   H88       1.0  0.32110  0.72700  0.82210  1.0000
  H   H89       1.0  0.32110  0.77300  0.32210  1.0000
  H   H90       1.0  0.17890  0.77300  0.67790  1.0000
  H   H91       1.0  0.82110  0.27300  0.82210  1.0000
  H   H92       1.0  0.67890  0.27300  0.17790  1.0000
  H   H93       1.0  0.72120  0.14020  0.66650  1.0000
  H   H94       1.0  0.77880  0.14020  0.33350  1.0000
  H   H95       1.0  0.22120  0.64020  0.16650  1.0000
  H   H96       1.0  0.27880  0.64020  0.83350  1.0000
  H   H97       1.0  0.27880  0.85980  0.33350  1.0000
  H   H98       1.0  0.22120  0.85980  0.66650  1.0000
  H   H99       1.0  0.77880  0.35980  0.83350  1.0000
  H   H100      1.0  0.72120  0.35980  0.16650  1.0000
  C   C141      1.0  0.54150  0.15380  0.66390  1.0000
  C   C142      1.0  0.95850  0.15380  0.33610  1.0000
  C   C143      1.0  0.04150  0.65380  0.16390  1.0000
  C   C144      1.0  0.45850  0.65380  0.83610  1.0000
  C   C145      1.0  0.45850  0.84620  0.33610  1.0000
  C   C146      1.0  0.04150  0.84620  0.66390  1.0000
  C   C147      1.0  0.95850  0.34620  0.83610  1.0000
  C   C148      1.0  0.54150  0.34620  0.16390  1.0000
  H   H101      1.0  0.54200  0.21040  0.68460  1.0000
  H   H102      1.0  0.95800  0.21040  0.31540  1.0000
  H   H103      1.0  0.04200  0.71040  0.18460  1.0000
  H   H104      1.0  0.45800  0.71040  0.81540  1.0000
  H   H105      1.0  0.45800  0.78960  0.31540  1.0000
  H   H106      1.0  0.04200  0.78960  0.68460  1.0000
  H   H107      1.0  0.95800  0.28960  0.81540  1.0000
  H   H108      1.0  0.54200  0.28960  0.18460  1.0000
  H   H109      1.0  0.50600  0.11670  0.67920  1.0000
  H   H110      1.0  0.99400  0.11670  0.32080  1.0000
  H   H111      1.0  0.00600  0.61670  0.17920  1.0000
  H   H112      1.0  0.49400  0.61670  0.82080  1.0000
  H   H113      1.0  0.49400  0.88330  0.32080  1.0000
  H   H114      1.0  0.00600  0.88330  0.67920  1.0000
  H   H115      1.0  0.99400  0.38330  0.82080  1.0000
  H   H116      1.0  0.50600  0.38330  0.17920  1.0000
  C   C149      1.0  0.51790  0.16600  0.58920  1.0000
  C   C150      1.0  0.98210  0.16600  0.41080  1.0000
  C   C151      1.0  0.01790  0.66600  0.08920  1.0000
  C   C152      1.0  0.48210  0.66600  0.91080  1.0000
  C   C153      1.0  0.48210  0.83400  0.41080  1.0000
  C   C154      1.0  0.01790  0.83400  0.58920  1.0000
  C   C155      1.0  0.98210  0.33400  0.91080  1.0000
  C   C156      1.0  0.51790  0.33400  0.08920  1.0000
  H   H117      1.0  0.51300  0.10940  0.56820  1.0000
  H   H118      1.0  0.98700  0.10940  0.43180  1.0000
  H   H119      1.0  0.01300  0.60940  0.06820  1.0000
  H   H120      1.0  0.48700  0.60940  0.93180  1.0000
  H   H121      1.0  0.48700  0.89060  0.43180  1.0000
  H   H122      1.0  0.01300  0.89060  0.56820  1.0000
  H   H123      1.0  0.98700  0.39060  0.93180  1.0000
  H   H124      1.0  0.51300  0.39060  0.06820  1.0000
  H   H125      1.0  0.47100  0.19630  0.57890  1.0000
  H   H126      1.0  0.02900  0.19630  0.42110  1.0000
  H   H127      1.0  0.97100  0.69630  0.07890  1.0000
  H   H128      1.0  0.52900  0.69630  0.92110  1.0000
  H   H129      1.0  0.52900  0.80370  0.42110  1.0000
  H   H130      1.0  0.97100  0.80370  0.57890  1.0000
  H   H131      1.0  0.02900  0.30370  0.92110  1.0000
  H   H132      1.0  0.47100  0.30370  0.07890  1.0000
