data_image0
_chemical_formula_structural       Zn54O324C54H18C36H18C36H18C90H18C36H18C36H18C90H18C54H18C18H18C36
_chemical_formula_sum              "Zn54 O324 C486 H162"
_cell_length_a       43.8139
_cell_length_b       43.8139
_cell_length_c       17.2006
_cell_angle_alpha    90
_cell_angle_beta     90
_cell_angle_gamma    120

_space_group_name_H-M_alt    "P 1"
_space_group_IT_number       1

loop_
  _space_group_symop_operation_xyz
  'x, y, z'

loop_
  _atom_site_type_symbol
  _atom_site_label
  _atom_site_symmetry_multiplicity
  _atom_site_fract_x
  _atom_site_fract_y
  _atom_site_fract_z
  _atom_site_occupancy
  Zn  Zn1       1.0  0.49428  0.17553  0.17631  1.0000
  Zn  Zn2       1.0  0.82447  0.31875  0.17631  1.0000
  Zn  Zn3       1.0  0.68125  0.50572  0.17631  1.0000
  Zn  Zn4       1.0  0.16095  0.50886  0.50964  1.0000
  Zn  Zn5       1.0  0.49114  0.65208  0.50964  1.0000
  Zn  Zn6       1.0  0.34792  0.83905  0.50964  1.0000
  Zn  Zn7       1.0  0.82761  0.84220  0.84298  1.0000
  Zn  Zn8       1.0  0.15780  0.98542  0.84298  1.0000
  Zn  Zn9       1.0  0.01458  0.17239  0.84298  1.0000
  Zn  Zn10      1.0  0.50572  0.82447  0.82369  1.0000
  Zn  Zn11      1.0  0.17553  0.68125  0.82369  1.0000
  Zn  Zn12      1.0  0.31875  0.49428  0.82369  1.0000
  Zn  Zn13      1.0  0.83905  0.49114  0.49036  1.0000
  Zn  Zn14      1.0  0.50886  0.34792  0.49036  1.0000
  Zn  Zn15      1.0  0.65208  0.16095  0.49036  1.0000
  Zn  Zn16      1.0  0.17239  0.15780  0.15702  1.0000
  Zn  Zn17      1.0  0.84220  0.01458  0.15702  1.0000
  Zn  Zn18      1.0  0.98542  0.82761  0.15702  1.0000
  Zn  Zn19      1.0  0.50945  0.15504  0.99537  1.0000
  Zn  Zn20      1.0  0.84496  0.35441  0.99537  1.0000
  Zn  Zn21      1.0  0.64559  0.49055  0.99537  1.0000
  Zn  Zn22      1.0  0.17612  0.48837  0.32870  1.0000
  Zn  Zn23      1.0  0.51163  0.68774  0.32870  1.0000
  Zn  Zn24      1.0  0.31226  0.82388  0.32870  1.0000
  Zn  Zn25      1.0  0.84278  0.82171  0.66204  1.0000
  Zn  Zn26      1.0  0.17829  0.02108  0.66204  1.0000
  Zn  Zn27      1.0  0.97892  0.15722  0.66204  1.0000
  Zn  Zn28      1.0  0.49055  0.84496  0.00463  1.0000
  Zn  Zn29      1.0  0.15504  0.64559  0.00463  1.0000
  Zn  Zn30      1.0  0.35441  0.50945  0.00463  1.0000
  Zn  Zn31      1.0  0.82388  0.51163  0.67130  1.0000
  Zn  Zn32      1.0  0.48837  0.31226  0.67130  1.0000
  Zn  Zn33      1.0  0.68774  0.17612  0.67130  1.0000
  Zn  Zn34      1.0  0.15722  0.17829  0.33796  1.0000
  Zn  Zn35      1.0  0.82171  0.97892  0.33796  1.0000
  Zn  Zn36      1.0  0.02108  0.84278  0.33796  1.0000
  Zn  Zn37      1.0  0.66948  0.07789  0.06903  1.0000
  Zn  Zn38      1.0  0.92211  0.59159  0.06903  1.0000
  Zn  Zn39      1.0  0.40841  0.33052  0.06903  1.0000
  Zn  Zn40      1.0  0.33615  0.41122  0.40236  1.0000
  Zn  Zn41      1.0  0.58878  0.92492  0.40236  1.0000
  Zn  Zn42      1.0  0.07508  0.66385  0.40236  1.0000
  Zn  Zn43      1.0  0.00281  0.74456  0.73570  1.0000
  Zn  Zn44      1.0  0.25544  0.25826  0.73570  1.0000
  Zn  Zn45      1.0  0.74174  0.99719  0.73570  1.0000
  Zn  Zn46      1.0  0.33052  0.92211  0.93097  1.0000
  Zn  Zn47      1.0  0.07789  0.40841  0.93097  1.0000
  Zn  Zn48      1.0  0.59159  0.66948  0.93097  1.0000
  Zn  Zn49      1.0  0.66385  0.58878  0.59764  1.0000
  Zn  Zn50      1.0  0.41122  0.07508  0.59764  1.0000
  Zn  Zn51      1.0  0.92492  0.33615  0.59764  1.0000
  Zn  Zn52      1.0  0.99719  0.25544  0.26430  1.0000
  Zn  Zn53      1.0  0.74456  0.74174  0.26430  1.0000
  Zn  Zn54      1.0  0.25826  0.00281  0.26430  1.0000
  O   O1        1.0  0.53575  0.17065  0.18350  1.0000
  O   O2        1.0  0.82935  0.36510  0.18350  1.0000
  O   O3        1.0  0.63490  0.46425  0.18350  1.0000
  O   O4        1.0  0.20242  0.50398  0.51683  1.0000
  O   O5        1.0  0.49602  0.69843  0.51683  1.0000
  O   O6        1.0  0.30157  0.79758  0.51683  1.0000
  O   O7        1.0  0.86908  0.83732  0.85017  1.0000
  O   O8        1.0  0.16268  0.03177  0.85017  1.0000
  O   O9        1.0  0.96823  0.13092  0.85017  1.0000
  O   O10       1.0  0.46425  0.82935  0.81650  1.0000
  O   O11       1.0  0.17065  0.63490  0.81650  1.0000
  O   O12       1.0  0.36510  0.53575  0.81650  1.0000
  O   O13       1.0  0.79758  0.49602  0.48317  1.0000
  O   O14       1.0  0.50398  0.30157  0.48317  1.0000
  O   O15       1.0  0.69843  0.20242  0.48317  1.0000
  O   O16       1.0  0.13092  0.16268  0.14983  1.0000
  O   O17       1.0  0.83732  0.96823  0.14983  1.0000
  O   O18       1.0  0.03177  0.86908  0.14983  1.0000
  O   O19       1.0  0.54411  0.15570  0.06460  1.0000
  O   O20       1.0  0.84430  0.38841  0.06460  1.0000
  O   O21       1.0  0.61159  0.45589  0.06460  1.0000
  O   O22       1.0  0.21078  0.48903  0.39793  1.0000
  O   O23       1.0  0.51097  0.72174  0.39793  1.0000
  O   O24       1.0  0.27826  0.78922  0.39793  1.0000
  O   O25       1.0  0.87744  0.82237  0.73127  1.0000
  O   O26       1.0  0.17763  0.05508  0.73127  1.0000
  O   O27       1.0  0.94492  0.12256  0.73127  1.0000
  O   O28       1.0  0.45589  0.84430  0.93540  1.0000
  O   O29       1.0  0.15570  0.61159  0.93540  1.0000
  O   O30       1.0  0.38841  0.54411  0.93540  1.0000
  O   O31       1.0  0.78922  0.51097  0.60207  1.0000
  O   O32       1.0  0.48903  0.27826  0.60207  1.0000
  O   O33       1.0  0.72174  0.21078  0.60207  1.0000
  O   O34       1.0  0.12256  0.17763  0.26873  1.0000
  O   O35       1.0  0.82237  0.94492  0.26873  1.0000
  O   O36       1.0  0.05508  0.87744  0.26873  1.0000
  O   O37       1.0  0.62284  0.10610  0.02620  1.0000
  O   O38       1.0  0.89390  0.51674  0.02620  1.0000
  O   O39       1.0  0.48326  0.37716  0.02620  1.0000
  O   O40       1.0  0.28951  0.43943  0.35953  1.0000
  O   O41       1.0  0.56057  0.85007  0.35953  1.0000
  O   O42       1.0  0.14993  0.71049  0.35953  1.0000
  O   O43       1.0  0.95617  0.77277  0.69287  1.0000
  O   O44       1.0  0.22723  0.18341  0.69287  1.0000
  O   O45       1.0  0.81659  0.04383  0.69287  1.0000
  O   O46       1.0  0.37716  0.89390  0.97380  1.0000
  O   O47       1.0  0.10610  0.48326  0.97380  1.0000
  O   O48       1.0  0.51674  0.62284  0.97380  1.0000
  O   O49       1.0  0.71049  0.56057  0.64047  1.0000
  O   O50       1.0  0.43943  0.14993  0.64047  1.0000
  O   O51       1.0  0.85007  0.28951  0.64047  1.0000
  O   O52       1.0  0.04383  0.22723  0.30713  1.0000
  O   O53       1.0  0.77277  0.81659  0.30713  1.0000
  O   O54       1.0  0.18341  0.95617  0.30713  1.0000
  O   O55       1.0  0.64124  0.09131  0.13340  1.0000
  O   O56       1.0  0.90869  0.54993  0.13340  1.0000
  O   O57       1.0  0.45007  0.35876  0.13340  1.0000
  O   O58       1.0  0.30791  0.42464  0.46673  1.0000
  O   O59       1.0  0.57536  0.88326  0.46673  1.0000
  O   O60       1.0  0.11674  0.69209  0.46673  1.0000
  O   O61       1.0  0.97457  0.75798  0.80007  1.0000
  O   O62       1.0  0.24202  0.21660  0.80007  1.0000
  O   O63       1.0  0.78340  0.02543  0.80007  1.0000
  O   O64       1.0  0.35876  0.90869  0.86660  1.0000
  O   O65       1.0  0.09131  0.45007  0.86660  1.0000
  O   O66       1.0  0.54993  0.64124  0.86660  1.0000
  O   O67       1.0  0.69209  0.57536  0.53327  1.0000
  O   O68       1.0  0.42464  0.11674  0.53327  1.0000
  O   O69       1.0  0.88326  0.30791  0.53327  1.0000
  O   O70       1.0  0.02543  0.24202  0.19993  1.0000
  O   O71       1.0  0.75798  0.78340  0.19993  1.0000
  O   O72       1.0  0.21660  0.97457  0.19993  1.0000
  O   O73       1.0  0.63767  0.14264  0.38560  1.0000
  O   O74       1.0  0.85736  0.49503  0.38560  1.0000
  O   O75       1.0  0.50497  0.36233  0.38560  1.0000
  O   O76       1.0  0.30434  0.47597  0.71893  1.0000
  O   O77       1.0  0.52403  0.82836  0.71893  1.0000
  O   O78       1.0  0.17164  0.69566  0.71893  1.0000
  O   O79       1.0  0.97100  0.80931  0.05227  1.0000
  O   O80       1.0  0.19069  0.16170  0.05227  1.0000
  O   O81       1.0  0.83830  0.02900  0.05227  1.0000
  O   O82       1.0  0.36233  0.85736  0.61440  1.0000
  O   O83       1.0  0.14264  0.50497  0.61440  1.0000
  O   O84       1.0  0.49503  0.63767  0.61440  1.0000
  O   O85       1.0  0.69566  0.52403  0.28107  1.0000
  O   O86       1.0  0.47597  0.17164  0.28107  1.0000
  O   O87       1.0  0.82836  0.30434  0.28107  1.0000
  O   O88       1.0  0.02900  0.19069  0.94773  1.0000
  O   O89       1.0  0.80931  0.83830  0.94773  1.0000
  O   O90       1.0  0.16170  0.97100  0.94773  1.0000
  O   O91       1.0  0.62674  0.18549  0.38910  1.0000
  O   O92       1.0  0.81451  0.44125  0.38910  1.0000
  O   O93       1.0  0.55875  0.37326  0.38910  1.0000
  O   O94       1.0  0.29341  0.51882  0.72243  1.0000
  O   O95       1.0  0.48118  0.77458  0.72243  1.0000
  O   O96       1.0  0.22542  0.70659  0.72243  1.0000
  O   O97       1.0  0.96007  0.85216  0.05577  1.0000
  O   O98       1.0  0.14784  0.10792  0.05577  1.0000
  O   O99       1.0  0.89208  0.03993  0.05577  1.0000
  O   O100      1.0  0.37326  0.81451  0.61090  1.0000
  O   O101      1.0  0.18549  0.55875  0.61090  1.0000
  O   O102      1.0  0.44125  0.62674  0.61090  1.0000
  O   O103      1.0  0.70659  0.48118  0.27757  1.0000
  O   O104      1.0  0.51882  0.22542  0.27757  1.0000
  O   O105      1.0  0.77458  0.29341  0.27757  1.0000
  O   O106      1.0  0.03993  0.14784  0.94423  1.0000
  O   O107      1.0  0.85216  0.89208  0.94423  1.0000
  O   O108      1.0  0.10792  0.96007  0.94423  1.0000
  O   O109      1.0  0.46486  0.11453  0.02830  1.0000
  O   O110      1.0  0.88547  0.35033  0.02830  1.0000
  O   O111      1.0  0.64967  0.53514  0.02830  1.0000
  O   O112      1.0  0.13153  0.44786  0.36163  1.0000
  O   O113      1.0  0.55214  0.68366  0.36163  1.0000
  O   O114      1.0  0.31634  0.86847  0.36163  1.0000
  O   O115      1.0  0.79819  0.78120  0.69497  1.0000
  O   O116      1.0  0.21880  0.01700  0.69497  1.0000
  O   O117      1.0  0.98300  0.20181  0.69497  1.0000
  O   O118      1.0  0.53514  0.88547  0.97170  1.0000
  O   O119      1.0  0.11453  0.64967  0.97170  1.0000
  O   O120      1.0  0.35033  0.46486  0.97170  1.0000
  O   O121      1.0  0.86847  0.55214  0.63837  1.0000
  O   O122      1.0  0.44786  0.31634  0.63837  1.0000
  O   O123      1.0  0.68366  0.13153  0.63837  1.0000
  O   O124      1.0  0.20181  0.21880  0.30503  1.0000
  O   O125      1.0  0.78120  0.98300  0.30503  1.0000
  O   O126      1.0  0.01700  0.79819  0.30503  1.0000
  O   O127      1.0  0.45410  0.13033  0.14210  1.0000
  O   O128      1.0  0.86967  0.32377  0.14210  1.0000
  O   O129      1.0  0.67623  0.54590  0.14210  1.0000
  O   O130      1.0  0.12077  0.46366  0.47543  1.0000
  O   O131      1.0  0.53634  0.65710  0.47543  1.0000
  O   O132      1.0  0.34290  0.87923  0.47543  1.0000
  O   O133      1.0  0.78743  0.79700  0.80877  1.0000
  O   O134      1.0  0.20300  0.99044  0.80877  1.0000
  O   O135      1.0  0.00956  0.21257  0.80877  1.0000
  O   O136      1.0  0.54590  0.86967  0.85790  1.0000
  O   O137      1.0  0.13033  0.67623  0.85790  1.0000
  O   O138      1.0  0.32377  0.45410  0.85790  1.0000
  O   O139      1.0  0.87923  0.53634  0.52457  1.0000
  O   O140      1.0  0.46366  0.34290  0.52457  1.0000
  O   O141      1.0  0.65710  0.12077  0.52457  1.0000
  O   O142      1.0  0.21257  0.20300  0.19123  1.0000
  O   O143      1.0  0.79700  0.00956  0.19123  1.0000
  O   O144      1.0  0.99044  0.78743  0.19123  1.0000
  O   O145      1.0  0.29470  0.01201  0.18600  1.0000
  O   O146      1.0  0.98799  0.28269  0.18600  1.0000
  O   O147      1.0  0.71731  0.70530  0.18600  1.0000
  O   O148      1.0  0.96137  0.34534  0.51933  1.0000
  O   O149      1.0  0.65466  0.61602  0.51933  1.0000
  O   O150      1.0  0.38398  0.03863  0.51933  1.0000
  O   O151      1.0  0.62803  0.67868  0.85267  1.0000
  O   O152      1.0  0.32132  0.94936  0.85267  1.0000
  O   O153      1.0  0.05064  0.37197  0.85267  1.0000
  O   O154      1.0  0.70530  0.98799  0.81400  1.0000
  O   O155      1.0  0.01201  0.71731  0.81400  1.0000
  O   O156      1.0  0.28269  0.29470  0.81400  1.0000
  O   O157      1.0  0.03863  0.65466  0.48067  1.0000
  O   O158      1.0  0.34534  0.38398  0.48067  1.0000
  O   O159      1.0  0.61602  0.96137  0.48067  1.0000
  O   O160      1.0  0.37197  0.32132  0.14733  1.0000
  O   O161      1.0  0.67868  0.05064  0.14733  1.0000
  O   O162      1.0  0.94936  0.62803  0.14733  1.0000
  O   O163      1.0  0.33217  0.06266  0.24410  1.0000
  O   O164      1.0  0.93734  0.26951  0.24410  1.0000
  O   O165      1.0  0.73049  0.66783  0.24410  1.0000
  O   O166      1.0  0.99884  0.39599  0.57743  1.0000
  O   O167      1.0  0.60401  0.60284  0.57743  1.0000
  O   O168      1.0  0.39716  0.00116  0.57743  1.0000
  O   O169      1.0  0.66550  0.72933  0.91077  1.0000
  O   O170      1.0  0.27067  0.93618  0.91077  1.0000
  O   O171      1.0  0.06382  0.33450  0.91077  1.0000
  O   O172      1.0  0.66783  0.93734  0.75590  1.0000
  O   O173      1.0  0.06266  0.73049  0.75590  1.0000
  O   O174      1.0  0.26951  0.33217  0.75590  1.0000
  O   O175      1.0  0.00116  0.60401  0.42257  1.0000
  O   O176      1.0  0.39599  0.39716  0.42257  1.0000
  O   O177      1.0  0.60284  0.99884  0.42257  1.0000
  O   O178      1.0  0.33450  0.27067  0.08923  1.0000
  O   O179      1.0  0.72933  0.06382  0.08923  1.0000
  O   O180      1.0  0.93618  0.66550  0.08923  1.0000
  O   O181      1.0  0.39423  0.98560  0.96450  1.0000
  O   O182      1.0  0.01440  0.40863  0.96450  1.0000
  O   O183      1.0  0.59137  0.60577  0.96450  1.0000
  O   O184      1.0  0.06090  0.31893  0.29783  1.0000
  O   O185      1.0  0.68107  0.74196  0.29783  1.0000
  O   O186      1.0  0.25804  0.93910  0.29783  1.0000
  O   O187      1.0  0.72756  0.65227  0.63117  1.0000
  O   O188      1.0  0.34773  0.07530  0.63117  1.0000
  O   O189      1.0  0.92470  0.27244  0.63117  1.0000
  O   O190      1.0  0.60577  0.01440  0.03550  1.0000
  O   O191      1.0  0.98560  0.59137  0.03550  1.0000
  O   O192      1.0  0.40863  0.39423  0.03550  1.0000
  O   O193      1.0  0.93910  0.68107  0.70217  1.0000
  O   O194      1.0  0.31893  0.25804  0.70217  1.0000
  O   O195      1.0  0.74196  0.06090  0.70217  1.0000
  O   O196      1.0  0.27244  0.34773  0.36883  1.0000
  O   O197      1.0  0.65227  0.92470  0.36883  1.0000
  O   O198      1.0  0.07530  0.72756  0.36883  1.0000
  O   O199      1.0  0.34242  0.95476  0.01920  1.0000
  O   O200      1.0  0.04524  0.38766  0.01920  1.0000
  O   O201      1.0  0.61234  0.65758  0.01920  1.0000
  O   O202      1.0  0.00909  0.28809  0.35253  1.0000
  O   O203      1.0  0.71191  0.72099  0.35253  1.0000
  O   O204      1.0  0.27901  0.99091  0.35253  1.0000
  O   O205      1.0  0.67575  0.62143  0.68587  1.0000
  O   O206      1.0  0.37857  0.05433  0.68587  1.0000
  O   O207      1.0  0.94567  0.32425  0.68587  1.0000
  O   O208      1.0  0.65758  0.04524  0.98080  1.0000
  O   O209      1.0  0.95476  0.61234  0.98080  1.0000
  O   O210      1.0  0.38766  0.34242  0.98080  1.0000
  O   O211      1.0  0.99091  0.71191  0.64747  1.0000
  O   O212      1.0  0.28809  0.27901  0.64747  1.0000
  O   O213      1.0  0.72099  0.00909  0.64747  1.0000
  O   O214      1.0  0.32425  0.37857  0.31413  1.0000
  O   O215      1.0  0.62143  0.94567  0.31413  1.0000
  O   O216      1.0  0.05433  0.67575  0.31413  1.0000
  O   O217      1.0  0.50435  0.19664  0.98890  1.0000
  O   O218      1.0  0.80336  0.30771  0.98890  1.0000
  O   O219      1.0  0.69229  0.49565  0.98890  1.0000
  O   O220      1.0  0.17102  0.52997  0.32223  1.0000
  O   O221      1.0  0.47003  0.64104  0.32223  1.0000
  O   O222      1.0  0.35896  0.82898  0.32223  1.0000
  O   O223      1.0  0.83768  0.86331  0.65557  1.0000
  O   O224      1.0  0.13669  0.97438  0.65557  1.0000
  O   O225      1.0  0.02562  0.16232  0.65557  1.0000
  O   O226      1.0  0.49565  0.80336  0.01110  1.0000
  O   O227      1.0  0.19664  0.69229  0.01110  1.0000
  O   O228      1.0  0.30771  0.50435  0.01110  1.0000
  O   O229      1.0  0.82898  0.47003  0.67777  1.0000
  O   O230      1.0  0.52997  0.35896  0.67777  1.0000
  O   O231      1.0  0.64104  0.17102  0.67777  1.0000
  O   O232      1.0  0.16232  0.13669  0.34443  1.0000
  O   O233      1.0  0.86331  0.02562  0.34443  1.0000
  O   O234      1.0  0.97438  0.83768  0.34443  1.0000
  O   O235      1.0  0.49089  0.20818  0.10580  1.0000
  O   O236      1.0  0.79182  0.28271  0.10580  1.0000
  O   O237      1.0  0.71729  0.50911  0.10580  1.0000
  O   O238      1.0  0.15756  0.54151  0.43913  1.0000
  O   O239      1.0  0.45849  0.61604  0.43913  1.0000
  O   O240      1.0  0.38396  0.84244  0.43913  1.0000
  O   O241      1.0  0.82422  0.87485  0.77247  1.0000
  O   O242      1.0  0.12515  0.94938  0.77247  1.0000
  O   O243      1.0  0.05062  0.17578  0.77247  1.0000
  O   O244      1.0  0.50911  0.79182  0.89420  1.0000
  O   O245      1.0  0.20818  0.71729  0.89420  1.0000
  O   O246      1.0  0.28271  0.49089  0.89420  1.0000
  O   O247      1.0  0.84244  0.45849  0.56087  1.0000
  O   O248      1.0  0.54151  0.38396  0.56087  1.0000
  O   O249      1.0  0.61604  0.15756  0.56087  1.0000
  O   O250      1.0  0.17578  0.12515  0.22753  1.0000
  O   O251      1.0  0.87485  0.05062  0.22753  1.0000
  O   O252      1.0  0.94938  0.82422  0.22753  1.0000
  O   O253      1.0  0.51140  0.27660  0.77240  1.0000
  O   O254      1.0  0.72340  0.23480  0.77240  1.0000
  O   O255      1.0  0.76520  0.48860  0.77240  1.0000
  O   O256      1.0  0.17807  0.60993  0.10573  1.0000
  O   O257      1.0  0.39007  0.56813  0.10573  1.0000
  O   O258      1.0  0.43187  0.82193  0.10573  1.0000
  O   O259      1.0  0.84473  0.94327  0.43907  1.0000
  O   O260      1.0  0.05673  0.90147  0.43907  1.0000
  O   O261      1.0  0.09853  0.15527  0.43907  1.0000
  O   O262      1.0  0.48860  0.72340  0.22760  1.0000
  O   O263      1.0  0.27660  0.76520  0.22760  1.0000
  O   O264      1.0  0.23480  0.51140  0.22760  1.0000
  O   O265      1.0  0.82193  0.39007  0.89427  1.0000
  O   O266      1.0  0.60993  0.43187  0.89427  1.0000
  O   O267      1.0  0.56813  0.17807  0.89427  1.0000
  O   O268      1.0  0.15527  0.05673  0.56093  1.0000
  O   O269      1.0  0.94327  0.09853  0.56093  1.0000
  O   O270      1.0  0.90147  0.84473  0.56093  1.0000
  O   O271      1.0  0.47476  0.29590  0.77660  1.0000
  O   O272      1.0  0.70410  0.17886  0.77660  1.0000
  O   O273      1.0  0.82114  0.52524  0.77660  1.0000
  O   O274      1.0  0.14143  0.62923  0.10993  1.0000
  O   O275      1.0  0.37077  0.51219  0.10993  1.0000
  O   O276      1.0  0.48781  0.85857  0.10993  1.0000
  O   O277      1.0  0.80809  0.96257  0.44327  1.0000
  O   O278      1.0  0.03743  0.84553  0.44327  1.0000
  O   O279      1.0  0.15447  0.19191  0.44327  1.0000
  O   O280      1.0  0.52524  0.70410  0.22340  1.0000
  O   O281      1.0  0.29590  0.82114  0.22340  1.0000
  O   O282      1.0  0.17886  0.47476  0.22340  1.0000
  O   O283      1.0  0.85857  0.37077  0.89007  1.0000
  O   O284      1.0  0.62923  0.48781  0.89007  1.0000
  O   O285      1.0  0.51219  0.14143  0.89007  1.0000
  O   O286      1.0  0.19191  0.03743  0.55673  1.0000
  O   O287      1.0  0.96257  0.15447  0.55673  1.0000
  O   O288      1.0  0.84553  0.80809  0.55673  1.0000
  O   O289      1.0  0.41832  0.29658  0.01900  1.0000
  O   O290      1.0  0.70342  0.12174  0.01900  1.0000
  O   O291      1.0  0.87826  0.58168  0.01900  1.0000
  O   O292      1.0  0.08499  0.62991  0.35233  1.0000
  O   O293      1.0  0.37009  0.45507  0.35233  1.0000
  O   O294      1.0  0.54493  0.91501  0.35233  1.0000
  O   O295      1.0  0.75165  0.96325  0.68567  1.0000
  O   O296      1.0  0.03675  0.78841  0.68567  1.0000
  O   O297      1.0  0.21159  0.24835  0.68567  1.0000
  O   O298      1.0  0.58168  0.70342  0.98100  1.0000
  O   O299      1.0  0.29658  0.87826  0.98100  1.0000
  O   O300      1.0  0.12174  0.41832  0.98100  1.0000
  O   O301      1.0  0.91501  0.37009  0.64767  1.0000
  O   O302      1.0  0.62991  0.54493  0.64767  1.0000
  O   O303      1.0  0.45507  0.08499  0.64767  1.0000
  O   O304      1.0  0.24835  0.03675  0.31433  1.0000
  O   O305      1.0  0.96325  0.21159  0.31433  1.0000
  O   O306      1.0  0.78841  0.75165  0.31433  1.0000
  O   O307      1.0  0.42469  0.27168  0.12550  1.0000
  O   O308      1.0  0.72832  0.15301  0.12550  1.0000
  O   O309      1.0  0.84699  0.57531  0.12550  1.0000
  O   O310      1.0  0.09136  0.60501  0.45883  1.0000
  O   O311      1.0  0.39499  0.48634  0.45883  1.0000
  O   O312      1.0  0.51366  0.90864  0.45883  1.0000
  O   O313      1.0  0.75802  0.93835  0.79217  1.0000
  O   O314      1.0  0.06165  0.81968  0.79217  1.0000
  O   O315      1.0  0.18032  0.24198  0.79217  1.0000
  O   O316      1.0  0.57531  0.72832  0.87450  1.0000
  O   O317      1.0  0.27168  0.84699  0.87450  1.0000
  O   O318      1.0  0.15301  0.42469  0.87450  1.0000
  O   O319      1.0  0.90864  0.39499  0.54117  1.0000
  O   O320      1.0  0.60501  0.51366  0.54117  1.0000
  O   O321      1.0  0.48634  0.09136  0.54117  1.0000
  O   O322      1.0  0.24198  0.06165  0.20783  1.0000
  O   O323      1.0  0.93835  0.18032  0.20783  1.0000
  O   O324      1.0  0.81968  0.75802  0.20783  1.0000
  C   C1        1.0  0.55016  0.15970  0.13710  1.0000
  C   C2        1.0  0.84030  0.39046  0.13710  1.0000
  C   C3        1.0  0.60954  0.44984  0.13710  1.0000
  C   C4        1.0  0.21683  0.49303  0.47043  1.0000
  C   C5        1.0  0.50697  0.72379  0.47043  1.0000
  C   C6        1.0  0.27621  0.78317  0.47043  1.0000
  C   C7        1.0  0.88349  0.82637  0.80377  1.0000
  C   C8        1.0  0.17363  0.05713  0.80377  1.0000
  C   C9        1.0  0.94287  0.11651  0.80377  1.0000
  C   C10       1.0  0.44984  0.84030  0.86290  1.0000
  C   C11       1.0  0.15970  0.60954  0.86290  1.0000
  C   C12       1.0  0.39046  0.55016  0.86290  1.0000
  C   C13       1.0  0.78317  0.50697  0.52957  1.0000
  C   C14       1.0  0.49303  0.27621  0.52957  1.0000
  C   C15       1.0  0.72379  0.21683  0.52957  1.0000
  C   C16       1.0  0.11651  0.17363  0.19623  1.0000
  C   C17       1.0  0.82637  0.94287  0.19623  1.0000
  C   C18       1.0  0.05713  0.88349  0.19623  1.0000
  C   C19       1.0  0.57723  0.15133  0.16610  1.0000
  C   C20       1.0  0.84867  0.42590  0.16610  1.0000
  C   C21       1.0  0.57410  0.42277  0.16610  1.0000
  C   C22       1.0  0.24390  0.48466  0.49943  1.0000
  C   C23       1.0  0.51534  0.75923  0.49943  1.0000
  C   C24       1.0  0.24077  0.75610  0.49943  1.0000
  C   C25       1.0  0.91056  0.81800  0.83277  1.0000
  C   C26       1.0  0.18200  0.09257  0.83277  1.0000
  C   C27       1.0  0.90743  0.08944  0.83277  1.0000
  C   C28       1.0  0.42277  0.84867  0.83390  1.0000
  C   C29       1.0  0.15133  0.57410  0.83390  1.0000
  C   C30       1.0  0.42590  0.57723  0.83390  1.0000
  C   C31       1.0  0.75610  0.51534  0.50057  1.0000
  C   C32       1.0  0.48466  0.24077  0.50057  1.0000
  C   C33       1.0  0.75923  0.24390  0.50057  1.0000
  C   C34       1.0  0.08944  0.18200  0.16723  1.0000
  C   C35       1.0  0.81800  0.90743  0.16723  1.0000
  C   C36       1.0  0.09257  0.91056  0.16723  1.0000
  C   C37       1.0  0.58944  0.13461  0.11960  1.0000
  C   C38       1.0  0.86539  0.45483  0.11960  1.0000
  C   C39       1.0  0.54517  0.41056  0.11960  1.0000
  C   C40       1.0  0.25611  0.46794  0.45293  1.0000
  C   C41       1.0  0.53206  0.78816  0.45293  1.0000
  C   C42       1.0  0.21184  0.74389  0.45293  1.0000
  C   C43       1.0  0.92277  0.80128  0.78627  1.0000
  C   C44       1.0  0.19872  0.12150  0.78627  1.0000
  C   C45       1.0  0.87850  0.07723  0.78627  1.0000
  C   C46       1.0  0.41056  0.86539  0.88040  1.0000
  C   C47       1.0  0.13461  0.54517  0.88040  1.0000
  C   C48       1.0  0.45483  0.58944  0.88040  1.0000
  C   C49       1.0  0.74389  0.53206  0.54707  1.0000
  C   C50       1.0  0.46794  0.21184  0.54707  1.0000
  C   C51       1.0  0.78816  0.25611  0.54707  1.0000
  C   C52       1.0  0.07723  0.19872  0.21373  1.0000
  C   C53       1.0  0.80128  0.87850  0.21373  1.0000
  C   C54       1.0  0.12150  0.92277  0.21373  1.0000
  H   H1        1.0  0.58210  0.12980  0.06810  1.0000
  H   H2        1.0  0.87020  0.45230  0.06810  1.0000
  H   H3        1.0  0.54770  0.41790  0.06810  1.0000
  H   H4        1.0  0.24877  0.46313  0.40143  1.0000
  H   H5        1.0  0.53687  0.78563  0.40143  1.0000
  H   H6        1.0  0.21437  0.75123  0.40143  1.0000
  H   H7        1.0  0.91543  0.79647  0.73477  1.0000
  H   H8        1.0  0.20353  0.11897  0.73477  1.0000
  H   H9        1.0  0.88103  0.08457  0.73477  1.0000
  H   H10       1.0  0.41790  0.87020  0.93190  1.0000
  H   H11       1.0  0.12980  0.54770  0.93190  1.0000
  H   H12       1.0  0.45230  0.58210  0.93190  1.0000
  H   H13       1.0  0.75123  0.53687  0.59857  1.0000
  H   H14       1.0  0.46313  0.21437  0.59857  1.0000
  H   H15       1.0  0.78563  0.24877  0.59857  1.0000
  H   H16       1.0  0.08457  0.20353  0.26523  1.0000
  H   H17       1.0  0.79647  0.88103  0.26523  1.0000
  H   H18       1.0  0.11897  0.91543  0.26523  1.0000
  C   C55       1.0  0.61278  0.12470  0.14890  1.0000
  C   C56       1.0  0.87530  0.48808  0.14890  1.0000
  C   C57       1.0  0.51192  0.38722  0.14890  1.0000
  C   C58       1.0  0.27945  0.45803  0.48223  1.0000
  C   C59       1.0  0.54197  0.82141  0.48223  1.0000
  C   C60       1.0  0.17859  0.72055  0.48223  1.0000
  C   C61       1.0  0.94611  0.79137  0.81557  1.0000
  C   C62       1.0  0.20863  0.15475  0.81557  1.0000
  C   C63       1.0  0.84525  0.05389  0.81557  1.0000
  C   C64       1.0  0.38722  0.87530  0.85110  1.0000
  C   C65       1.0  0.12470  0.51192  0.85110  1.0000
  C   C66       1.0  0.48808  0.61278  0.85110  1.0000
  C   C67       1.0  0.72055  0.54197  0.51777  1.0000
  C   C68       1.0  0.45803  0.17859  0.51777  1.0000
  C   C69       1.0  0.82141  0.27945  0.51777  1.0000
  C   C70       1.0  0.05389  0.20863  0.18443  1.0000
  C   C71       1.0  0.79137  0.84525  0.18443  1.0000
  C   C72       1.0  0.15475  0.94611  0.18443  1.0000
  C   C73       1.0  0.62425  0.13282  0.22560  1.0000
  C   C74       1.0  0.86718  0.49143  0.22560  1.0000
  C   C75       1.0  0.50857  0.37575  0.22560  1.0000
  C   C76       1.0  0.29092  0.46615  0.55893  1.0000
  C   C77       1.0  0.53385  0.82476  0.55893  1.0000
  C   C78       1.0  0.17524  0.70908  0.55893  1.0000
  C   C79       1.0  0.95758  0.79949  0.89227  1.0000
  C   C80       1.0  0.20051  0.15810  0.89227  1.0000
  C   C81       1.0  0.84190  0.04242  0.89227  1.0000
  C   C82       1.0  0.37575  0.86718  0.77440  1.0000
  C   C83       1.0  0.13282  0.50857  0.77440  1.0000
  C   C84       1.0  0.49143  0.62425  0.77440  1.0000
  C   C85       1.0  0.70908  0.53385  0.44107  1.0000
  C   C86       1.0  0.46615  0.17524  0.44107  1.0000
  C   C87       1.0  0.82476  0.29092  0.44107  1.0000
  C   C88       1.0  0.04242  0.20051  0.10773  1.0000
  C   C89       1.0  0.79949  0.84190  0.10773  1.0000
  C   C90       1.0  0.15810  0.95758  0.10773  1.0000
  H   H19       1.0  0.63910  0.12540  0.24600  1.0000
  H   H20       1.0  0.87460  0.51370  0.24600  1.0000
  H   H21       1.0  0.48630  0.36090  0.24600  1.0000
  H   H22       1.0  0.30577  0.45873  0.57933  1.0000
  H   H23       1.0  0.54127  0.84703  0.57933  1.0000
  H   H24       1.0  0.15297  0.69423  0.57933  1.0000
  H   H25       1.0  0.97243  0.79207  0.91267  1.0000
  H   H26       1.0  0.20793  0.18037  0.91267  1.0000
  H   H27       1.0  0.81963  0.02757  0.91267  1.0000
  H   H28       1.0  0.36090  0.87460  0.75400  1.0000
  H   H29       1.0  0.12540  0.48630  0.75400  1.0000
  H   H30       1.0  0.51370  0.63910  0.75400  1.0000
  H   H31       1.0  0.69423  0.54127  0.42067  1.0000
  H   H32       1.0  0.45873  0.15297  0.42067  1.0000
  H   H33       1.0  0.84703  0.30577  0.42067  1.0000
  H   H34       1.0  0.02757  0.20793  0.08733  1.0000
  H   H35       1.0  0.79207  0.81963  0.08733  1.0000
  H   H36       1.0  0.18037  0.97243  0.08733  1.0000
  C   C91       1.0  0.61351  0.15213  0.27270  1.0000
  C   C92       1.0  0.84787  0.46138  0.27270  1.0000
  C   C93       1.0  0.53862  0.38649  0.27270  1.0000
  C   C94       1.0  0.28018  0.48546  0.60603  1.0000
  C   C95       1.0  0.51454  0.79471  0.60603  1.0000
  C   C96       1.0  0.20529  0.71982  0.60603  1.0000
  C   C97       1.0  0.94684  0.81880  0.93937  1.0000
  C   C98       1.0  0.18120  0.12805  0.93937  1.0000
  C   C99       1.0  0.87195  0.05316  0.93937  1.0000
  C   C100      1.0  0.38649  0.84787  0.72730  1.0000
  C   C101      1.0  0.15213  0.53862  0.72730  1.0000
  C   C102      1.0  0.46138  0.61351  0.72730  1.0000
  C   C103      1.0  0.71982  0.51454  0.39397  1.0000
  C   C104      1.0  0.48546  0.20529  0.39397  1.0000
  C   C105      1.0  0.79471  0.28018  0.39397  1.0000
  C   C106      1.0  0.05316  0.18120  0.06063  1.0000
  C   C107      1.0  0.81880  0.87195  0.06063  1.0000
  C   C108      1.0  0.12805  0.94684  0.06063  1.0000
  C   C109      1.0  0.58940  0.16065  0.24240  1.0000
  C   C110      1.0  0.83935  0.42875  0.24240  1.0000
  C   C111      1.0  0.57125  0.41060  0.24240  1.0000
  C   C112      1.0  0.25607  0.49398  0.57573  1.0000
  C   C113      1.0  0.50602  0.76208  0.57573  1.0000
  C   C114      1.0  0.23792  0.74393  0.57573  1.0000
  C   C115      1.0  0.92273  0.82732  0.90907  1.0000
  C   C116      1.0  0.17268  0.09542  0.90907  1.0000
  C   C117      1.0  0.90458  0.07727  0.90907  1.0000
  C   C118      1.0  0.41060  0.83935  0.75760  1.0000
  C   C119      1.0  0.16065  0.57125  0.75760  1.0000
  C   C120      1.0  0.42875  0.58940  0.75760  1.0000
  C   C121      1.0  0.74393  0.50602  0.42427  1.0000
  C   C122      1.0  0.49398  0.23792  0.42427  1.0000
  C   C123      1.0  0.76208  0.25607  0.42427  1.0000
  C   C124      1.0  0.07727  0.17268  0.09093  1.0000
  C   C125      1.0  0.82732  0.90458  0.09093  1.0000
  C   C126      1.0  0.09542  0.92273  0.09093  1.0000
  H   H37       1.0  0.58130  0.17260  0.27300  1.0000
  H   H38       1.0  0.82740  0.40870  0.27300  1.0000
  H   H39       1.0  0.59130  0.41870  0.27300  1.0000
  H   H40       1.0  0.24797  0.50593  0.60633  1.0000
  H   H41       1.0  0.49407  0.74203  0.60633  1.0000
  H   H42       1.0  0.25797  0.75203  0.60633  1.0000
  H   H43       1.0  0.91463  0.83927  0.93967  1.0000
  H   H44       1.0  0.16073  0.07537  0.93967  1.0000
  H   H45       1.0  0.92463  0.08537  0.93967  1.0000
  H   H46       1.0  0.41870  0.82740  0.72700  1.0000
  H   H47       1.0  0.17260  0.59130  0.72700  1.0000
  H   H48       1.0  0.40870  0.58130  0.72700  1.0000
  H   H49       1.0  0.75203  0.49407  0.39367  1.0000
  H   H50       1.0  0.50593  0.25797  0.39367  1.0000
  H   H51       1.0  0.74203  0.24797  0.39367  1.0000
  H   H52       1.0  0.08537  0.16073  0.06033  1.0000
  H   H53       1.0  0.83927  0.92463  0.06033  1.0000
  H   H54       1.0  0.07537  0.91463  0.06033  1.0000
  C   C127      1.0  0.62670  0.10647  0.09720  1.0000
  C   C128      1.0  0.89353  0.52023  0.09720  1.0000
  C   C129      1.0  0.47977  0.37330  0.09720  1.0000
  C   C130      1.0  0.29337  0.43980  0.43053  1.0000
  C   C131      1.0  0.56020  0.85356  0.43053  1.0000
  C   C132      1.0  0.14644  0.70663  0.43053  1.0000
  C   C133      1.0  0.96003  0.77314  0.76387  1.0000
  C   C134      1.0  0.22686  0.18690  0.76387  1.0000
  C   C135      1.0  0.81310  0.03997  0.76387  1.0000
  C   C136      1.0  0.37330  0.89353  0.90280  1.0000
  C   C137      1.0  0.10647  0.47977  0.90280  1.0000
  C   C138      1.0  0.52023  0.62670  0.90280  1.0000
  C   C139      1.0  0.70663  0.56020  0.56947  1.0000
  C   C140      1.0  0.43980  0.14644  0.56947  1.0000
  C   C141      1.0  0.85356  0.29337  0.56947  1.0000
  C   C142      1.0  0.03997  0.22686  0.23613  1.0000
  C   C143      1.0  0.77314  0.81310  0.23613  1.0000
  C   C144      1.0  0.18690  0.96003  0.23613  1.0000
  C   C145      1.0  0.62670  0.16077  0.35290  1.0000
  C   C146      1.0  0.83923  0.46593  0.35290  1.0000
  C   C147      1.0  0.53407  0.37330  0.35290  1.0000
  C   C148      1.0  0.29337  0.49410  0.68623  1.0000
  C   C149      1.0  0.50590  0.79926  0.68623  1.0000
  C   C150      1.0  0.20074  0.70663  0.68623  1.0000
  C   C151      1.0  0.96003  0.82744  0.01957  1.0000
  C   C152      1.0  0.17256  0.13260  0.01957  1.0000
  C   C153      1.0  0.86740  0.03997  0.01957  1.0000
  C   C154      1.0  0.37330  0.83923  0.64710  1.0000
  C   C155      1.0  0.16077  0.53407  0.64710  1.0000
  C   C156      1.0  0.46593  0.62670  0.64710  1.0000
  C   C157      1.0  0.70663  0.50590  0.31377  1.0000
  C   C158      1.0  0.49410  0.20074  0.31377  1.0000
  C   C159      1.0  0.79926  0.29337  0.31377  1.0000
  C   C160      1.0  0.03997  0.17256  0.98043  1.0000
  C   C161      1.0  0.82744  0.86740  0.98043  1.0000
  C   C162      1.0  0.13260  0.96003  0.98043  1.0000
  C   C163      1.0  0.44650  0.10951  0.08610  1.0000
  C   C164      1.0  0.89049  0.33699  0.08610  1.0000
  C   C165      1.0  0.66301  0.55350  0.08610  1.0000
  C   C166      1.0  0.11317  0.44284  0.41943  1.0000
  C   C167      1.0  0.55716  0.67032  0.41943  1.0000
  C   C168      1.0  0.32968  0.88683  0.41943  1.0000
  C   C169      1.0  0.77983  0.77618  0.75277  1.0000
  C   C170      1.0  0.22382  0.00366  0.75277  1.0000
  C   C171      1.0  0.99634  0.22017  0.75277  1.0000
  C   C172      1.0  0.55350  0.89049  0.91390  1.0000
  C   C173      1.0  0.10951  0.66301  0.91390  1.0000
  C   C174      1.0  0.33699  0.44650  0.91390  1.0000
  C   C175      1.0  0.88683  0.55716  0.58057  1.0000
  C   C176      1.0  0.44284  0.32968  0.58057  1.0000
  C   C177      1.0  0.67032  0.11317  0.58057  1.0000
  C   C178      1.0  0.22017  0.22382  0.24723  1.0000
  C   C179      1.0  0.77618  0.99634  0.24723  1.0000
  C   C180      1.0  0.00366  0.77983  0.24723  1.0000
  C   C181      1.0  0.41253  0.07502  0.09290  1.0000
  C   C182      1.0  0.92498  0.33751  0.09290  1.0000
  C   C183      1.0  0.66249  0.58747  0.09290  1.0000
  C   C184      1.0  0.07920  0.40835  0.42623  1.0000
  C   C185      1.0  0.59165  0.67084  0.42623  1.0000
  C   C186      1.0  0.32916  0.92080  0.42623  1.0000
  C   C187      1.0  0.74586  0.74169  0.75957  1.0000
  C   C188      1.0  0.25831  0.00418  0.75957  1.0000
  C   C189      1.0  0.99582  0.25414  0.75957  1.0000
  C   C190      1.0  0.58747  0.92498  0.90710  1.0000
  C   C191      1.0  0.07502  0.66249  0.90710  1.0000
  C   C192      1.0  0.33751  0.41253  0.90710  1.0000
  C   C193      1.0  0.92080  0.59165  0.57377  1.0000
  C   C194      1.0  0.40835  0.32916  0.57377  1.0000
  C   C195      1.0  0.67084  0.07920  0.57377  1.0000
  C   C196      1.0  0.25414  0.25831  0.24043  1.0000
  C   C197      1.0  0.74169  0.99582  0.24043  1.0000
  C   C198      1.0  0.00418  0.74586  0.24043  1.0000
  C   C199      1.0  0.38655  0.07190  0.14290  1.0000
  C   C200      1.0  0.92810  0.31465  0.14290  1.0000
  C   C201      1.0  0.68535  0.61345  0.14290  1.0000
  C   C202      1.0  0.05322  0.40523  0.47623  1.0000
  C   C203      1.0  0.59477  0.64798  0.47623  1.0000
  C   C204      1.0  0.35202  0.94678  0.47623  1.0000
  C   C205      1.0  0.71988  0.73857  0.80957  1.0000
  C   C206      1.0  0.26143  0.98132  0.80957  1.0000
  C   C207      1.0  0.01868  0.28012  0.80957  1.0000
  C   C208      1.0  0.61345  0.92810  0.85710  1.0000
  C   C209      1.0  0.07190  0.68535  0.85710  1.0000
  C   C210      1.0  0.31465  0.38655  0.85710  1.0000
  C   C211      1.0  0.94678  0.59477  0.52377  1.0000
  C   C212      1.0  0.40523  0.35202  0.52377  1.0000
  C   C213      1.0  0.64798  0.05322  0.52377  1.0000
  C   C214      1.0  0.28012  0.26143  0.19043  1.0000
  C   C215      1.0  0.73857  0.01868  0.19043  1.0000
  C   C216      1.0  0.98132  0.71988  0.19043  1.0000
  H   H55       1.0  0.39080  0.09080  0.17470  1.0000
  H   H56       1.0  0.90920  0.30000  0.17470  1.0000
  H   H57       1.0  0.70000  0.60920  0.17470  1.0000
  H   H58       1.0  0.05747  0.42413  0.50803  1.0000
  H   H59       1.0  0.57587  0.63333  0.50803  1.0000
  H   H60       1.0  0.36667  0.94253  0.50803  1.0000
  H   H61       1.0  0.72413  0.75747  0.84137  1.0000
  H   H62       1.0  0.24253  0.96667  0.84137  1.0000
  H   H63       1.0  0.03333  0.27587  0.84137  1.0000
  H   H64       1.0  0.60920  0.90920  0.82530  1.0000
  H   H65       1.0  0.09080  0.70000  0.82530  1.0000
  H   H66       1.0  0.30000  0.39080  0.82530  1.0000
  H   H67       1.0  0.94253  0.57587  0.49197  1.0000
  H   H68       1.0  0.42413  0.36667  0.49197  1.0000
  H   H69       1.0  0.63333  0.05747  0.49197  1.0000
  H   H70       1.0  0.27587  0.24253  0.15863  1.0000
  H   H71       1.0  0.75747  0.03333  0.15863  1.0000
  H   H72       1.0  0.96667  0.72413  0.15863  1.0000
  C   C217      1.0  0.35446  0.04128  0.14650  1.0000
  C   C218      1.0  0.95872  0.31318  0.14650  1.0000
  C   C219      1.0  0.68682  0.64554  0.14650  1.0000
  C   C220      1.0  0.02113  0.37461  0.47983  1.0000
  C   C221      1.0  0.62539  0.64651  0.47983  1.0000
  C   C222      1.0  0.35349  0.97887  0.47983  1.0000
  C   C223      1.0  0.68779  0.70795  0.81317  1.0000
  C   C224      1.0  0.29205  0.97985  0.81317  1.0000
  C   C225      1.0  0.02015  0.31221  0.81317  1.0000
  C   C226      1.0  0.64554  0.95872  0.85350  1.0000
  C   C227      1.0  0.04128  0.68682  0.85350  1.0000
  C   C228      1.0  0.31318  0.35446  0.85350  1.0000
  C   C229      1.0  0.97887  0.62539  0.52017  1.0000
  C   C230      1.0  0.37461  0.35349  0.52017  1.0000
  C   C231      1.0  0.64651  0.02113  0.52017  1.0000
  C   C232      1.0  0.31221  0.29205  0.18683  1.0000
  C   C233      1.0  0.70795  0.02015  0.18683  1.0000
  C   C234      1.0  0.97985  0.68779  0.18683  1.0000
  C   C235      1.0  0.34925  0.01192  0.10280  1.0000
  C   C236      1.0  0.98808  0.33733  0.10280  1.0000
  C   C237      1.0  0.66267  0.65075  0.10280  1.0000
  C   C238      1.0  0.01592  0.34525  0.43613  1.0000
  C   C239      1.0  0.65475  0.67066  0.43613  1.0000
  C   C240      1.0  0.32934  0.98408  0.43613  1.0000
  C   C241      1.0  0.68258  0.67859  0.76947  1.0000
  C   C242      1.0  0.32141  0.00400  0.76947  1.0000
  C   C243      1.0  0.99600  0.31742  0.76947  1.0000
  C   C244      1.0  0.65075  0.98808  0.89720  1.0000
  C   C245      1.0  0.01192  0.66267  0.89720  1.0000
  C   C246      1.0  0.33733  0.34925  0.89720  1.0000
  C   C247      1.0  0.98408  0.65475  0.56387  1.0000
  C   C248      1.0  0.34525  0.32934  0.56387  1.0000
  C   C249      1.0  0.67066  0.01592  0.56387  1.0000
  C   C250      1.0  0.31742  0.32141  0.23053  1.0000
  C   C251      1.0  0.67859  0.99600  0.23053  1.0000
  C   C252      1.0  0.00400  0.68258  0.23053  1.0000
  H   H73       1.0  0.32800  0.99080  0.10620  1.0000
  H   H74       1.0  0.00920  0.33720  0.10620  1.0000
  H   H75       1.0  0.66280  0.67200  0.10620  1.0000
  H   H76       1.0  0.99467  0.32413  0.43953  1.0000
  H   H77       1.0  0.67587  0.67053  0.43953  1.0000
  H   H78       1.0  0.32947  0.00533  0.43953  1.0000
  H   H79       1.0  0.66133  0.65747  0.77287  1.0000
  H   H80       1.0  0.34253  0.00387  0.77287  1.0000
  H   H81       1.0  0.99613  0.33867  0.77287  1.0000
  H   H82       1.0  0.67200  0.00920  0.89380  1.0000
  H   H83       1.0  0.99080  0.66280  0.89380  1.0000
  H   H84       1.0  0.33720  0.32800  0.89380  1.0000
  H   H85       1.0  0.00533  0.67587  0.56047  1.0000
  H   H86       1.0  0.32413  0.32947  0.56047  1.0000
  H   H87       1.0  0.67053  0.99467  0.56047  1.0000
  H   H88       1.0  0.33867  0.34253  0.22713  1.0000
  H   H89       1.0  0.65747  0.99613  0.22713  1.0000
  H   H90       1.0  0.00387  0.66133  0.22713  1.0000
  C   C253      1.0  0.37581  0.01437  0.05450  1.0000
  C   C254      1.0  0.98563  0.36144  0.05450  1.0000
  C   C255      1.0  0.63856  0.62419  0.05450  1.0000
  C   C256      1.0  0.04248  0.34770  0.38783  1.0000
  C   C257      1.0  0.65230  0.69477  0.38783  1.0000
  C   C258      1.0  0.30523  0.95752  0.38783  1.0000
  C   C259      1.0  0.70914  0.68104  0.72117  1.0000
  C   C260      1.0  0.31896  0.02811  0.72117  1.0000
  C   C261      1.0  0.97189  0.29086  0.72117  1.0000
  C   C262      1.0  0.62419  0.98563  0.94550  1.0000
  C   C263      1.0  0.01437  0.63856  0.94550  1.0000
  C   C264      1.0  0.36144  0.37581  0.94550  1.0000
  C   C265      1.0  0.95752  0.65230  0.61217  1.0000
  C   C266      1.0  0.34770  0.30523  0.61217  1.0000
  C   C267      1.0  0.69477  0.04248  0.61217  1.0000
  C   C268      1.0  0.29086  0.31896  0.27883  1.0000
  C   C269      1.0  0.68104  0.97189  0.27883  1.0000
  C   C270      1.0  0.02811  0.70914  0.27883  1.0000
  C   C271      1.0  0.40733  0.04685  0.04870  1.0000
  C   C272      1.0  0.95315  0.36048  0.04870  1.0000
  C   C273      1.0  0.63952  0.59267  0.04870  1.0000
  C   C274      1.0  0.07400  0.38018  0.38203  1.0000
  C   C275      1.0  0.61982  0.69381  0.38203  1.0000
  C   C276      1.0  0.30619  0.92600  0.38203  1.0000
  C   C277      1.0  0.74066  0.71352  0.71537  1.0000
  C   C278      1.0  0.28648  0.02715  0.71537  1.0000
  C   C279      1.0  0.97285  0.25934  0.71537  1.0000
  C   C280      1.0  0.59267  0.95315  0.95130  1.0000
  C   C281      1.0  0.04685  0.63952  0.95130  1.0000
  C   C282      1.0  0.36048  0.40733  0.95130  1.0000
  C   C283      1.0  0.92600  0.61982  0.61797  1.0000
  C   C284      1.0  0.38018  0.30619  0.61797  1.0000
  C   C285      1.0  0.69381  0.07400  0.61797  1.0000
  C   C286      1.0  0.25934  0.28648  0.28463  1.0000
  C   C287      1.0  0.71352  0.97285  0.28463  1.0000
  C   C288      1.0  0.02715  0.74066  0.28463  1.0000
  H   H91       1.0  0.42480  0.04920  0.01450  1.0000
  H   H92       1.0  0.95080  0.37560  0.01450  1.0000
  H   H93       1.0  0.62440  0.57520  0.01450  1.0000
  H   H94       1.0  0.09147  0.38253  0.34783  1.0000
  H   H95       1.0  0.61747  0.70893  0.34783  1.0000
  H   H96       1.0  0.29107  0.90853  0.34783  1.0000
  H   H97       1.0  0.75813  0.71587  0.68117  1.0000
  H   H98       1.0  0.28413  0.04227  0.68117  1.0000
  H   H99       1.0  0.95773  0.24187  0.68117  1.0000
  H   H100      1.0  0.57520  0.95080  0.98550  1.0000
  H   H101      1.0  0.04920  0.62440  0.98550  1.0000
  H   H102      1.0  0.37560  0.42480  0.98550  1.0000
  H   H103      1.0  0.90853  0.61747  0.65217  1.0000
  H   H104      1.0  0.38253  0.29107  0.65217  1.0000
  H   H105      1.0  0.70893  0.09147  0.65217  1.0000
  H   H106      1.0  0.24187  0.28413  0.31883  1.0000
  H   H107      1.0  0.71587  0.95773  0.31883  1.0000
  H   H108      1.0  0.04227  0.75813  0.31883  1.0000
  C   C289      1.0  0.32571  0.03906  0.19770  1.0000
  C   C290      1.0  0.96094  0.28665  0.19770  1.0000
  C   C291      1.0  0.71335  0.67429  0.19770  1.0000
  C   C292      1.0  0.99238  0.37239  0.53103  1.0000
  C   C293      1.0  0.62761  0.61998  0.53103  1.0000
  C   C294      1.0  0.38002  0.00762  0.53103  1.0000
  C   C295      1.0  0.65904  0.70573  0.86437  1.0000
  C   C296      1.0  0.29427  0.95332  0.86437  1.0000
  C   C297      1.0  0.04668  0.34096  0.86437  1.0000
  C   C298      1.0  0.67429  0.96094  0.80230  1.0000
  C   C299      1.0  0.03906  0.71335  0.80230  1.0000
  C   C300      1.0  0.28665  0.32571  0.80230  1.0000
  C   C301      1.0  0.00762  0.62761  0.46897  1.0000
  C   C302      1.0  0.37239  0.38002  0.46897  1.0000
  C   C303      1.0  0.61998  0.99238  0.46897  1.0000
  C   C304      1.0  0.34096  0.29427  0.13563  1.0000
  C   C305      1.0  0.70573  0.04668  0.13563  1.0000
  C   C306      1.0  0.95332  0.65904  0.13563  1.0000
  C   C307      1.0  0.37099  0.98276  0.00920  1.0000
  C   C308      1.0  0.01724  0.38823  0.00920  1.0000
  C   C309      1.0  0.61177  0.62901  0.00920  1.0000
  C   C310      1.0  0.03766  0.31609  0.34253  1.0000
  C   C311      1.0  0.68391  0.72156  0.34253  1.0000
  C   C312      1.0  0.27844  0.96234  0.34253  1.0000
  C   C313      1.0  0.70432  0.64943  0.67587  1.0000
  C   C314      1.0  0.35057  0.05490  0.67587  1.0000
  C   C315      1.0  0.94510  0.29568  0.67587  1.0000
  C   C316      1.0  0.62901  0.01724  0.99080  1.0000
  C   C317      1.0  0.98276  0.61177  0.99080  1.0000
  C   C318      1.0  0.38823  0.37099  0.99080  1.0000
  C   C319      1.0  0.96234  0.68391  0.65747  1.0000
  C   C320      1.0  0.31609  0.27844  0.65747  1.0000
  C   C321      1.0  0.72156  0.03766  0.65747  1.0000
  C   C322      1.0  0.29568  0.35057  0.32413  1.0000
  C   C323      1.0  0.64943  0.94510  0.32413  1.0000
  C   C324      1.0  0.05490  0.70432  0.32413  1.0000
  C   C325      1.0  0.49260  0.21048  0.03330  1.0000
  C   C326      1.0  0.78952  0.28212  0.03330  1.0000
  C   C327      1.0  0.71788  0.50740  0.03330  1.0000
  C   C328      1.0  0.15927  0.54381  0.36663  1.0000
  C   C329      1.0  0.45619  0.61545  0.36663  1.0000
  C   C330      1.0  0.38455  0.84073  0.36663  1.0000
  C   C331      1.0  0.82593  0.87715  0.69997  1.0000
  C   C332      1.0  0.12285  0.94879  0.69997  1.0000
  C   C333      1.0  0.05121  0.17407  0.69997  1.0000
  C   C334      1.0  0.50740  0.78952  0.96670  1.0000
  C   C335      1.0  0.21048  0.71788  0.96670  1.0000
  C   C336      1.0  0.28212  0.49260  0.96670  1.0000
  C   C337      1.0  0.84073  0.45619  0.63337  1.0000
  C   C338      1.0  0.54381  0.38455  0.63337  1.0000
  C   C339      1.0  0.61545  0.15927  0.63337  1.0000
  C   C340      1.0  0.17407  0.12285  0.30003  1.0000
  C   C341      1.0  0.87715  0.05121  0.30003  1.0000
  C   C342      1.0  0.94879  0.82593  0.30003  1.0000
  C   C343      1.0  0.48121  0.23452  0.99770  1.0000
  C   C344      1.0  0.76548  0.24669  0.99770  1.0000
  C   C345      1.0  0.75331  0.51879  0.99770  1.0000
  C   C346      1.0  0.14788  0.56785  0.33103  1.0000
  C   C347      1.0  0.43215  0.58002  0.33103  1.0000
  C   C348      1.0  0.41998  0.85212  0.33103  1.0000
  C   C349      1.0  0.81454  0.90119  0.66437  1.0000
  C   C350      1.0  0.09881  0.91336  0.66437  1.0000
  C   C351      1.0  0.08664  0.18546  0.66437  1.0000
  C   C352      1.0  0.51879  0.76548  0.00230  1.0000
  C   C353      1.0  0.23452  0.75331  0.00230  1.0000
  C   C354      1.0  0.24669  0.48121  0.00230  1.0000
  C   C355      1.0  0.85212  0.43215  0.66897  1.0000
  C   C356      1.0  0.56785  0.41998  0.66897  1.0000
  C   C357      1.0  0.58002  0.14788  0.66897  1.0000
  C   C358      1.0  0.18546  0.09881  0.33563  1.0000
  C   C359      1.0  0.90119  0.08664  0.33563  1.0000
  C   C360      1.0  0.91336  0.81454  0.33563  1.0000
  C   C361      1.0  0.46201  0.24585  0.04000  1.0000
  C   C362      1.0  0.75415  0.21616  0.04000  1.0000
  C   C363      1.0  0.78384  0.53799  0.04000  1.0000
  C   C364      1.0  0.12868  0.57918  0.37333  1.0000
  C   C365      1.0  0.42082  0.54949  0.37333  1.0000
  C   C366      1.0  0.45051  0.87132  0.37333  1.0000
  C   C367      1.0  0.79534  0.91252  0.70667  1.0000
  C   C368      1.0  0.08748  0.88283  0.70667  1.0000
  C   C369      1.0  0.11717  0.20466  0.70667  1.0000
  C   C370      1.0  0.53799  0.75415  0.96000  1.0000
  C   C371      1.0  0.24585  0.78384  0.96000  1.0000
  C   C372      1.0  0.21616  0.46201  0.96000  1.0000
  C   C373      1.0  0.87132  0.42082  0.62667  1.0000
  C   C374      1.0  0.57918  0.45051  0.62667  1.0000
  C   C375      1.0  0.54949  0.12868  0.62667  1.0000
  C   C376      1.0  0.20466  0.08748  0.29333  1.0000
  C   C377      1.0  0.91252  0.11717  0.29333  1.0000
  C   C378      1.0  0.88283  0.79534  0.29333  1.0000
  H   H109      1.0  0.45740  0.23980  0.09220  1.0000
  H   H110      1.0  0.76020  0.21760  0.09220  1.0000
  H   H111      1.0  0.78240  0.54260  0.09220  1.0000
  H   H112      1.0  0.12407  0.57313  0.42553  1.0000
  H   H113      1.0  0.42687  0.55093  0.42553  1.0000
  H   H114      1.0  0.44907  0.87593  0.42553  1.0000
  H   H115      1.0  0.79073  0.90647  0.75887  1.0000
  H   H116      1.0  0.09353  0.88427  0.75887  1.0000
  H   H117      1.0  0.11573  0.20927  0.75887  1.0000
  H   H118      1.0  0.54260  0.76020  0.90780  1.0000
  H   H119      1.0  0.23980  0.78240  0.90780  1.0000
  H   H120      1.0  0.21760  0.45740  0.90780  1.0000
  H   H121      1.0  0.87593  0.42687  0.57447  1.0000
  H   H122      1.0  0.57313  0.44907  0.57447  1.0000
  H   H123      1.0  0.55093  0.12407  0.57447  1.0000
  H   H124      1.0  0.20927  0.09353  0.24113  1.0000
  H   H125      1.0  0.90647  0.11573  0.24113  1.0000
  H   H126      1.0  0.88427  0.79073  0.24113  1.0000
  C   C379      1.0  0.44982  0.26557  0.00700  1.0000
  C   C380      1.0  0.73443  0.18425  0.00700  1.0000
  C   C381      1.0  0.81575  0.55018  0.00700  1.0000
  C   C382      1.0  0.11649  0.59890  0.34033  1.0000
  C   C383      1.0  0.40110  0.51758  0.34033  1.0000
  C   C384      1.0  0.48242  0.88351  0.34033  1.0000
  C   C385      1.0  0.78315  0.93224  0.67367  1.0000
  C   C386      1.0  0.06776  0.85092  0.67367  1.0000
  C   C387      1.0  0.14908  0.21685  0.67367  1.0000
  C   C388      1.0  0.55018  0.73443  0.99300  1.0000
  C   C389      1.0  0.26557  0.81575  0.99300  1.0000
  C   C390      1.0  0.18425  0.44982  0.99300  1.0000
  C   C391      1.0  0.88351  0.40110  0.65967  1.0000
  C   C392      1.0  0.59890  0.48242  0.65967  1.0000
  C   C393      1.0  0.51758  0.11649  0.65967  1.0000
  C   C394      1.0  0.21685  0.06776  0.32633  1.0000
  C   C395      1.0  0.93224  0.14908  0.32633  1.0000
  C   C396      1.0  0.85092  0.78315  0.32633  1.0000
  C   C397      1.0  0.47730  0.26580  0.88710  1.0000
  C   C398      1.0  0.73420  0.21150  0.88710  1.0000
  C   C399      1.0  0.78850  0.52270  0.88710  1.0000
  C   C400      1.0  0.14397  0.59913  0.22043  1.0000
  C   C401      1.0  0.40087  0.54483  0.22043  1.0000
  C   C402      1.0  0.45517  0.85603  0.22043  1.0000
  C   C403      1.0  0.81063  0.93247  0.55377  1.0000
  C   C404      1.0  0.06753  0.87817  0.55377  1.0000
  C   C405      1.0  0.12183  0.18937  0.55377  1.0000
  C   C406      1.0  0.52270  0.73420  0.11290  1.0000
  C   C407      1.0  0.26580  0.78850  0.11290  1.0000
  C   C408      1.0  0.21150  0.47730  0.11290  1.0000
  C   C409      1.0  0.85603  0.40087  0.77957  1.0000
  C   C410      1.0  0.59913  0.45517  0.77957  1.0000
  C   C411      1.0  0.54483  0.14397  0.77957  1.0000
  C   C412      1.0  0.18937  0.06753  0.44623  1.0000
  C   C413      1.0  0.93247  0.12183  0.44623  1.0000
  C   C414      1.0  0.87817  0.81063  0.44623  1.0000
  C   C415      1.0  0.45790  0.27640  0.93050  1.0000
  C   C416      1.0  0.72360  0.18150  0.93050  1.0000
  C   C417      1.0  0.81850  0.54210  0.93050  1.0000
  C   C418      1.0  0.12457  0.60973  0.26383  1.0000
  C   C419      1.0  0.39027  0.51483  0.26383  1.0000
  C   C420      1.0  0.48517  0.87543  0.26383  1.0000
  C   C421      1.0  0.79123  0.94307  0.59717  1.0000
  C   C422      1.0  0.05693  0.84817  0.59717  1.0000
  C   C423      1.0  0.15183  0.20877  0.59717  1.0000
  C   C424      1.0  0.54210  0.72360  0.06950  1.0000
  C   C425      1.0  0.27640  0.81850  0.06950  1.0000
  C   C426      1.0  0.18150  0.45790  0.06950  1.0000
  C   C427      1.0  0.87543  0.39027  0.73617  1.0000
  C   C428      1.0  0.60973  0.48517  0.73617  1.0000
  C   C429      1.0  0.51483  0.12457  0.73617  1.0000
  C   C430      1.0  0.20877  0.05693  0.40283  1.0000
  C   C431      1.0  0.94307  0.15183  0.40283  1.0000
  C   C432      1.0  0.84817  0.79123  0.40283  1.0000
  H   H127      1.0  0.45020  0.29070  0.90840  1.0000
  H   H128      1.0  0.70930  0.15950  0.90840  1.0000
  H   H129      1.0  0.84050  0.54980  0.90840  1.0000
  H   H130      1.0  0.11687  0.62403  0.24173  1.0000
  H   H131      1.0  0.37597  0.49283  0.24173  1.0000
  H   H132      1.0  0.50717  0.88313  0.24173  1.0000
  H   H133      1.0  0.78353  0.95737  0.57507  1.0000
  H   H134      1.0  0.04263  0.82617  0.57507  1.0000
  H   H135      1.0  0.17383  0.21647  0.57507  1.0000
  H   H136      1.0  0.54980  0.70930  0.09160  1.0000
  H   H137      1.0  0.29070  0.84050  0.09160  1.0000
  H   H138      1.0  0.15950  0.45020  0.09160  1.0000
  H   H139      1.0  0.88313  0.37597  0.75827  1.0000
  H   H140      1.0  0.62403  0.50717  0.75827  1.0000
  H   H141      1.0  0.49283  0.11687  0.75827  1.0000
  H   H142      1.0  0.21647  0.04263  0.42493  1.0000
  H   H143      1.0  0.95737  0.17383  0.42493  1.0000
  H   H144      1.0  0.82617  0.78353  0.42493  1.0000
  C   C433      1.0  0.48970  0.24540  0.92020  1.0000
  C   C434      1.0  0.75460  0.24430  0.92020  1.0000
  C   C435      1.0  0.75570  0.51030  0.92020  1.0000
  C   C436      1.0  0.15637  0.57873  0.25353  1.0000
  C   C437      1.0  0.42127  0.57763  0.25353  1.0000
  C   C438      1.0  0.42237  0.84363  0.25353  1.0000
  C   C439      1.0  0.82303  0.91207  0.58687  1.0000
  C   C440      1.0  0.08793  0.91097  0.58687  1.0000
  C   C441      1.0  0.08903  0.17697  0.58687  1.0000
  C   C442      1.0  0.51030  0.75460  0.07980  1.0000
  C   C443      1.0  0.24540  0.75570  0.07980  1.0000
  C   C444      1.0  0.24430  0.48970  0.07980  1.0000
  C   C445      1.0  0.84363  0.42127  0.74647  1.0000
  C   C446      1.0  0.57873  0.42237  0.74647  1.0000
  C   C447      1.0  0.57763  0.15637  0.74647  1.0000
  C   C448      1.0  0.17697  0.08793  0.41313  1.0000
  C   C449      1.0  0.91207  0.08903  0.41313  1.0000
  C   C450      1.0  0.91097  0.82303  0.41313  1.0000
  H   H145      1.0  0.50350  0.23880  0.89140  1.0000
  H   H146      1.0  0.76120  0.26470  0.89140  1.0000
  H   H147      1.0  0.73530  0.49650  0.89140  1.0000
  H   H148      1.0  0.17017  0.57213  0.22473  1.0000
  H   H149      1.0  0.42787  0.59803  0.22473  1.0000
  H   H150      1.0  0.40197  0.82983  0.22473  1.0000
  H   H151      1.0  0.83683  0.90547  0.55807  1.0000
  H   H152      1.0  0.09453  0.93137  0.55807  1.0000
  H   H153      1.0  0.06863  0.16317  0.55807  1.0000
  H   H154      1.0  0.49650  0.76120  0.10860  1.0000
  H   H155      1.0  0.23880  0.73530  0.10860  1.0000
  H   H156      1.0  0.26470  0.50350  0.10860  1.0000
  H   H157      1.0  0.82983  0.42787  0.77527  1.0000
  H   H158      1.0  0.57213  0.40197  0.77527  1.0000
  H   H159      1.0  0.59803  0.17017  0.77527  1.0000
  H   H160      1.0  0.16317  0.09453  0.44193  1.0000
  H   H161      1.0  0.90547  0.06863  0.44193  1.0000
  H   H162      1.0  0.93137  0.83683  0.44193  1.0000
  C   C451      1.0  0.48860  0.28020  0.80520  1.0000
  C   C452      1.0  0.71980  0.20840  0.80520  1.0000
  C   C453      1.0  0.79160  0.51140  0.80520  1.0000
  C   C454      1.0  0.15527  0.61353  0.13853  1.0000
  C   C455      1.0  0.38647  0.54173  0.13853  1.0000
  C   C456      1.0  0.45827  0.84473  0.13853  1.0000
  C   C457      1.0  0.82193  0.94687  0.47187  1.0000
  C   C458      1.0  0.05313  0.87507  0.47187  1.0000
  C   C459      1.0  0.12493  0.17807  0.47187  1.0000
  C   C460      1.0  0.51140  0.71980  0.19480  1.0000
  C   C461      1.0  0.28020  0.79160  0.19480  1.0000
  C   C462      1.0  0.20840  0.48860  0.19480  1.0000
  C   C463      1.0  0.84473  0.38647  0.86147  1.0000
  C   C464      1.0  0.61353  0.45827  0.86147  1.0000
  C   C465      1.0  0.54173  0.15527  0.86147  1.0000
  C   C466      1.0  0.17807  0.05313  0.52813  1.0000
  C   C467      1.0  0.94687  0.12493  0.52813  1.0000
  C   C468      1.0  0.87507  0.82193  0.52813  1.0000
  C   C469      1.0  0.42903  0.27891  0.05550  1.0000
  C   C470      1.0  0.72109  0.15012  0.05550  1.0000
  C   C471      1.0  0.84988  0.57097  0.05550  1.0000
  C   C472      1.0  0.09570  0.61224  0.38883  1.0000
  C   C473      1.0  0.38776  0.48345  0.38883  1.0000
  C   C474      1.0  0.51655  0.90430  0.38883  1.0000
  C   C475      1.0  0.76236  0.94558  0.72217  1.0000
  C   C476      1.0  0.05442  0.81679  0.72217  1.0000
  C   C477      1.0  0.18321  0.23764  0.72217  1.0000
  C   C478      1.0  0.57097  0.72109  0.94450  1.0000
  C   C479      1.0  0.27891  0.84988  0.94450  1.0000
  C   C480      1.0  0.15012  0.42903  0.94450  1.0000
  C   C481      1.0  0.90430  0.38776  0.61117  1.0000
  C   C482      1.0  0.61224  0.51655  0.61117  1.0000
  C   C483      1.0  0.48345  0.09570  0.61117  1.0000
  C   C484      1.0  0.23764  0.05442  0.27783  1.0000
  C   C485      1.0  0.94558  0.18321  0.27783  1.0000
  C   C486      1.0  0.81679  0.76236  0.27783  1.0000
