data_image0
_chemical_formula_structural       Ag8S4O28N8C2H6C4H2C2H2C4H6C4H2C4H2C4H2C8H2C4H2C4H2C6H6C4H2C2H2C4H6
_chemical_formula_sum              "Ag8 S4 O28 N8 C56 H44"
_cell_length_a       10.9906
_cell_length_b       16.5961
_cell_length_c       17.532
_cell_angle_alpha    103.22
_cell_angle_beta     107.83
_cell_angle_gamma    90.47

_space_group_name_H-M_alt    "P 1"
_space_group_IT_number       1

loop_
  _space_group_symop_operation_xyz
  'x, y, z'

loop_
  _atom_site_type_symbol
  _atom_site_label
  _atom_site_symmetry_multiplicity
  _atom_site_fract_x
  _atom_site_fract_y
  _atom_site_fract_z
  _atom_site_occupancy
  Ag  Ag1       1.0  0.98851  0.68671  0.37394  1.0000
  Ag  Ag2       1.0  0.01149  0.31329  0.62606  1.0000
  Ag  Ag3       1.0  0.78520  0.30539  0.45930  1.0000
  Ag  Ag4       1.0  0.21480  0.69461  0.54070  1.0000
  Ag  Ag5       1.0  0.72606  0.19096  0.54191  1.0000
  Ag  Ag6       1.0  0.27394  0.80904  0.45809  1.0000
  Ag  Ag7       1.0  0.50176  0.81212  0.62127  1.0000
  Ag  Ag8       1.0  0.49824  0.18788  0.37873  1.0000
  S   S1        1.0  0.37162  0.45041  0.79272  1.0000
  S   S2        1.0  0.62838  0.54959  0.20728  1.0000
  S   S3        1.0  0.16429  0.05289  0.21863  1.0000
  S   S4        1.0  0.83571  0.94711  0.78137  1.0000
  O   O1        1.0  0.43930  0.70380  0.65870  1.0000
  O   O2        1.0  0.56070  0.29620  0.34130  1.0000
  O   O3        1.0  0.59200  0.66830  0.60180  1.0000
  O   O4        1.0  0.40800  0.33170  0.39820  1.0000
  O   O5        1.0  0.69550  0.38200  0.54470  1.0000
  O   O6        1.0  0.30450  0.61800  0.45530  1.0000
  O   O7        1.0  0.61520  0.28660  0.59220  1.0000
  O   O8        1.0  0.38480  0.71340  0.40780  1.0000
  O   O9        1.0  0.30400  0.52170  0.81240  1.0000
  O   O10       1.0  0.69600  0.47830  0.18760  1.0000
  O   O11       1.0  0.47560  0.44010  0.86290  1.0000
  O   O12       1.0  0.52440  0.55990  0.13710  1.0000
  O   O13       1.0  0.28930  0.37430  0.75140  1.0000
  O   O14       1.0  0.71070  0.62570  0.24860  1.0000
  O   O15       1.0  0.90720  0.21390  0.41430  1.0000
  O   O16       1.0  0.09280  0.78610  0.58570  1.0000
  O   O17       1.0  0.81950  0.11650  0.45600  1.0000
  O   O18       1.0  0.18050  0.88350  0.54400  1.0000
  O   O19       1.0  0.90290  0.82900  0.38670  1.0000
  O   O20       1.0  0.09710  0.17100  0.61330  1.0000
  O   O21       1.0  0.05970  0.79200  0.33470  1.0000
  O   O22       1.0  0.94030  0.20800  0.66530  1.0000
  O   O23       1.0  0.24960  0.98760  0.21070  1.0000
  O   O24       1.0  0.75040  0.01240  0.78930  1.0000
  O   O25       1.0  0.06820  0.05490  0.14120  1.0000
  O   O26       1.0  0.93180  0.94510  0.85880  1.0000
  O   O27       1.0  0.23210  0.13420  0.26150  1.0000
  O   O28       1.0  0.76790  0.86580  0.73850  1.0000
  N   N1        1.0  0.92930  0.57120  0.39560  1.0000
  N   N2        1.0  0.07070  0.42880  0.60440  1.0000
  N   N3        1.0  0.84680  0.42640  0.42500  1.0000
  N   N4        1.0  0.15320  0.57360  0.57500  1.0000
  N   N5        1.0  0.56160  0.92670  0.59890  1.0000
  N   N6        1.0  0.43840  0.07330  0.40110  1.0000
  N   N7        1.0  0.65620  0.07120  0.57470  1.0000
  N   N8        1.0  0.34380  0.92880  0.42530  1.0000
  C   C1        1.0  0.80620  0.65520  0.47380  1.0000
  C   C2        1.0  0.19380  0.34480  0.52620  1.0000
  H   H1        1.0  0.88160  0.69350  0.50760  1.0000
  H   H2        1.0  0.11840  0.30650  0.49240  1.0000
  H   H3        1.0  0.75310  0.64780  0.50800  1.0000
  H   H4        1.0  0.24690  0.35220  0.49200  1.0000
  H   H5        1.0  0.75620  0.67810  0.42820  1.0000
  H   H6        1.0  0.24380  0.32190  0.57180  1.0000
  C   C3        1.0  0.84850  0.57310  0.43990  1.0000
  C   C4        1.0  0.15150  0.42690  0.56010  1.0000
  C   C5        1.0  0.80980  0.49930  0.45380  1.0000
  C   C6        1.0  0.19020  0.50070  0.54620  1.0000
  H   H7        1.0  0.75350  0.50150  0.48590  1.0000
  H   H8        1.0  0.24650  0.49850  0.51410  1.0000
  C   C7        1.0  0.92510  0.42640  0.37880  1.0000
  C   C8        1.0  0.07490  0.57360  0.62120  1.0000
  H   H9        1.0  0.95340  0.37520  0.35610  1.0000
  H   H10       1.0  0.04660  0.62480  0.64390  1.0000
  C   C9        1.0  0.96550  0.49830  0.36330  1.0000
  C   C10       1.0  0.03450  0.50170  0.63670  1.0000
  C   C11       1.0  0.05440  0.49620  0.31250  1.0000
  C   C12       1.0  0.94560  0.50380  0.68750  1.0000
  H   H11       1.0  0.00640  0.50410  0.25790  1.0000
  H   H12       1.0  0.99360  0.49590  0.74210  1.0000
  H   H13       1.0  0.09110  0.44240  0.30620  1.0000
  H   H14       1.0  0.90890  0.55760  0.69380  1.0000
  H   H15       1.0  0.12360  0.54080  0.34030  1.0000
  H   H16       1.0  0.87640  0.45920  0.65970  1.0000
  C   C13       1.0  0.00010  0.93080  0.34390  1.0000
  C   C14       1.0  0.99990  0.06920  0.65610  1.0000
  C   C15       1.0  0.94270  0.99440  0.38390  1.0000
  C   C16       1.0  0.05730  0.00560  0.61610  1.0000
  H   H17       1.0  0.89440  0.98220  0.41710  1.0000
  H   H18       1.0  0.10560  0.01780  0.58290  1.0000
  C   C17       1.0  0.95510  0.07480  0.37590  1.0000
  C   C18       1.0  0.04490  0.92520  0.62410  1.0000
  C   C19       1.0  0.02370  0.09280  0.32570  1.0000
  C   C20       1.0  0.97630  0.90720  0.67430  1.0000
  H   H19       1.0  0.03260  0.14800  0.32020  1.0000
  H   H20       1.0  0.96740  0.85200  0.67980  1.0000
  C   C21       1.0  0.07870  0.02960  0.28390  1.0000
  C   C22       1.0  0.92130  0.97040  0.71610  1.0000
  C   C23       1.0  0.06830  0.94920  0.29390  1.0000
  C   C24       1.0  0.93170  0.05080  0.70610  1.0000
  H   H21       1.0  0.10800  0.90660  0.26640  1.0000
  H   H22       1.0  0.89200  0.09340  0.73360  1.0000
  C   C25       1.0  0.98620  0.84540  0.35690  1.0000
  C   C26       1.0  0.01380  0.15460  0.64310  1.0000
  C   C27       1.0  0.88880  0.14120  0.41930  1.0000
  C   C28       1.0  0.11120  0.85880  0.58070  1.0000
  C   C29       1.0  0.56570  0.42600  0.62820  1.0000
  C   C30       1.0  0.43430  0.57400  0.37180  1.0000
  C   C31       1.0  0.50370  0.40920  0.68220  1.0000
  C   C32       1.0  0.49630  0.59080  0.31780  1.0000
  H   H23       1.0  0.50130  0.35520  0.69170  1.0000
  H   H24       1.0  0.49870  0.64480  0.30830  1.0000
  C   C33       1.0  0.44530  0.47230  0.72200  1.0000
  C   C34       1.0  0.55470  0.52770  0.27800  1.0000
  C   C35       1.0  0.44480  0.54980  0.70580  1.0000
  C   C36       1.0  0.55520  0.45020  0.29420  1.0000
  H   H25       1.0  0.40010  0.59140  0.73040  1.0000
  H   H26       1.0  0.59990  0.40860  0.26960  1.0000
  C   C37       1.0  0.50950  0.56770  0.65340  1.0000
  C   C38       1.0  0.49050  0.43230  0.34660  1.0000
  C   C39       1.0  0.56790  0.50450  0.61440  1.0000
  C   C40       1.0  0.43210  0.49550  0.38560  1.0000
  H   H27       1.0  0.61010  0.51560  0.57760  1.0000
  H   H28       1.0  0.38990  0.48440  0.42240  1.0000
  C   C41       1.0  0.63000  0.35820  0.58460  1.0000
  C   C42       1.0  0.37000  0.64180  0.41540  1.0000
  C   C43       1.0  0.51380  0.65230  0.63570  1.0000
  C   C44       1.0  0.48620  0.34770  0.36430  1.0000
  C   C45       1.0  0.44420  0.00340  0.68520  1.0000
  C   C46       1.0  0.55580  0.99660  0.31480  1.0000
  H   H29       1.0  0.36770  0.96510  0.65390  1.0000
  H   H30       1.0  0.63230  0.03490  0.34610  1.0000
  H   H31       1.0  0.41880  0.05990  0.69910  1.0000
  H   H32       1.0  0.58120  0.94010  0.30090  1.0000
  H   H33       1.0  0.48900  0.98680  0.73610  1.0000
  H   H34       1.0  0.51100  0.01320  0.26390  1.0000
  C   C47       1.0  0.53180  0.00070  0.63390  1.0000
  C   C48       1.0  0.46820  0.99930  0.36610  1.0000
  C   C49       1.0  0.57920  0.07250  0.62190  1.0000
  C   C50       1.0  0.42080  0.92750  0.37810  1.0000
  H   H35       1.0  0.55690  0.12450  0.64760  1.0000
  H   H36       1.0  0.44310  0.87550  0.35240  1.0000
  C   C51       1.0  0.68710  0.99720  0.54210  1.0000
  C   C52       1.0  0.31290  0.00280  0.45790  1.0000
  H   H37       1.0  0.74260  0.99420  0.50960  1.0000
  H   H38       1.0  0.25740  0.00580  0.49040  1.0000
  C   C53       1.0  0.64180  0.92350  0.55340  1.0000
  C   C54       1.0  0.35820  0.07650  0.44660  1.0000
  C   C55       1.0  0.67900  0.84050  0.51640  1.0000
  C   C56       1.0  0.32100  0.15950  0.48360  1.0000
  H   H39       1.0  0.73060  0.81640  0.56060  1.0000
  H   H40       1.0  0.26940  0.18360  0.43940  1.0000
  H   H41       1.0  0.72920  0.84740  0.48040  1.0000
  H   H42       1.0  0.27080  0.15260  0.51960  1.0000
  H   H43       1.0  0.60150  0.80360  0.48400  1.0000
  H   H44       1.0  0.39850  0.19640  0.51600  1.0000
