data_image0
_chemical_formula_structural       Zn4Cl8O24N4C36H52
_chemical_formula_sum              "Zn4 Cl8 O24 N4 C36 H52"
_cell_length_a       10.083
_cell_length_b       11.426
_cell_length_c       15.546
_cell_angle_alpha    90
_cell_angle_beta     106.731
_cell_angle_gamma    90

_space_group_name_H-M_alt    "P 1"
_space_group_IT_number       1

loop_
  _space_group_symop_operation_xyz
  'x, y, z'

loop_
  _atom_site_type_symbol
  _atom_site_label
  _atom_site_symmetry_multiplicity
  _atom_site_fract_x
  _atom_site_fract_y
  _atom_site_fract_z
  _atom_site_occupancy
  Zn  Zn1       1.0  0.17449  0.14031  0.17635  1.0000
  Zn  Zn2       1.0  0.82551  0.64031  0.32365  1.0000
  Zn  Zn3       1.0  0.82551  0.85969  0.82365  1.0000
  Zn  Zn4       1.0  0.17449  0.35969  0.67635  1.0000
  Cl  Cl1       1.0  0.19300  0.33468  0.18483  1.0000
  Cl  Cl2       1.0  0.80700  0.83468  0.31517  1.0000
  Cl  Cl3       1.0  0.80700  0.66532  0.81517  1.0000
  Cl  Cl4       1.0  0.19300  0.16532  0.68483  1.0000
  Cl  Cl5       1.0  0.22180  0.06407  0.05305  1.0000
  Cl  Cl6       1.0  0.77820  0.56407  0.44695  1.0000
  Cl  Cl7       1.0  0.77820  0.93593  0.94695  1.0000
  Cl  Cl8       1.0  0.22180  0.43593  0.55305  1.0000
  O   O1        1.0  0.99810  0.08260  0.19380  1.0000
  O   O2        1.0  0.00190  0.58260  0.30620  1.0000
  O   O3        1.0  0.00190  0.91740  0.80620  1.0000
  O   O4        1.0  0.99810  0.41740  0.69380  1.0000
  O   O5        1.0  0.87740  0.18810  0.07680  1.0000
  O   O6        1.0  0.12260  0.68810  0.42320  1.0000
  O   O7        1.0  0.12260  0.81190  0.92320  1.0000
  O   O8        1.0  0.87740  0.31190  0.57680  1.0000
  O   O9        1.0  0.67730  0.57430  0.22290  1.0000
  O   O10       1.0  0.32270  0.07430  0.27710  1.0000
  O   O11       1.0  0.32270  0.42570  0.77710  1.0000
  O   O12       1.0  0.67730  0.92570  0.72290  1.0000
  O   O13       1.0  0.76340  0.39370  0.24200  1.0000
  O   O14       1.0  0.23660  0.89370  0.25800  1.0000
  O   O15       1.0  0.23660  0.60630  0.75800  1.0000
  O   O16       1.0  0.76340  0.10630  0.74200  1.0000
  O   O17       1.0  0.79920  0.37430  0.90810  1.0000
  O   O18       1.0  0.20080  0.87430  0.59190  1.0000
  O   O19       1.0  0.20080  0.62570  0.09190  1.0000
  O   O20       1.0  0.79920  0.12570  0.40810  1.0000
  O   O21       1.0  0.71790  0.43420  0.01940  1.0000
  O   O22       1.0  0.28210  0.93420  0.48060  1.0000
  O   O23       1.0  0.28210  0.56580  0.98060  1.0000
  O   O24       1.0  0.71790  0.06580  0.51940  1.0000
  N   N1        1.0  0.59090  0.24580  0.08220  1.0000
  N   N2        1.0  0.40910  0.74580  0.41780  1.0000
  N   N3        1.0  0.40910  0.75420  0.91780  1.0000
  N   N4        1.0  0.59090  0.25420  0.58220  1.0000
  C   C1        1.0  0.62330  0.11690  0.09300  1.0000
  C   C2        1.0  0.37670  0.61690  0.40700  1.0000
  C   C3        1.0  0.37670  0.88310  0.90700  1.0000
  C   C4        1.0  0.62330  0.38310  0.59300  1.0000
  C   C5        1.0  0.75540  0.09150  0.16700  1.0000
  C   C6        1.0  0.24460  0.59150  0.33300  1.0000
  C   C7        1.0  0.24460  0.90850  0.83300  1.0000
  C   C8        1.0  0.75540  0.40850  0.66700  1.0000
  C   C9        1.0  0.88440  0.12520  0.14140  1.0000
  C   C10       1.0  0.11560  0.62520  0.35860  1.0000
  C   C11       1.0  0.11560  0.87480  0.85860  1.0000
  C   C12       1.0  0.88440  0.37480  0.64140  1.0000
  C   C13       1.0  0.51870  0.28700  0.14870  1.0000
  C   C14       1.0  0.48130  0.78700  0.35130  1.0000
  C   C15       1.0  0.48130  0.71300  0.85130  1.0000
  C   C16       1.0  0.51870  0.21300  0.64870  1.0000
  C   C17       1.0  0.52610  0.41850  0.16170  1.0000
  C   C18       1.0  0.47390  0.91850  0.33830  1.0000
  C   C19       1.0  0.47390  0.58150  0.83830  1.0000
  C   C20       1.0  0.52610  0.08150  0.66170  1.0000
  C   C21       1.0  0.66780  0.46350  0.21320  1.0000
  C   C22       1.0  0.33220  0.96350  0.28680  1.0000
  C   C23       1.0  0.33220  0.53650  0.78680  1.0000
  C   C24       1.0  0.66780  0.03650  0.71320  1.0000
  C   C25       1.0  0.50840  0.27520  0.98770  1.0000
  C   C26       1.0  0.49160  0.77520  0.51230  1.0000
  C   C27       1.0  0.49160  0.72480  0.01230  1.0000
  C   C28       1.0  0.50840  0.22480  0.48770  1.0000
  C   C29       1.0  0.59830  0.28150  0.92500  1.0000
  C   C30       1.0  0.40170  0.78150  0.57500  1.0000
  C   C31       1.0  0.40170  0.71850  0.07500  1.0000
  C   C32       1.0  0.59830  0.21850  0.42500  1.0000
  C   C33       1.0  0.71480  0.37140  0.95400  1.0000
  C   C34       1.0  0.28520  0.87140  0.54600  1.0000
  C   C35       1.0  0.28520  0.62860  0.04600  1.0000
  C   C36       1.0  0.71480  0.12860  0.45400  1.0000
  H   H1        1.0  0.66400  0.28600  0.09000  1.0000
  H   H2        1.0  0.33600  0.78600  0.41000  1.0000
  H   H3        1.0  0.33600  0.71400  0.91000  1.0000
  H   H4        1.0  0.66400  0.21400  0.59000  1.0000
  H   H5        1.0  0.63200  0.08800  0.03600  1.0000
  H   H6        1.0  0.36800  0.58800  0.46400  1.0000
  H   H7        1.0  0.36800  0.91200  0.96400  1.0000
  H   H8        1.0  0.63200  0.41200  0.53600  1.0000
  H   H9        1.0  0.54600  0.07500  0.11000  1.0000
  H   H10       1.0  0.45400  0.57500  0.39000  1.0000
  H   H11       1.0  0.45400  0.92500  0.89000  1.0000
  H   H12       1.0  0.54600  0.42500  0.61000  1.0000
  H   H13       1.0  0.75800  0.12800  0.22000  1.0000
  H   H14       1.0  0.24200  0.62800  0.28000  1.0000
  H   H15       1.0  0.24200  0.87200  0.78000  1.0000
  H   H16       1.0  0.75800  0.37200  0.72000  1.0000
  H   H17       1.0  0.76100  0.00800  0.18600  1.0000
  H   H18       1.0  0.23900  0.50800  0.31400  1.0000
  H   H19       1.0  0.23900  0.99200  0.81400  1.0000
  H   H20       1.0  0.76100  0.49200  0.68600  1.0000
  H   H21       1.0  0.55600  0.25000  0.20500  1.0000
  H   H22       1.0  0.44400  0.75000  0.29500  1.0000
  H   H23       1.0  0.44400  0.75000  0.79500  1.0000
  H   H24       1.0  0.55600  0.25000  0.70500  1.0000
  H   H25       1.0  0.42300  0.25500  0.12700  1.0000
  H   H26       1.0  0.57700  0.75500  0.37300  1.0000
  H   H27       1.0  0.57700  0.74500  0.87300  1.0000
  H   H28       1.0  0.42300  0.24500  0.62700  1.0000
  H   H29       1.0  0.49700  0.45700  0.10400  1.0000
  H   H30       1.0  0.50300  0.95700  0.39600  1.0000
  H   H31       1.0  0.50300  0.54300  0.89600  1.0000
  H   H32       1.0  0.49700  0.04300  0.60400  1.0000
  H   H33       1.0  0.46100  0.43900  0.19900  1.0000
  H   H34       1.0  0.53900  0.93900  0.30100  1.0000
  H   H35       1.0  0.53900  0.56100  0.80100  1.0000
  H   H36       1.0  0.46100  0.06100  0.69900  1.0000
  H   H37       1.0  0.46800  0.35200  0.99400  1.0000
  H   H38       1.0  0.53200  0.85200  0.50600  1.0000
  H   H39       1.0  0.53200  0.64800  0.00600  1.0000
  H   H40       1.0  0.46800  0.14800  0.49400  1.0000
  H   H41       1.0  0.44000  0.21400  0.96800  1.0000
  H   H42       1.0  0.56000  0.71400  0.53200  1.0000
  H   H43       1.0  0.56000  0.78600  0.03200  1.0000
  H   H44       1.0  0.44000  0.28600  0.46800  1.0000
  H   H45       1.0  0.54300  0.29700  0.86500  1.0000
  H   H46       1.0  0.45700  0.79700  0.63500  1.0000
  H   H47       1.0  0.45700  0.70300  0.13500  1.0000
  H   H48       1.0  0.54300  0.20300  0.36500  1.0000
  H   H49       1.0  0.63800  0.20500  0.91800  1.0000
  H   H50       1.0  0.36200  0.70500  0.58200  1.0000
  H   H51       1.0  0.36200  0.79500  0.08200  1.0000
  H   H52       1.0  0.63800  0.29500  0.41800  1.0000
