data_image0
_chemical_formula_structural       Fe4O24C12H12
_chemical_formula_sum              "Fe4 O24 C12 H12"
_cell_length_a       8.2315
_cell_length_b       8.2315
_cell_length_c       13.7812
_cell_angle_alpha    90
_cell_angle_beta     90
_cell_angle_gamma    120

_space_group_name_H-M_alt    "P 1"
_space_group_IT_number       1

loop_
  _space_group_symop_operation_xyz
  'x, y, z'

loop_
  _atom_site_type_symbol
  _atom_site_label
  _atom_site_symmetry_multiplicity
  _atom_site_fract_x
  _atom_site_fract_y
  _atom_site_fract_z
  _atom_site_occupancy
  Fe  Fe1       1.0  0.00000  0.00000  0.50000  1.0000
  Fe  Fe2       1.0  0.00000  0.00000  0.00000  1.0000
  Fe  Fe3       1.0  0.33330  0.66670  0.75000  1.0000
  Fe  Fe4       1.0  0.66670  0.33330  0.25000  1.0000
  O   O1        1.0  0.33880  0.88120  0.66800  1.0000
  O   O2        1.0  0.11880  0.45760  0.66800  1.0000
  O   O3        1.0  0.54240  0.66120  0.66800  1.0000
  O   O4        1.0  0.11880  0.66120  0.83200  1.0000
  O   O5        1.0  0.54240  0.88120  0.83200  1.0000
  O   O6        1.0  0.33880  0.45760  0.83200  1.0000
  O   O7        1.0  0.66120  0.11880  0.33200  1.0000
  O   O8        1.0  0.88120  0.54240  0.33200  1.0000
  O   O9        1.0  0.45760  0.33880  0.33200  1.0000
  O   O10       1.0  0.88120  0.33880  0.16800  1.0000
  O   O11       1.0  0.45760  0.11880  0.16800  1.0000
  O   O12       1.0  0.66120  0.54240  0.16800  1.0000
  O   O13       1.0  0.20530  0.00850  0.58260  1.0000
  O   O14       1.0  0.99150  0.19680  0.58260  1.0000
  O   O15       1.0  0.80320  0.79470  0.58260  1.0000
  O   O16       1.0  0.99150  0.79470  0.91740  1.0000
  O   O17       1.0  0.80320  0.00850  0.91740  1.0000
  O   O18       1.0  0.20530  0.19680  0.91740  1.0000
  O   O19       1.0  0.79470  0.99150  0.41740  1.0000
  O   O20       1.0  0.00850  0.80320  0.41740  1.0000
  O   O21       1.0  0.19680  0.20530  0.41740  1.0000
  O   O22       1.0  0.00850  0.20530  0.08260  1.0000
  O   O23       1.0  0.19680  0.99150  0.08260  1.0000
  O   O24       1.0  0.79470  0.80320  0.08260  1.0000
  C   C1        1.0  0.21080  0.87370  0.62040  1.0000
  C   C2        1.0  0.12630  0.33710  0.62040  1.0000
  C   C3        1.0  0.66290  0.78920  0.62040  1.0000
  C   C4        1.0  0.12630  0.78920  0.87960  1.0000
  C   C5        1.0  0.66290  0.87370  0.87960  1.0000
  C   C6        1.0  0.21080  0.33710  0.87960  1.0000
  C   C7        1.0  0.78920  0.12630  0.37960  1.0000
  C   C8        1.0  0.87370  0.66290  0.37960  1.0000
  C   C9        1.0  0.33710  0.21080  0.37960  1.0000
  C   C10       1.0  0.87370  0.21080  0.12040  1.0000
  C   C11       1.0  0.33710  0.12630  0.12040  1.0000
  C   C12       1.0  0.78920  0.66290  0.12040  1.0000
  H   H1        1.0  0.10640  0.75550  0.61140  1.0000
  H   H2        1.0  0.24450  0.35090  0.61140  1.0000
  H   H3        1.0  0.64910  0.89360  0.61140  1.0000
  H   H4        1.0  0.24450  0.89360  0.88860  1.0000
  H   H5        1.0  0.64910  0.75550  0.88860  1.0000
  H   H6        1.0  0.10640  0.35090  0.88860  1.0000
  H   H7        1.0  0.89360  0.24450  0.38860  1.0000
  H   H8        1.0  0.75550  0.64910  0.38860  1.0000
  H   H9        1.0  0.35090  0.10640  0.38860  1.0000
  H   H10       1.0  0.75550  0.10640  0.11140  1.0000
  H   H11       1.0  0.35090  0.24450  0.11140  1.0000
  H   H12       1.0  0.89360  0.64910  0.11140  1.0000
