data_image0
_chemical_formula_structural       Fe4O24C12H12
_chemical_formula_sum              "Fe4 O24 C12 H12"
_cell_length_a       8.2193
_cell_length_b       8.2193
_cell_length_c       13.7688
_cell_angle_alpha    90
_cell_angle_beta     90
_cell_angle_gamma    120

_space_group_name_H-M_alt    "P 1"
_space_group_IT_number       1

loop_
  _space_group_symop_operation_xyz
  'x, y, z'

loop_
  _atom_site_type_symbol
  _atom_site_label
  _atom_site_symmetry_multiplicity
  _atom_site_fract_x
  _atom_site_fract_y
  _atom_site_fract_z
  _atom_site_occupancy
  Fe  Fe1       1.0  0.00000  0.00000  0.50000  1.0000
  Fe  Fe2       1.0  0.00000  0.00000  0.00000  1.0000
  Fe  Fe3       1.0  0.66670  0.33330  0.75000  1.0000
  Fe  Fe4       1.0  0.33330  0.66670  0.25000  1.0000
  O   O1        1.0  0.00900  0.20670  0.58280  1.0000
  O   O2        1.0  0.79330  0.80230  0.58280  1.0000
  O   O3        1.0  0.19770  0.99100  0.58280  1.0000
  O   O4        1.0  0.79330  0.99100  0.91720  1.0000
  O   O5        1.0  0.19770  0.20670  0.91720  1.0000
  O   O6        1.0  0.00900  0.80230  0.91720  1.0000
  O   O7        1.0  0.99100  0.79330  0.41720  1.0000
  O   O8        1.0  0.20670  0.19770  0.41720  1.0000
  O   O9        1.0  0.80230  0.00900  0.41720  1.0000
  O   O10       1.0  0.20670  0.00900  0.08280  1.0000
  O   O11       1.0  0.80230  0.79330  0.08280  1.0000
  O   O12       1.0  0.99100  0.19770  0.08280  1.0000
  O   O13       1.0  0.88270  0.34080  0.66740  1.0000
  O   O14       1.0  0.65920  0.54190  0.66740  1.0000
  O   O15       1.0  0.45810  0.11730  0.66740  1.0000
  O   O16       1.0  0.65920  0.11730  0.83260  1.0000
  O   O17       1.0  0.45810  0.34080  0.83260  1.0000
  O   O18       1.0  0.88270  0.54190  0.83260  1.0000
  O   O19       1.0  0.11730  0.65920  0.33260  1.0000
  O   O20       1.0  0.34080  0.45810  0.33260  1.0000
  O   O21       1.0  0.54190  0.88270  0.33260  1.0000
  O   O22       1.0  0.34080  0.88270  0.16740  1.0000
  O   O23       1.0  0.54190  0.65920  0.16740  1.0000
  O   O24       1.0  0.11730  0.45810  0.16740  1.0000
  C   C1        1.0  0.87360  0.21070  0.61990  1.0000
  C   C2        1.0  0.78930  0.66290  0.61990  1.0000
  C   C3        1.0  0.33710  0.12640  0.61990  1.0000
  C   C4        1.0  0.78930  0.12640  0.88010  1.0000
  C   C5        1.0  0.33710  0.21070  0.88010  1.0000
  C   C6        1.0  0.87360  0.66290  0.88010  1.0000
  C   C7        1.0  0.12640  0.78930  0.38010  1.0000
  C   C8        1.0  0.21070  0.33710  0.38010  1.0000
  C   C9        1.0  0.66290  0.87360  0.38010  1.0000
  C   C10       1.0  0.21070  0.87360  0.11990  1.0000
  C   C11       1.0  0.66290  0.78930  0.11990  1.0000
  C   C12       1.0  0.12640  0.33710  0.11990  1.0000
  H   H1        1.0  0.75520  0.10620  0.61080  1.0000
  H   H2        1.0  0.89380  0.64900  0.61080  1.0000
  H   H3        1.0  0.35100  0.24480  0.61080  1.0000
  H   H4        1.0  0.89380  0.24480  0.88920  1.0000
  H   H5        1.0  0.35100  0.10620  0.88920  1.0000
  H   H6        1.0  0.75520  0.64900  0.88920  1.0000
  H   H7        1.0  0.24480  0.89380  0.38920  1.0000
  H   H8        1.0  0.10620  0.35100  0.38920  1.0000
  H   H9        1.0  0.64900  0.75520  0.38920  1.0000
  H   H10       1.0  0.10620  0.75520  0.11080  1.0000
  H   H11       1.0  0.64900  0.89380  0.11080  1.0000
  H   H12       1.0  0.24480  0.35100  0.11080  1.0000
