data_image0
_chemical_formula_structural       Fe4O24C12H12
_chemical_formula_sum              "Fe4 O24 C12 H12"
_cell_length_a       8.23031
_cell_length_b       8.23031
_cell_length_c       13.8606
_cell_angle_alpha    90
_cell_angle_beta     90
_cell_angle_gamma    120

_space_group_name_H-M_alt    "P 1"
_space_group_IT_number       1

loop_
  _space_group_symop_operation_xyz
  'x, y, z'

loop_
  _atom_site_type_symbol
  _atom_site_label
  _atom_site_symmetry_multiplicity
  _atom_site_fract_x
  _atom_site_fract_y
  _atom_site_fract_z
  _atom_site_occupancy
  Fe  Fe1       1.0  0.00000  0.00000  0.50000  1.0000
  Fe  Fe2       1.0  0.00000  0.00000  0.00000  1.0000
  Fe  Fe3       1.0  0.33330  0.66670  0.25000  1.0000
  Fe  Fe4       1.0  0.66670  0.33330  0.75000  1.0000
  O   O1        1.0  0.80440  0.00980  0.41835  1.0000
  O   O2        1.0  0.99020  0.79460  0.41835  1.0000
  O   O3        1.0  0.20540  0.19560  0.41835  1.0000
  O   O4        1.0  0.99020  0.19560  0.08165  1.0000
  O   O5        1.0  0.20540  0.00980  0.08165  1.0000
  O   O6        1.0  0.80440  0.79460  0.08165  1.0000
  O   O7        1.0  0.19560  0.99020  0.58165  1.0000
  O   O8        1.0  0.00980  0.20540  0.58165  1.0000
  O   O9        1.0  0.79460  0.80440  0.58165  1.0000
  O   O10       1.0  0.00980  0.80440  0.91835  1.0000
  O   O11       1.0  0.79460  0.99020  0.91835  1.0000
  O   O12       1.0  0.19560  0.20540  0.91835  1.0000
  O   O13       1.0  0.54420  0.88280  0.33281  1.0000
  O   O14       1.0  0.11720  0.66140  0.33281  1.0000
  O   O15       1.0  0.33860  0.45580  0.33281  1.0000
  O   O16       1.0  0.11720  0.45580  0.16719  1.0000
  O   O17       1.0  0.33860  0.88280  0.16719  1.0000
  O   O18       1.0  0.54420  0.66140  0.16719  1.0000
  O   O19       1.0  0.45580  0.11720  0.66719  1.0000
  O   O20       1.0  0.88280  0.33860  0.66719  1.0000
  O   O21       1.0  0.66140  0.54420  0.66719  1.0000
  O   O22       1.0  0.88280  0.54420  0.83281  1.0000
  O   O23       1.0  0.66140  0.11720  0.83281  1.0000
  O   O24       1.0  0.45580  0.33860  0.83281  1.0000
  C   C1        1.0  0.66390  0.87390  0.38150  1.0000
  C   C2        1.0  0.12610  0.79000  0.38150  1.0000
  C   C3        1.0  0.21000  0.33610  0.38150  1.0000
  C   C4        1.0  0.12610  0.33610  0.11850  1.0000
  C   C5        1.0  0.21000  0.87390  0.11850  1.0000
  C   C6        1.0  0.66390  0.79000  0.11850  1.0000
  C   C7        1.0  0.33610  0.12610  0.61850  1.0000
  C   C8        1.0  0.87390  0.21000  0.61850  1.0000
  C   C9        1.0  0.79000  0.66390  0.61850  1.0000
  C   C10       1.0  0.87390  0.66390  0.88150  1.0000
  C   C11       1.0  0.79000  0.12610  0.88150  1.0000
  C   C12       1.0  0.33610  0.21000  0.88150  1.0000
  H   H1        1.0  0.64860  0.75540  0.39190  1.0000
  H   H2        1.0  0.24460  0.89320  0.39190  1.0000
  H   H3        1.0  0.10680  0.35140  0.39190  1.0000
  H   H4        1.0  0.24460  0.35140  0.10810  1.0000
  H   H5        1.0  0.10680  0.75540  0.10810  1.0000
  H   H6        1.0  0.64860  0.89320  0.10810  1.0000
  H   H7        1.0  0.35140  0.24460  0.60810  1.0000
  H   H8        1.0  0.75540  0.10680  0.60810  1.0000
  H   H9        1.0  0.89320  0.64860  0.60810  1.0000
  H   H10       1.0  0.75540  0.64860  0.89190  1.0000
  H   H11       1.0  0.89320  0.24460  0.89190  1.0000
  H   H12       1.0  0.35140  0.10680  0.89190  1.0000
