data_image0
_chemical_formula_structural       CuO8N2C6H2C2H2C6H2
_chemical_formula_sum              "Cu1 O8 N2 C14 H6"
_cell_length_a       6.6465
_cell_length_b       7.5421
_cell_length_c       10.4307
_cell_angle_alpha    108.431
_cell_angle_beta     96.643
_cell_angle_gamma    96.737

_space_group_name_H-M_alt    "P 1"
_space_group_IT_number       1

loop_
  _space_group_symop_operation_xyz
  'x, y, z'

loop_
  _atom_site_type_symbol
  _atom_site_label
  _atom_site_symmetry_multiplicity
  _atom_site_fract_x
  _atom_site_fract_y
  _atom_site_fract_z
  _atom_site_occupancy
  Cu  Cu1       1.0  0.00000  0.00000  0.00000  1.0000
  O   O1        1.0  0.18210  0.22558  0.12970  1.0000
  O   O2        1.0  0.81790  0.77442  0.87030  1.0000
  O   O3        1.0  0.22150  0.42094  0.34558  1.0000
  O   O4        1.0  0.77850  0.57906  0.65442  1.0000
  O   O5        1.0  0.24200  0.94400  0.34545  1.0000
  O   O6        1.0  0.75800  0.05600  0.65455  1.0000
  O   O7        1.0  0.22580  0.81210  0.11984  1.0000
  O   O8        1.0  0.77420  0.18790  0.88016  1.0000
  N   N1        1.0  0.82420  0.05500  0.14220  1.0000
  N   N2        1.0  0.17580  0.94500  0.85780  1.0000
  C   C1        1.0  0.12500  0.29040  0.24574  1.0000
  C   C2        1.0  0.87500  0.70960  0.75426  1.0000
  C   C3        1.0  0.91710  0.19510  0.25714  1.0000
  C   C4        1.0  0.08290  0.80490  0.74286  1.0000
  C   C5        1.0  0.82600  0.24710  0.37250  1.0000
  C   C6        1.0  0.17400  0.75290  0.62750  1.0000
  H   H1        1.0  0.88400  0.34000  0.44600  1.0000
  H   H2        1.0  0.11600  0.66000  0.55400  1.0000
  C   C7        1.0  0.63180  0.15290  0.36857  1.0000
  C   C8        1.0  0.36820  0.84710  0.63143  1.0000
  H   H3        1.0  0.57400  0.18100  0.44200  1.0000
  H   H4        1.0  0.42600  0.81900  0.55800  1.0000
  C   C9        1.0  0.53150  0.01480  0.24883  1.0000
  C   C10       1.0  0.46850  0.98520  0.75117  1.0000
  C   C11       1.0  0.31500  0.91310  0.23573  1.0000
  C   C12       1.0  0.68500  0.08690  0.76427  1.0000
  C   C13       1.0  0.63490  0.96890  0.13749  1.0000
  C   C14       1.0  0.36510  0.03110  0.86251  1.0000
  H   H5        1.0  0.57300  0.87700  0.06000  1.0000
  H   H6        1.0  0.42700  0.12300  0.94000  1.0000
