data_image0
_chemical_formula_structural       Ga2Ni2O24C12H12
_chemical_formula_sum              "Ga2 Ni2 O24 C12 H12"
_cell_length_a       8.1561
_cell_length_b       8.1561
_cell_length_c       13.418
_cell_angle_alpha    90
_cell_angle_beta     90
_cell_angle_gamma    120

_space_group_name_H-M_alt    "P 1"
_space_group_IT_number       1

loop_
  _space_group_symop_operation_xyz
  'x, y, z'

loop_
  _atom_site_type_symbol
  _atom_site_label
  _atom_site_symmetry_multiplicity
  _atom_site_fract_x
  _atom_site_fract_y
  _atom_site_fract_z
  _atom_site_occupancy
  Ga  Ga1       1.0  0.00000  0.00000  0.00000  1.0000
  Ga  Ga2       1.0  0.00000  0.00000  0.50000  1.0000
  Ni  Ni1       1.0  0.66670  0.33330  0.25000  1.0000
  Ni  Ni2       1.0  0.33330  0.66670  0.75000  1.0000
  O   O1        1.0  0.19435  0.20748  0.08336  1.0000
  O   O2        1.0  0.79252  0.98687  0.08336  1.0000
  O   O3        1.0  0.01313  0.80565  0.08336  1.0000
  O   O4        1.0  0.79252  0.80565  0.41664  1.0000
  O   O5        1.0  0.19435  0.98687  0.41664  1.0000
  O   O6        1.0  0.01313  0.20748  0.41664  1.0000
  O   O7        1.0  0.80565  0.79252  0.91664  1.0000
  O   O8        1.0  0.20748  0.01313  0.91664  1.0000
  O   O9        1.0  0.98687  0.19435  0.91664  1.0000
  O   O10       1.0  0.20748  0.19435  0.58336  1.0000
  O   O11       1.0  0.80565  0.01313  0.58336  1.0000
  O   O12       1.0  0.98687  0.79252  0.58336  1.0000
  O   O13       1.0  0.46239  0.34311  0.16789  1.0000
  O   O14       1.0  0.65689  0.11928  0.16789  1.0000
  O   O15       1.0  0.88072  0.53761  0.16789  1.0000
  O   O16       1.0  0.65689  0.53761  0.33211  1.0000
  O   O17       1.0  0.46239  0.11928  0.33211  1.0000
  O   O18       1.0  0.88072  0.34311  0.33211  1.0000
  O   O19       1.0  0.53761  0.65689  0.83211  1.0000
  O   O20       1.0  0.34311  0.88072  0.83211  1.0000
  O   O21       1.0  0.11928  0.46239  0.83211  1.0000
  O   O22       1.0  0.34311  0.46239  0.66789  1.0000
  O   O23       1.0  0.53761  0.88072  0.66789  1.0000
  O   O24       1.0  0.11928  0.65689  0.66789  1.0000
  C   C1        1.0  0.33670  0.20780  0.11975  1.0000
  C   C2        1.0  0.79220  0.12890  0.11975  1.0000
  C   C3        1.0  0.87110  0.66330  0.11975  1.0000
  C   C4        1.0  0.79220  0.66330  0.38025  1.0000
  C   C5        1.0  0.33670  0.12890  0.38025  1.0000
  C   C6        1.0  0.87110  0.20780  0.38025  1.0000
  C   C7        1.0  0.66330  0.79220  0.88025  1.0000
  C   C8        1.0  0.20780  0.87110  0.88025  1.0000
  C   C9        1.0  0.12890  0.33670  0.88025  1.0000
  C   C10       1.0  0.20780  0.33670  0.61975  1.0000
  C   C11       1.0  0.66330  0.87110  0.61975  1.0000
  C   C12       1.0  0.12890  0.79220  0.61975  1.0000
  H   H1        1.0  0.34880  0.10140  0.11020  1.0000
  H   H2        1.0  0.89860  0.24740  0.11020  1.0000
  H   H3        1.0  0.75260  0.65120  0.11020  1.0000
  H   H4        1.0  0.89860  0.65120  0.38980  1.0000
  H   H5        1.0  0.34880  0.24740  0.38980  1.0000
  H   H6        1.0  0.75260  0.10140  0.38980  1.0000
  H   H7        1.0  0.65120  0.89860  0.88980  1.0000
  H   H8        1.0  0.10140  0.75260  0.88980  1.0000
  H   H9        1.0  0.24740  0.34880  0.88980  1.0000
  H   H10       1.0  0.10140  0.34880  0.61020  1.0000
  H   H11       1.0  0.65120  0.75260  0.61020  1.0000
  H   H12       1.0  0.24740  0.89860  0.61020  1.0000
