data_image0
_chemical_formula_structural       Cd4O20N8C2H2C2H2C2H2C2H4C4H2C2H2C4H2C2H2C2H4C2H2C2H2C2H2C6H2C6H2C2H2C6H2C4H2C4H2C8H2C4H2C2H2C4
_chemical_formula_sum              "Cd4 O20 N8 C74 H46"
_cell_length_a       13.2168
_cell_length_b       13.4274
_cell_length_c       13.7151
_cell_angle_alpha    74.321
_cell_angle_beta     70.086
_cell_angle_gamma    61.743

_space_group_name_H-M_alt    "P 1"
_space_group_IT_number       1

loop_
  _space_group_symop_operation_xyz
  'x, y, z'

loop_
  _atom_site_type_symbol
  _atom_site_label
  _atom_site_symmetry_multiplicity
  _atom_site_fract_x
  _atom_site_fract_y
  _atom_site_fract_z
  _atom_site_occupancy
  Cd  Cd1       1.0  0.41777  0.23916  0.79009  1.0000
  Cd  Cd2       1.0  0.58223  0.76084  0.20991  1.0000
  Cd  Cd3       1.0  0.85514  0.47077  0.10936  1.0000
  Cd  Cd4       1.0  0.14486  0.52923  0.89064  1.0000
  O   O1        1.0  0.80840  0.46840  0.96100  1.0000
  O   O2        1.0  0.19160  0.53160  0.03900  1.0000
  O   O3        1.0  0.80330  0.32940  0.08830  1.0000
  O   O4        1.0  0.19670  0.67060  0.91170  1.0000
  O   O5        1.0  0.93260  0.60993  0.04370  1.0000
  O   O6        1.0  0.06740  0.39007  0.95630  1.0000
  O   O7        1.0  0.73930  0.67297  0.07290  1.0000
  O   O8        1.0  0.26070  0.32703  0.92710  1.0000
  O   O9        1.0  0.51960  0.14910  0.92970  1.0000
  O   O10       1.0  0.48040  0.85090  0.07030  1.0000
  O   O11       1.0  0.61100  0.07050  0.78530  1.0000
  O   O12       1.0  0.38900  0.92950  0.21470  1.0000
  O   O13       1.0  0.51900  0.34930  0.75900  1.0000
  O   O14       1.0  0.48100  0.65070  0.24100  1.0000
  O   O15       1.0  0.54030  0.28770  0.61730  1.0000
  O   O16       1.0  0.45970  0.71230  0.38270  1.0000
  O   O17       1.0  0.72570  0.47240  0.27692  1.0000
  O   O18       1.0  0.27430  0.52760  0.72308  1.0000
  O   O19       1.0  0.74880  0.61800  0.29920  1.0000
  O   O20       1.0  0.25120  0.38200  0.70080  1.0000
  N   N1        1.0  0.98970  0.34690  0.20060  1.0000
  N   N2        1.0  0.01030  0.65310  0.79940  1.0000
  N   N3        1.0  0.08230  0.18080  0.28630  1.0000
  N   N4        1.0  0.91770  0.81920  0.71370  1.0000
  N   N5        1.0  0.24410  0.03820  0.77050  1.0000
  N   N6        1.0  0.75590  0.96180  0.22950  1.0000
  N   N7        1.0  0.35780  0.11450  0.77270  1.0000
  N   N8        1.0  0.64220  0.88550  0.22730  1.0000
  C   C1        1.0  0.09640  0.33820  0.20230  1.0000
  C   C2        1.0  0.90360  0.66180  0.79770  1.0000
  H   H1        1.0  0.12493  0.39387  0.17211  1.0000
  H   H2        1.0  0.87507  0.60613  0.82789  1.0000
  C   C3        1.0  0.15380  0.23650  0.25470  1.0000
  C   C4        1.0  0.84620  0.76350  0.74530  1.0000
  H   H3        1.0  0.22806  0.20943  0.26691  1.0000
  H   H4        1.0  0.77194  0.79057  0.73309  1.0000
  C   C5        1.0  0.98450  0.25010  0.25230  1.0000
  C   C6        1.0  0.01550  0.74990  0.74770  1.0000
  H   H5        1.0  0.92100  0.23243  0.26353  1.0000
  H   H6        1.0  0.07900  0.76757  0.73647  1.0000
  C   C7        1.0  0.10870  0.06680  0.34500  1.0000
  C   C8        1.0  0.89130  0.93320  0.65500  1.0000
  H   H7        1.0  0.18437  0.01365  0.30795  1.0000
  H   H8        1.0  0.81563  0.98635  0.69205  1.0000
  H   H9        1.0  0.04843  0.04356  0.34792  1.0000
  H   H10       1.0  0.95157  0.95644  0.65208  1.0000
  C   C9        1.0  0.11390  0.05950  0.45490  1.0000
  C   C10       1.0  0.88610  0.94050  0.54510  1.0000
  C   C11       1.0  0.18320  0.95570  0.50340  1.0000
  C   C12       1.0  0.81680  0.04430  0.49660  1.0000
  H   H11       1.0  0.22540  0.89217  0.46783  1.0000
  H   H12       1.0  0.77460  0.10783  0.53217  1.0000
  C   C13       1.0  0.18980  0.94630  0.60370  1.0000
  C   C14       1.0  0.81020  0.05370  0.39630  1.0000
  H   H13       1.0  0.23554  0.87593  0.63555  1.0000
  H   H14       1.0  0.76446  0.12407  0.36445  1.0000
  C   C15       1.0  0.12970  0.03940  0.65820  1.0000
  C   C16       1.0  0.87030  0.96060  0.34180  1.0000
  C   C17       1.0  0.06120  0.14130  0.61020  1.0000
  C   C18       1.0  0.93880  0.85870  0.38980  1.0000
  H   H15       1.0  0.01975  0.20466  0.64587  1.0000
  H   H16       1.0  0.98025  0.79534  0.35413  1.0000
  C   C19       1.0  0.05190  0.15240  0.51010  1.0000
  C   C20       1.0  0.94810  0.84760  0.48990  1.0000
  H   H17       1.0  0.00391  0.22251  0.47972  1.0000
  H   H18       1.0  0.99609  0.77749  0.52028  1.0000
  C   C21       1.0  0.13870  0.02920  0.76740  1.0000
  C   C22       1.0  0.86130  0.97080  0.23260  1.0000
  H   H19       1.0  0.06828  0.08858  0.80327  1.0000
  H   H20       1.0  0.93172  0.91142  0.19673  1.0000
  H   H21       1.0  0.14026  0.95626  0.80516  1.0000
  H   H22       1.0  0.85974  0.04374  0.19484  1.0000
  C   C23       1.0  0.25710  0.13460  0.75540  1.0000
  C   C24       1.0  0.74290  0.86540  0.24460  1.0000
  H   H23       1.0  0.20222  0.20652  0.73521  1.0000
  H   H24       1.0  0.79778  0.79348  0.26479  1.0000
  C   C25       1.0  0.34200  0.95100  0.80030  1.0000
  C   C26       1.0  0.65800  0.04900  0.19970  1.0000
  H   H25       1.0  0.35791  0.87402  0.81640  1.0000
  H   H26       1.0  0.64209  0.12598  0.18360  1.0000
  C   C27       1.0  0.41050  0.99900  0.80150  1.0000
  C   C28       1.0  0.58950  0.00100  0.19850  1.0000
  H   H27       1.0  0.48292  0.95979  0.81916  1.0000
  H   H28       1.0  0.51708  0.04021  0.18084  1.0000
  C   C29       1.0  0.73830  0.52560  0.33190  1.0000
  C   C30       1.0  0.26170  0.47440  0.66810  1.0000
  C   C31       1.0  0.74020  0.47490  0.44370  1.0000
  C   C32       1.0  0.25980  0.52510  0.55630  1.0000
  C   C33       1.0  0.66580  0.42280  0.50200  1.0000
  C   C34       1.0  0.33420  0.57720  0.49800  1.0000
  H   H29       1.0  0.61653  0.41790  0.47041  1.0000
  H   H30       1.0  0.38347  0.58210  0.52959  1.0000
  C   C35       1.0  0.66240  0.37750  0.60650  1.0000
  C   C36       1.0  0.33760  0.62250  0.39350  1.0000
  C   C37       1.0  0.74080  0.37970  0.65310  1.0000
  C   C38       1.0  0.25920  0.62030  0.34690  1.0000
  C   C39       1.0  0.81620  0.43160  0.59330  1.0000
  C   C40       1.0  0.18380  0.56840  0.40670  1.0000
  H   H31       1.0  0.86865  0.43359  0.62311  1.0000
  H   H32       1.0  0.13135  0.56641  0.37689  1.0000
  C   C41       1.0  0.81480  0.48030  0.49100  1.0000
  C   C42       1.0  0.18520  0.51970  0.50900  1.0000
  H   H33       1.0  0.86409  0.51675  0.45369  1.0000
  H   H34       1.0  0.13591  0.48325  0.54631  1.0000
  C   C43       1.0  0.56800  0.33480  0.66540  1.0000
  C   C44       1.0  0.43200  0.66520  0.33460  1.0000
  C   C45       1.0  0.75310  0.32220  0.76040  1.0000
  C   C46       1.0  0.24690  0.67780  0.23960  1.0000
  C   C47       1.0  0.76300  0.21150  0.79130  1.0000
  C   C48       1.0  0.23700  0.78850  0.20870  1.0000
  H   H35       1.0  0.75557  0.17583  0.74638  1.0000
  H   H36       1.0  0.24443  0.82417  0.25362  1.0000
  C   C49       1.0  0.78400  0.15200  0.88880  1.0000
  C   C50       1.0  0.21600  0.84800  0.11120  1.0000
  C   C51       1.0  0.79410  0.20700  0.95540  1.0000
  C   C52       1.0  0.20590  0.79300  0.04460  1.0000
  H   H37       1.0  0.80794  0.16911  0.02040  1.0000
  H   H38       1.0  0.19206  0.83089  0.97960  1.0000
  C   C53       1.0  0.78360  0.31920  0.92490  1.0000
  C   C54       1.0  0.21640  0.68080  0.07510  1.0000
  C   C55       1.0  0.76330  0.37520  0.82850  1.0000
  C   C56       1.0  0.23670  0.62480  0.17150  1.0000
  H   H39       1.0  0.75638  0.44966  0.80871  1.0000
  H   H40       1.0  0.24362  0.55034  0.19129  1.0000
  C   C57       1.0  0.79780  0.37570  0.99710  1.0000
  C   C58       1.0  0.20220  0.62430  0.00290  1.0000
  C   C59       1.0  0.79700  0.03220  0.92260  1.0000
  C   C60       1.0  0.20300  0.96780  0.07740  1.0000
  C   C61       1.0  0.71290  0.99870  0.91840  1.0000
  C   C62       1.0  0.28710  0.00130  0.08160  1.0000
  C   C63       1.0  0.72610  0.88740  0.95710  1.0000
  C   C64       1.0  0.27390  0.11260  0.04290  1.0000
  H   H41       1.0  0.66970  0.86527  0.95596  1.0000
  H   H42       1.0  0.33030  0.13473  0.04404  1.0000
  C   C65       1.0  0.82230  0.80870  0.99730  1.0000
  C   C66       1.0  0.17770  0.19130  0.00270  1.0000
  C   C67       1.0  0.90630  0.84080  0.99790  1.0000
  C   C68       1.0  0.09370  0.15920  0.00210  1.0000
  H   H43       1.0  0.97225  0.78785  0.02270  1.0000
  H   H44       1.0  0.02775  0.21215  0.97730  1.0000
  C   C69       1.0  0.89310  0.95210  0.96150  1.0000
  C   C70       1.0  0.10690  0.04790  0.03850  1.0000
  H   H45       1.0  0.94992  0.97333  0.96335  1.0000
  H   H46       1.0  0.05008  0.02667  0.03665  1.0000
  C   C71       1.0  0.83250  0.69000  0.04110  1.0000
  C   C72       1.0  0.16750  0.31000  0.95890  1.0000
  C   C73       1.0  0.60770  0.07870  0.87480  1.0000
  C   C74       1.0  0.39230  0.92130  0.12520  1.0000
