data_image0
_chemical_formula_structural       Ag2C4H2C2H2C4H2C4H2C2H2C4H2C2H2C6H2C2H2C4H2C2H2C2H4N4O10H4
_chemical_formula_sum              "Ag2 C38 H30 N4 O10"
_cell_length_a       8.8351
_cell_length_b       13.1492
_cell_length_c       14.7094
_cell_angle_alpha    85.491
_cell_angle_beta     84.285
_cell_angle_gamma    72.413

_space_group_name_H-M_alt    "P 1"
_space_group_IT_number       1

loop_
  _space_group_symop_operation_xyz
  'x, y, z'

loop_
  _atom_site_type_symbol
  _atom_site_label
  _atom_site_symmetry_multiplicity
  _atom_site_fract_x
  _atom_site_fract_y
  _atom_site_fract_z
  _atom_site_occupancy
  Ag  Ag1       1.0  0.14446  0.04441  0.48144  1.0000
  Ag  Ag2       1.0  0.85554  0.95559  0.51856  1.0000
  C   C1        1.0  0.41380  0.92030  0.60260  1.0000
  C   C2        1.0  0.58620  0.07970  0.39740  1.0000
  C   C3        1.0  0.55960  0.85580  0.62740  1.0000
  C   C4        1.0  0.44040  0.14420  0.37260  1.0000
  H   H1        1.0  0.59015  0.85816  0.68573  1.0000
  H   H2        1.0  0.40985  0.14184  0.31427  1.0000
  C   C5        1.0  0.66030  0.78770  0.56580  1.0000
  C   C6        1.0  0.33970  0.21230  0.43420  1.0000
  H   H3        1.0  0.75809  0.74331  0.58281  1.0000
  H   H4        1.0  0.24191  0.25669  0.41719  1.0000
  C   C7        1.0  0.61570  0.78530  0.47820  1.0000
  C   C8        1.0  0.38430  0.21470  0.52180  1.0000
  C   C9        1.0  0.46930  0.85710  0.45790  1.0000
  C   C10       1.0  0.53070  0.14290  0.54210  1.0000
  H   H5        1.0  0.43828  0.85978  0.39891  1.0000
  H   H6        1.0  0.56172  0.14022  0.60109  1.0000
  C   C11       1.0  0.71460  0.70850  0.41170  1.0000
  C   C12       1.0  0.28540  0.29150  0.58830  1.0000
  C   C13       1.0  0.81380  0.61050  0.44240  1.0000
  C   C14       1.0  0.18620  0.38950  0.55760  1.0000
  H   H7        1.0  0.81841  0.59457  0.50494  1.0000
  H   H8        1.0  0.18159  0.40543  0.49506  1.0000
  C   C15       1.0  0.90490  0.53660  0.38250  1.0000
  C   C16       1.0  0.09510  0.46340  0.61750  1.0000
  H   H9        1.0  0.96816  0.47134  0.40540  1.0000
  H   H10       1.0  0.03184  0.52866  0.59460  1.0000
  C   C17       1.0  0.90450  0.55730  0.28940  1.0000
  C   C18       1.0  0.09550  0.44270  0.71060  1.0000
  C   C19       1.0  0.80390  0.65430  0.25830  1.0000
  C   C20       1.0  0.19610  0.34570  0.74170  1.0000
  H   H11       1.0  0.79898  0.66972  0.19564  1.0000
  H   H12       1.0  0.20102  0.33028  0.80436  1.0000
  C   C21       1.0  0.71140  0.72830  0.31810  1.0000
  C   C22       1.0  0.28860  0.27170  0.68190  1.0000
  H   H13       1.0  0.64570  0.79269  0.29512  1.0000
  H   H14       1.0  0.35430  0.20731  0.70488  1.0000
  C   C23       1.0  0.29200  0.98650  0.67330  1.0000
  C   C24       1.0  0.70800  0.01350  0.32670  1.0000
  C   C25       1.0  0.01000  0.47500  0.22490  1.0000
  C   C26       1.0  0.99000  0.52500  0.77510  1.0000
  C   C27       1.0  0.86480  0.22830  0.40120  1.0000
  C   C28       1.0  0.13520  0.77170  0.59880  1.0000
  H   H15       1.0  0.90416  0.19181  0.34809  1.0000
  H   H16       1.0  0.09584  0.80819  0.65191  1.0000
  C   C29       1.0  0.73690  0.31490  0.39610  1.0000
  C   C30       1.0  0.26310  0.68510  0.60390  1.0000
  H   H17       1.0  0.69062  0.33601  0.34097  1.0000
  H   H18       1.0  0.30938  0.66399  0.65903  1.0000
  C   C31       1.0  0.67590  0.37100  0.47020  1.0000
  C   C32       1.0  0.32410  0.62900  0.52980  1.0000
  C   C33       1.0  0.74710  0.33660  0.55050  1.0000
  C   C34       1.0  0.25290  0.66340  0.44950  1.0000
  H   H19       1.0  0.70727  0.37337  0.60334  1.0000
  H   H20       1.0  0.29273  0.62663  0.39666  1.0000
  C   C35       1.0  0.88260  0.24410  0.55220  1.0000
  C   C36       1.0  0.11740  0.75590  0.44780  1.0000
  H   H21       1.0  0.93133  0.22104  0.60645  1.0000
  H   H22       1.0  0.06867  0.77896  0.39355  1.0000
  C   C37       1.0  0.52620  0.47380  0.45780  1.0000
  C   C38       1.0  0.47380  0.52620  0.54220  1.0000
  H   H23       1.0  0.55468  0.52307  0.41161  1.0000
  H   H24       1.0  0.44532  0.47693  0.58839  1.0000
  H   H25       1.0  0.43985  0.45265  0.43700  1.0000
  H   H26       1.0  0.56015  0.54735  0.56300  1.0000
  N   N1        1.0  0.37100  0.92240  0.51790  1.0000
  N   N2        1.0  0.62900  0.07760  0.48210  1.0000
  N   N3        1.0  0.93980  0.19050  0.47730  1.0000
  N   N4        1.0  0.06020  0.80950  0.52270  1.0000
  O   O1        1.0  0.15460  0.02730  0.65360  1.0000
  O   O2        1.0  0.84540  0.97270  0.34640  1.0000
  O   O3        1.0  0.34260  0.98950  0.74740  1.0000
  O   O4        1.0  0.65740  0.01050  0.25260  1.0000
  O   O5        1.0  0.01820  0.50260  0.14160  1.0000
  O   O6        1.0  0.98180  0.49740  0.85840  1.0000
  O   O7        1.0  0.08190  0.38620  0.26030  1.0000
  O   O8        1.0  0.91810  0.61380  0.73970  1.0000
  O   O9        1.0  0.16480  0.98650  0.31850  1.0000
  O   O10       1.0  0.83520  0.01350  0.68150  1.0000
  H   H27       1.0  0.16179  0.04787  0.28510  1.0000
  H   H28       1.0  0.83821  0.95213  0.71490  1.0000
  H   H29       1.0  0.09982  0.95099  0.31471  1.0000
  H   H30       1.0  0.90018  0.04901  0.68529  1.0000
