data_image0
_chemical_formula_structural       Co8O64C48H16C16H16C16H16C16H16C32Co8O64C48H16C16H16C16H16C16H16C32
_chemical_formula_sum              "Co16 O128 C256 H128"
_cell_length_a       23.7125
_cell_length_b       10.7325
_cell_length_c       39.574
_cell_angle_alpha    90
_cell_angle_beta     90.324
_cell_angle_gamma    90

_space_group_name_H-M_alt    "P 1"
_space_group_IT_number       1

loop_
  _space_group_symop_operation_xyz
  'x, y, z'

loop_
  _atom_site_type_symbol
  _atom_site_label
  _atom_site_symmetry_multiplicity
  _atom_site_fract_x
  _atom_site_fract_y
  _atom_site_fract_z
  _atom_site_occupancy
  Co  Co1       1.0  0.12500  0.05415  0.37500  1.0000
  Co  Co2       1.0  0.62500  0.05415  0.87500  1.0000
  Co  Co3       1.0  0.12500  0.55415  0.87500  1.0000
  Co  Co4       1.0  0.62500  0.55415  0.37500  1.0000
  Co  Co5       1.0  0.87500  0.94585  0.62500  1.0000
  Co  Co6       1.0  0.37500  0.94585  0.12500  1.0000
  Co  Co7       1.0  0.87500  0.44585  0.12500  1.0000
  Co  Co8       1.0  0.37500  0.44585  0.62500  1.0000
  O   O1        1.0  0.24729  0.53507  0.34884  1.0000
  O   O2        1.0  0.50271  0.53507  0.90116  1.0000
  O   O3        1.0  0.24729  0.03507  0.84884  1.0000
  O   O4        1.0  0.50271  0.03507  0.40116  1.0000
  O   O5        1.0  0.74729  0.53507  0.84884  1.0000
  O   O6        1.0  0.00271  0.53507  0.40116  1.0000
  O   O7        1.0  0.74729  0.03507  0.34884  1.0000
  O   O8        1.0  0.00271  0.03507  0.90116  1.0000
  O   O9        1.0  0.75271  0.46493  0.65116  1.0000
  O   O10       1.0  0.49729  0.46493  0.09884  1.0000
  O   O11       1.0  0.75271  0.96493  0.15116  1.0000
  O   O12       1.0  0.49729  0.96493  0.59884  1.0000
  O   O13       1.0  0.25271  0.46493  0.15116  1.0000
  O   O14       1.0  0.99729  0.46493  0.59884  1.0000
  O   O15       1.0  0.25271  0.96493  0.65116  1.0000
  O   O16       1.0  0.99729  0.96493  0.09884  1.0000
  O   O17       1.0  0.18789  0.68088  0.36768  1.0000
  O   O18       1.0  0.56211  0.68088  0.88232  1.0000
  O   O19       1.0  0.18789  0.18088  0.86768  1.0000
  O   O20       1.0  0.56211  0.18088  0.38232  1.0000
  O   O21       1.0  0.68789  0.68088  0.86768  1.0000
  O   O22       1.0  0.06211  0.68088  0.38232  1.0000
  O   O23       1.0  0.68789  0.18088  0.36768  1.0000
  O   O24       1.0  0.06211  0.18088  0.88232  1.0000
  O   O25       1.0  0.81211  0.31912  0.63232  1.0000
  O   O26       1.0  0.43789  0.31912  0.11768  1.0000
  O   O27       1.0  0.81211  0.81912  0.13232  1.0000
  O   O28       1.0  0.43789  0.81912  0.61768  1.0000
  O   O29       1.0  0.31211  0.31912  0.13232  1.0000
  O   O30       1.0  0.93789  0.31912  0.61768  1.0000
  O   O31       1.0  0.31211  0.81912  0.63232  1.0000
  O   O32       1.0  0.93789  0.81912  0.11768  1.0000
  O   O33       1.0  0.19255  0.95690  0.36320  1.0000
  O   O34       1.0  0.55745  0.95690  0.88680  1.0000
  O   O35       1.0  0.19255  0.45690  0.86320  1.0000
  O   O36       1.0  0.55745  0.45690  0.38680  1.0000
  O   O37       1.0  0.69255  0.95690  0.86320  1.0000
  O   O38       1.0  0.05745  0.95690  0.38680  1.0000
  O   O39       1.0  0.69255  0.45690  0.36320  1.0000
  O   O40       1.0  0.05745  0.45690  0.88680  1.0000
  O   O41       1.0  0.80745  0.04310  0.63680  1.0000
  O   O42       1.0  0.44255  0.04310  0.11320  1.0000
  O   O43       1.0  0.80745  0.54310  0.13680  1.0000
  O   O44       1.0  0.44255  0.54310  0.61320  1.0000
  O   O45       1.0  0.30745  0.04310  0.13680  1.0000
  O   O46       1.0  0.94255  0.04310  0.61320  1.0000
  O   O47       1.0  0.30745  0.54310  0.63680  1.0000
  O   O48       1.0  0.94255  0.54310  0.11320  1.0000
  O   O49       1.0  0.20981  0.90366  0.41709  1.0000
  O   O50       1.0  0.54019  0.90366  0.83291  1.0000
  O   O51       1.0  0.20981  0.40366  0.91709  1.0000
  O   O52       1.0  0.54019  0.40366  0.33291  1.0000
  O   O53       1.0  0.70981  0.90366  0.91709  1.0000
  O   O54       1.0  0.04019  0.90366  0.33291  1.0000
  O   O55       1.0  0.70981  0.40366  0.41709  1.0000
  O   O56       1.0  0.04019  0.40366  0.83291  1.0000
  O   O57       1.0  0.79019  0.09634  0.58291  1.0000
  O   O58       1.0  0.45981  0.09634  0.16709  1.0000
  O   O59       1.0  0.79019  0.59634  0.08291  1.0000
  O   O60       1.0  0.45981  0.59634  0.66709  1.0000
  O   O61       1.0  0.29019  0.09634  0.08291  1.0000
  O   O62       1.0  0.95981  0.09634  0.66709  1.0000
  O   O63       1.0  0.29019  0.59634  0.58291  1.0000
  O   O64       1.0  0.95981  0.59634  0.16709  1.0000
  C   C1        1.0  0.28453  0.73460  0.36133  1.0000
  C   C2        1.0  0.46547  0.73460  0.88867  1.0000
  C   C3        1.0  0.28453  0.23460  0.86133  1.0000
  C   C4        1.0  0.46547  0.23460  0.38867  1.0000
  C   C5        1.0  0.78453  0.73460  0.86133  1.0000
  C   C6        1.0  0.96547  0.73460  0.38867  1.0000
  C   C7        1.0  0.78453  0.23460  0.36133  1.0000
  C   C8        1.0  0.96547  0.23460  0.88867  1.0000
  C   C9        1.0  0.71547  0.26540  0.63867  1.0000
  C   C10       1.0  0.53453  0.26540  0.11133  1.0000
  C   C11       1.0  0.71547  0.76540  0.13867  1.0000
  C   C12       1.0  0.53453  0.76540  0.61133  1.0000
  C   C13       1.0  0.21547  0.26540  0.13867  1.0000
  C   C14       1.0  0.03453  0.26540  0.61133  1.0000
  C   C15       1.0  0.21547  0.76540  0.63867  1.0000
  C   C16       1.0  0.03453  0.76540  0.11133  1.0000
  C   C17       1.0  0.27794  0.85260  0.37562  1.0000
  C   C18       1.0  0.47206  0.85260  0.87438  1.0000
  C   C19       1.0  0.27794  0.35260  0.87562  1.0000
  C   C20       1.0  0.47206  0.35260  0.37438  1.0000
  C   C21       1.0  0.77794  0.85260  0.87562  1.0000
  C   C22       1.0  0.97206  0.85260  0.37438  1.0000
  C   C23       1.0  0.77794  0.35260  0.37562  1.0000
  C   C24       1.0  0.97206  0.35260  0.87438  1.0000
  C   C25       1.0  0.72206  0.14740  0.62438  1.0000
  C   C26       1.0  0.52794  0.14740  0.12562  1.0000
  C   C27       1.0  0.72206  0.64740  0.12438  1.0000
  C   C28       1.0  0.52794  0.64740  0.62562  1.0000
  C   C29       1.0  0.22206  0.14740  0.12438  1.0000
  C   C30       1.0  0.02794  0.14740  0.62562  1.0000
  C   C31       1.0  0.22206  0.64740  0.62438  1.0000
  C   C32       1.0  0.02794  0.64740  0.12562  1.0000
  C   C33       1.0  0.32501  0.92820  0.38051  1.0000
  C   C34       1.0  0.42499  0.92820  0.86949  1.0000
  C   C35       1.0  0.32501  0.42820  0.88051  1.0000
  C   C36       1.0  0.42499  0.42820  0.36949  1.0000
  C   C37       1.0  0.82501  0.92820  0.88051  1.0000
  C   C38       1.0  0.92499  0.92820  0.36949  1.0000
  C   C39       1.0  0.82501  0.42820  0.38051  1.0000
  C   C40       1.0  0.92499  0.42820  0.86949  1.0000
  C   C41       1.0  0.67499  0.07180  0.61949  1.0000
  C   C42       1.0  0.57501  0.07180  0.13051  1.0000
  C   C43       1.0  0.67499  0.57180  0.11949  1.0000
  C   C44       1.0  0.57501  0.57180  0.63051  1.0000
  C   C45       1.0  0.17499  0.07180  0.11949  1.0000
  C   C46       1.0  0.07501  0.07180  0.63051  1.0000
  C   C47       1.0  0.17499  0.57180  0.61949  1.0000
  C   C48       1.0  0.07501  0.57180  0.13051  1.0000
  H   H1        1.0  0.32080  0.00610  0.39050  1.0000
  H   H2        1.0  0.42920  0.00610  0.85950  1.0000
  H   H3        1.0  0.32080  0.50610  0.89050  1.0000
  H   H4        1.0  0.42920  0.50610  0.35950  1.0000
  H   H5        1.0  0.82080  0.00610  0.89050  1.0000
  H   H6        1.0  0.92920  0.00610  0.35950  1.0000
  H   H7        1.0  0.82080  0.50610  0.39050  1.0000
  H   H8        1.0  0.92920  0.50610  0.85950  1.0000
  H   H9        1.0  0.67920  0.99390  0.60950  1.0000
  H   H10       1.0  0.57080  0.99390  0.14050  1.0000
  H   H11       1.0  0.67920  0.49390  0.10950  1.0000
  H   H12       1.0  0.57080  0.49390  0.64050  1.0000
  H   H13       1.0  0.17920  0.99390  0.10950  1.0000
  H   H14       1.0  0.07080  0.99390  0.64050  1.0000
  H   H15       1.0  0.17920  0.49390  0.60950  1.0000
  H   H16       1.0  0.07080  0.49390  0.14050  1.0000
  C   C49       1.0  0.37793  0.88890  0.37076  1.0000
  C   C50       1.0  0.37207  0.88890  0.87924  1.0000
  C   C51       1.0  0.37793  0.38890  0.87076  1.0000
  C   C52       1.0  0.37207  0.38890  0.37924  1.0000
  C   C53       1.0  0.87793  0.88890  0.87076  1.0000
  C   C54       1.0  0.87207  0.88890  0.37924  1.0000
  C   C55       1.0  0.87793  0.38890  0.37076  1.0000
  C   C56       1.0  0.87207  0.38890  0.87924  1.0000
  C   C57       1.0  0.62207  0.11110  0.62924  1.0000
  C   C58       1.0  0.62793  0.11110  0.12076  1.0000
  C   C59       1.0  0.62207  0.61110  0.12924  1.0000
  C   C60       1.0  0.62793  0.61110  0.62076  1.0000
  C   C61       1.0  0.12207  0.11110  0.12924  1.0000
  C   C62       1.0  0.12793  0.11110  0.62076  1.0000
  C   C63       1.0  0.12207  0.61110  0.62924  1.0000
  C   C64       1.0  0.12793  0.61110  0.12076  1.0000
  H   H17       1.0  0.40920  0.93960  0.37450  1.0000
  H   H18       1.0  0.34080  0.93960  0.87550  1.0000
  H   H19       1.0  0.40920  0.43960  0.87450  1.0000
  H   H20       1.0  0.34080  0.43960  0.37550  1.0000
  H   H21       1.0  0.90920  0.93960  0.87450  1.0000
  H   H22       1.0  0.84080  0.93960  0.37550  1.0000
  H   H23       1.0  0.90920  0.43960  0.37450  1.0000
  H   H24       1.0  0.84080  0.43960  0.87550  1.0000
  H   H25       1.0  0.59080  0.06040  0.62550  1.0000
  H   H26       1.0  0.65920  0.06040  0.12450  1.0000
  H   H27       1.0  0.59080  0.56040  0.12550  1.0000
  H   H28       1.0  0.65920  0.56040  0.62450  1.0000
  H   H29       1.0  0.09080  0.06040  0.12550  1.0000
  H   H30       1.0  0.15920  0.06040  0.62450  1.0000
  H   H31       1.0  0.09080  0.56040  0.62550  1.0000
  H   H32       1.0  0.15920  0.56040  0.12450  1.0000
  C   C65       1.0  0.38447  0.77350  0.35530  1.0000
  C   C66       1.0  0.36553  0.77350  0.89470  1.0000
  C   C67       1.0  0.38447  0.27350  0.85530  1.0000
  C   C68       1.0  0.36553  0.27350  0.39470  1.0000
  C   C69       1.0  0.88447  0.77350  0.85530  1.0000
  C   C70       1.0  0.86553  0.77350  0.39470  1.0000
  C   C71       1.0  0.88447  0.27350  0.35530  1.0000
  C   C72       1.0  0.86553  0.27350  0.89470  1.0000
  C   C73       1.0  0.61553  0.22650  0.64470  1.0000
  C   C74       1.0  0.63447  0.22650  0.10530  1.0000
  C   C75       1.0  0.61553  0.72650  0.14470  1.0000
  C   C76       1.0  0.63447  0.72650  0.60530  1.0000
  C   C77       1.0  0.11553  0.22650  0.14470  1.0000
  C   C78       1.0  0.13447  0.22650  0.60530  1.0000
  C   C79       1.0  0.11553  0.72650  0.64470  1.0000
  C   C80       1.0  0.13447  0.72650  0.10530  1.0000
  H   H33       1.0  0.41990  0.74750  0.34820  1.0000
  H   H34       1.0  0.33010  0.74750  0.90180  1.0000
  H   H35       1.0  0.41990  0.24750  0.84820  1.0000
  H   H36       1.0  0.33010  0.24750  0.40180  1.0000
  H   H37       1.0  0.91990  0.74750  0.84820  1.0000
  H   H38       1.0  0.83010  0.74750  0.40180  1.0000
  H   H39       1.0  0.91990  0.24750  0.34820  1.0000
  H   H40       1.0  0.83010  0.24750  0.90180  1.0000
  H   H41       1.0  0.58010  0.25250  0.65180  1.0000
  H   H42       1.0  0.66990  0.25250  0.09820  1.0000
  H   H43       1.0  0.58010  0.75250  0.15180  1.0000
  H   H44       1.0  0.66990  0.75250  0.59820  1.0000
  H   H45       1.0  0.08010  0.25250  0.15180  1.0000
  H   H46       1.0  0.16990  0.25250  0.59820  1.0000
  H   H47       1.0  0.08010  0.75250  0.65180  1.0000
  H   H48       1.0  0.16990  0.75250  0.09820  1.0000
  C   C81       1.0  0.33781  0.69760  0.35060  1.0000
  C   C82       1.0  0.41219  0.69760  0.89940  1.0000
  C   C83       1.0  0.33781  0.19760  0.85060  1.0000
  C   C84       1.0  0.41219  0.19760  0.39940  1.0000
  C   C85       1.0  0.83781  0.69760  0.85060  1.0000
  C   C86       1.0  0.91219  0.69760  0.39940  1.0000
  C   C87       1.0  0.83781  0.19760  0.35060  1.0000
  C   C88       1.0  0.91219  0.19760  0.89940  1.0000
  C   C89       1.0  0.66219  0.30240  0.64940  1.0000
  C   C90       1.0  0.58781  0.30240  0.10060  1.0000
  C   C91       1.0  0.66219  0.80240  0.14940  1.0000
  C   C92       1.0  0.58781  0.80240  0.60060  1.0000
  C   C93       1.0  0.16219  0.30240  0.14940  1.0000
  C   C94       1.0  0.08781  0.30240  0.60060  1.0000
  C   C95       1.0  0.16219  0.80240  0.64940  1.0000
  C   C96       1.0  0.08781  0.80240  0.10060  1.0000
  H   H49       1.0  0.34210  0.62060  0.34010  1.0000
  H   H50       1.0  0.40790  0.62060  0.90990  1.0000
  H   H51       1.0  0.34210  0.12060  0.84010  1.0000
  H   H52       1.0  0.40790  0.12060  0.40990  1.0000
  H   H53       1.0  0.84210  0.62060  0.84010  1.0000
  H   H54       1.0  0.90790  0.62060  0.40990  1.0000
  H   H55       1.0  0.84210  0.12060  0.34010  1.0000
  H   H56       1.0  0.90790  0.12060  0.90990  1.0000
  H   H57       1.0  0.65790  0.37940  0.65990  1.0000
  H   H58       1.0  0.59210  0.37940  0.09010  1.0000
  H   H59       1.0  0.65790  0.87940  0.15990  1.0000
  H   H60       1.0  0.59210  0.87940  0.59010  1.0000
  H   H61       1.0  0.15790  0.37940  0.15990  1.0000
  H   H62       1.0  0.09210  0.37940  0.59010  1.0000
  H   H63       1.0  0.15790  0.87940  0.65990  1.0000
  H   H64       1.0  0.09210  0.87940  0.09010  1.0000
  C   C97       1.0  0.23643  0.64250  0.35871  1.0000
  C   C98       1.0  0.51357  0.64250  0.89129  1.0000
  C   C99       1.0  0.23643  0.14250  0.85871  1.0000
  C   C100      1.0  0.51357  0.14250  0.39129  1.0000
  C   C101      1.0  0.73643  0.64250  0.85871  1.0000
  C   C102      1.0  0.01357  0.64250  0.39129  1.0000
  C   C103      1.0  0.73643  0.14250  0.35871  1.0000
  C   C104      1.0  0.01357  0.14250  0.89129  1.0000
  C   C105      1.0  0.76357  0.35750  0.64129  1.0000
  C   C106      1.0  0.48643  0.35750  0.10871  1.0000
  C   C107      1.0  0.76357  0.85750  0.14129  1.0000
  C   C108      1.0  0.48643  0.85750  0.60871  1.0000
  C   C109      1.0  0.26357  0.35750  0.14129  1.0000
  C   C110      1.0  0.98643  0.35750  0.60871  1.0000
  C   C111      1.0  0.26357  0.85750  0.64129  1.0000
  C   C112      1.0  0.98643  0.85750  0.10871  1.0000
  C   C113      1.0  0.22204  0.90480  0.38693  1.0000
  C   C114      1.0  0.52796  0.90480  0.86307  1.0000
  C   C115      1.0  0.22204  0.40480  0.88693  1.0000
  C   C116      1.0  0.52796  0.40480  0.36307  1.0000
  C   C117      1.0  0.72204  0.90480  0.88693  1.0000
  C   C118      1.0  0.02796  0.90480  0.36307  1.0000
  C   C119      1.0  0.72204  0.40480  0.38693  1.0000
  C   C120      1.0  0.02796  0.40480  0.86307  1.0000
  C   C121      1.0  0.77796  0.09520  0.61307  1.0000
  C   C122      1.0  0.47204  0.09520  0.13693  1.0000
  C   C123      1.0  0.77796  0.59520  0.11307  1.0000
  C   C124      1.0  0.47204  0.59520  0.63693  1.0000
  C   C125      1.0  0.27796  0.09520  0.11307  1.0000
  C   C126      1.0  0.97204  0.09520  0.63693  1.0000
  C   C127      1.0  0.27796  0.59520  0.61307  1.0000
  C   C128      1.0  0.97204  0.59520  0.13693  1.0000
  Co  Co9       1.0  0.12500  0.56179  0.37500  1.0000
  Co  Co10      1.0  0.62500  0.56179  0.87500  1.0000
  Co  Co11      1.0  0.12500  0.06179  0.87500  1.0000
  Co  Co12      1.0  0.62500  0.06179  0.37500  1.0000
  Co  Co13      1.0  0.87500  0.43821  0.62500  1.0000
  Co  Co14      1.0  0.37500  0.43821  0.12500  1.0000
  Co  Co15      1.0  0.87500  0.93821  0.12500  1.0000
  Co  Co16      1.0  0.37500  0.93821  0.62500  1.0000
  O   O65       1.0  0.14462  0.59314  0.44599  1.0000
  O   O66       1.0  0.60538  0.59314  0.80401  1.0000
  O   O67       1.0  0.14462  0.09314  0.94599  1.0000
  O   O68       1.0  0.60538  0.09314  0.30401  1.0000
  O   O69       1.0  0.64462  0.59314  0.94599  1.0000
  O   O70       1.0  0.10538  0.59314  0.30401  1.0000
  O   O71       1.0  0.64462  0.09314  0.44599  1.0000
  O   O72       1.0  0.10538  0.09314  0.80401  1.0000
  O   O73       1.0  0.85538  0.40686  0.55401  1.0000
  O   O74       1.0  0.39462  0.40686  0.19599  1.0000
  O   O75       1.0  0.85538  0.90686  0.05401  1.0000
  O   O76       1.0  0.39462  0.90686  0.69599  1.0000
  O   O77       1.0  0.35538  0.40686  0.05401  1.0000
  O   O78       1.0  0.89462  0.40686  0.69599  1.0000
  O   O79       1.0  0.35538  0.90686  0.55401  1.0000
  O   O80       1.0  0.89462  0.90686  0.19599  1.0000
  O   O81       1.0  0.14190  0.43533  0.40997  1.0000
  O   O82       1.0  0.60810  0.43533  0.84003  1.0000
  O   O83       1.0  0.14190  0.93533  0.90997  1.0000
  O   O84       1.0  0.60810  0.93533  0.34003  1.0000
  O   O85       1.0  0.64190  0.43533  0.90997  1.0000
  O   O86       1.0  0.10810  0.43533  0.34003  1.0000
  O   O87       1.0  0.64190  0.93533  0.40997  1.0000
  O   O88       1.0  0.10810  0.93533  0.84003  1.0000
  O   O89       1.0  0.85810  0.56467  0.59003  1.0000
  O   O90       1.0  0.39190  0.56467  0.15997  1.0000
  O   O91       1.0  0.85810  0.06467  0.09003  1.0000
  O   O92       1.0  0.39190  0.06467  0.65997  1.0000
  O   O93       1.0  0.35810  0.56467  0.09003  1.0000
  O   O94       1.0  0.89190  0.56467  0.65997  1.0000
  O   O95       1.0  0.35810  0.06467  0.59003  1.0000
  O   O96       1.0  0.89190  0.06467  0.15997  1.0000
  O   O97       1.0  0.22072  0.20987  0.40992  1.0000
  O   O98       1.0  0.52928  0.20987  0.84008  1.0000
  O   O99       1.0  0.22072  0.70987  0.90992  1.0000
  O   O100      1.0  0.52928  0.70987  0.34008  1.0000
  O   O101      1.0  0.72072  0.20987  0.90992  1.0000
  O   O102      1.0  0.02928  0.20987  0.34008  1.0000
  O   O103      1.0  0.72072  0.70987  0.40992  1.0000
  O   O104      1.0  0.02928  0.70987  0.84008  1.0000
  O   O105      1.0  0.77928  0.79013  0.59008  1.0000
  O   O106      1.0  0.47072  0.79013  0.15992  1.0000
  O   O107      1.0  0.77928  0.29013  0.09008  1.0000
  O   O108      1.0  0.47072  0.29013  0.65992  1.0000
  O   O109      1.0  0.27928  0.79013  0.09008  1.0000
  O   O110      1.0  0.97072  0.79013  0.65992  1.0000
  O   O111      1.0  0.27928  0.29013  0.59008  1.0000
  O   O112      1.0  0.97072  0.29013  0.15992  1.0000
  O   O113      1.0  0.13054  0.15257  0.41659  1.0000
  O   O114      1.0  0.61946  0.15257  0.83341  1.0000
  O   O115      1.0  0.13054  0.65257  0.91659  1.0000
  O   O116      1.0  0.61946  0.65257  0.33341  1.0000
  O   O117      1.0  0.63054  0.15257  0.91659  1.0000
  O   O118      1.0  0.11946  0.15257  0.33341  1.0000
  O   O119      1.0  0.63054  0.65257  0.41659  1.0000
  O   O120      1.0  0.11946  0.65257  0.83341  1.0000
  O   O121      1.0  0.86946  0.84743  0.58341  1.0000
  O   O122      1.0  0.38054  0.84743  0.16659  1.0000
  O   O123      1.0  0.86946  0.34743  0.08341  1.0000
  O   O124      1.0  0.38054  0.34743  0.66659  1.0000
  O   O125      1.0  0.36946  0.84743  0.08341  1.0000
  O   O126      1.0  0.88054  0.84743  0.66659  1.0000
  O   O127      1.0  0.36946  0.34743  0.58341  1.0000
  O   O128      1.0  0.88054  0.34743  0.16659  1.0000
  C   C129      1.0  0.16462  0.39070  0.46715  1.0000
  C   C130      1.0  0.58538  0.39070  0.78285  1.0000
  C   C131      1.0  0.16462  0.89070  0.96715  1.0000
  C   C132      1.0  0.58538  0.89070  0.28285  1.0000
  C   C133      1.0  0.66462  0.39070  0.96715  1.0000
  C   C134      1.0  0.08538  0.39070  0.28285  1.0000
  C   C135      1.0  0.66462  0.89070  0.46715  1.0000
  C   C136      1.0  0.08538  0.89070  0.78285  1.0000
  C   C137      1.0  0.83538  0.60930  0.53285  1.0000
  C   C138      1.0  0.41462  0.60930  0.21715  1.0000
  C   C139      1.0  0.83538  0.10930  0.03285  1.0000
  C   C140      1.0  0.41462  0.10930  0.71715  1.0000
  C   C141      1.0  0.33538  0.60930  0.03285  1.0000
  C   C142      1.0  0.91462  0.60930  0.71715  1.0000
  C   C143      1.0  0.33538  0.10930  0.53285  1.0000
  C   C144      1.0  0.91462  0.10930  0.21715  1.0000
  C   C145      1.0  0.17441  0.26380  0.46111  1.0000
  C   C146      1.0  0.57559  0.26380  0.78889  1.0000
  C   C147      1.0  0.17441  0.76380  0.96111  1.0000
  C   C148      1.0  0.57559  0.76380  0.28889  1.0000
  C   C149      1.0  0.67441  0.26380  0.96111  1.0000
  C   C150      1.0  0.07559  0.26380  0.28889  1.0000
  C   C151      1.0  0.67441  0.76380  0.46111  1.0000
  C   C152      1.0  0.07559  0.76380  0.78889  1.0000
  C   C153      1.0  0.82559  0.73620  0.53889  1.0000
  C   C154      1.0  0.42441  0.73620  0.21111  1.0000
  C   C155      1.0  0.82559  0.23620  0.03889  1.0000
  C   C156      1.0  0.42441  0.23620  0.71111  1.0000
  C   C157      1.0  0.32559  0.73620  0.03889  1.0000
  C   C158      1.0  0.92441  0.73620  0.71111  1.0000
  C   C159      1.0  0.32559  0.23620  0.53889  1.0000
  C   C160      1.0  0.92441  0.23620  0.21111  1.0000
  C   C161      1.0  0.18453  0.18420  0.48830  1.0000
  C   C162      1.0  0.56547  0.18420  0.76170  1.0000
  C   C163      1.0  0.18453  0.68420  0.98830  1.0000
  C   C164      1.0  0.56547  0.68420  0.26170  1.0000
  C   C165      1.0  0.68453  0.18420  0.98830  1.0000
  C   C166      1.0  0.06547  0.18420  0.26170  1.0000
  C   C167      1.0  0.68453  0.68420  0.48830  1.0000
  C   C168      1.0  0.06547  0.68420  0.76170  1.0000
  C   C169      1.0  0.81547  0.81580  0.51170  1.0000
  C   C170      1.0  0.43453  0.81580  0.23830  1.0000
  C   C171      1.0  0.81547  0.31580  0.01170  1.0000
  C   C172      1.0  0.43453  0.31580  0.73830  1.0000
  C   C173      1.0  0.31547  0.81580  0.01170  1.0000
  C   C174      1.0  0.93453  0.81580  0.73830  1.0000
  C   C175      1.0  0.31547  0.31580  0.51170  1.0000
  C   C176      1.0  0.93453  0.31580  0.23830  1.0000
  H   H65       1.0  0.18980  0.09960  0.48440  1.0000
  H   H66       1.0  0.56020  0.09960  0.76560  1.0000
  H   H67       1.0  0.18980  0.59960  0.98440  1.0000
  H   H68       1.0  0.56020  0.59960  0.26560  1.0000
  H   H69       1.0  0.68980  0.09960  0.98440  1.0000
  H   H70       1.0  0.06020  0.09960  0.26560  1.0000
  H   H71       1.0  0.68980  0.59960  0.48440  1.0000
  H   H72       1.0  0.06020  0.59960  0.76560  1.0000
  H   H73       1.0  0.81020  0.90040  0.51560  1.0000
  H   H74       1.0  0.43980  0.90040  0.23440  1.0000
  H   H75       1.0  0.81020  0.40040  0.01560  1.0000
  H   H76       1.0  0.43980  0.40040  0.73440  1.0000
  H   H77       1.0  0.31020  0.90040  0.01560  1.0000
  H   H78       1.0  0.93980  0.90040  0.73440  1.0000
  H   H79       1.0  0.31020  0.40040  0.51560  1.0000
  H   H80       1.0  0.93980  0.40040  0.23440  1.0000
  C   C177      1.0  0.18687  0.22910  0.52088  1.0000
  C   C178      1.0  0.56313  0.22910  0.72912  1.0000
  C   C179      1.0  0.18687  0.72910  0.02088  1.0000
  C   C180      1.0  0.56313  0.72910  0.22912  1.0000
  C   C181      1.0  0.68687  0.22910  0.02088  1.0000
  C   C182      1.0  0.06313  0.22910  0.22912  1.0000
  C   C183      1.0  0.68687  0.72910  0.52088  1.0000
  C   C184      1.0  0.06313  0.72910  0.72912  1.0000
  C   C185      1.0  0.81313  0.77090  0.47912  1.0000
  C   C186      1.0  0.43687  0.77090  0.27088  1.0000
  C   C187      1.0  0.81313  0.27090  0.97912  1.0000
  C   C188      1.0  0.43687  0.27090  0.77088  1.0000
  C   C189      1.0  0.31313  0.77090  0.97912  1.0000
  C   C190      1.0  0.93687  0.77090  0.77088  1.0000
  C   C191      1.0  0.31313  0.27090  0.47912  1.0000
  C   C192      1.0  0.93687  0.27090  0.27088  1.0000
  H   H81       1.0  0.19340  0.17490  0.53880  1.0000
  H   H82       1.0  0.55660  0.17490  0.71120  1.0000
  H   H83       1.0  0.19340  0.67490  0.03880  1.0000
  H   H84       1.0  0.55660  0.67490  0.21120  1.0000
  H   H85       1.0  0.69340  0.17490  0.03880  1.0000
  H   H86       1.0  0.05660  0.17490  0.21120  1.0000
  H   H87       1.0  0.69340  0.67490  0.53880  1.0000
  H   H88       1.0  0.05660  0.67490  0.71120  1.0000
  H   H89       1.0  0.80660  0.82510  0.46120  1.0000
  H   H90       1.0  0.44340  0.82510  0.28880  1.0000
  H   H91       1.0  0.80660  0.32510  0.96120  1.0000
  H   H92       1.0  0.44340  0.32510  0.78880  1.0000
  H   H93       1.0  0.30660  0.82510  0.96120  1.0000
  H   H94       1.0  0.94340  0.82510  0.78880  1.0000
  H   H95       1.0  0.30660  0.32510  0.46120  1.0000
  H   H96       1.0  0.94340  0.32510  0.28880  1.0000
  C   C193      1.0  0.17944  0.35580  0.52693  1.0000
  C   C194      1.0  0.57056  0.35580  0.72307  1.0000
  C   C195      1.0  0.17944  0.85580  0.02693  1.0000
  C   C196      1.0  0.57056  0.85580  0.22307  1.0000
  C   C197      1.0  0.67944  0.35580  0.02693  1.0000
  C   C198      1.0  0.07056  0.35580  0.22307  1.0000
  C   C199      1.0  0.67944  0.85580  0.52693  1.0000
  C   C200      1.0  0.07056  0.85580  0.72307  1.0000
  C   C201      1.0  0.82056  0.64420  0.47307  1.0000
  C   C202      1.0  0.42944  0.64420  0.27693  1.0000
  C   C203      1.0  0.82056  0.14420  0.97307  1.0000
  C   C204      1.0  0.42944  0.14420  0.77693  1.0000
  C   C205      1.0  0.32056  0.64420  0.97307  1.0000
  C   C206      1.0  0.92944  0.64420  0.77693  1.0000
  C   C207      1.0  0.32056  0.14420  0.47307  1.0000
  C   C208      1.0  0.92944  0.14420  0.27693  1.0000
  H   H97       1.0  0.18210  0.38710  0.54880  1.0000
  H   H98       1.0  0.56790  0.38710  0.70120  1.0000
  H   H99       1.0  0.18210  0.88710  0.04880  1.0000
  H   H100      1.0  0.56790  0.88710  0.20120  1.0000
  H   H101      1.0  0.68210  0.38710  0.04880  1.0000
  H   H102      1.0  0.06790  0.38710  0.20120  1.0000
  H   H103      1.0  0.68210  0.88710  0.54880  1.0000
  H   H104      1.0  0.06790  0.88710  0.70120  1.0000
  H   H105      1.0  0.81790  0.61290  0.45120  1.0000
  H   H106      1.0  0.43210  0.61290  0.29880  1.0000
  H   H107      1.0  0.81790  0.11290  0.95120  1.0000
  H   H108      1.0  0.43210  0.11290  0.79880  1.0000
  H   H109      1.0  0.31790  0.61290  0.95120  1.0000
  H   H110      1.0  0.93210  0.61290  0.79880  1.0000
  H   H111      1.0  0.31790  0.11290  0.45120  1.0000
  H   H112      1.0  0.93210  0.11290  0.29880  1.0000
  C   C209      1.0  0.16811  0.43410  0.50029  1.0000
  C   C210      1.0  0.58189  0.43410  0.74971  1.0000
  C   C211      1.0  0.16811  0.93410  0.00029  1.0000
  C   C212      1.0  0.58189  0.93410  0.24971  1.0000
  C   C213      1.0  0.66811  0.43410  0.00029  1.0000
  C   C214      1.0  0.08189  0.43410  0.24971  1.0000
  C   C215      1.0  0.66811  0.93410  0.50029  1.0000
  C   C216      1.0  0.08189  0.93410  0.74971  1.0000
  C   C217      1.0  0.83189  0.56590  0.49971  1.0000
  C   C218      1.0  0.41811  0.56590  0.25029  1.0000
  C   C219      1.0  0.83189  0.06590  0.99971  1.0000
  C   C220      1.0  0.41811  0.06590  0.75029  1.0000
  C   C221      1.0  0.33189  0.56590  0.99971  1.0000
  C   C222      1.0  0.91811  0.56590  0.75029  1.0000
  C   C223      1.0  0.33189  0.06590  0.49971  1.0000
  C   C224      1.0  0.91811  0.06590  0.25029  1.0000
  H   H113      1.0  0.16260  0.51850  0.50450  1.0000
  H   H114      1.0  0.58740  0.51850  0.74550  1.0000
  H   H115      1.0  0.16260  0.01850  0.00450  1.0000
  H   H116      1.0  0.58740  0.01850  0.24550  1.0000
  H   H117      1.0  0.66260  0.51850  0.00450  1.0000
  H   H118      1.0  0.08740  0.51850  0.24550  1.0000
  H   H119      1.0  0.66260  0.01850  0.50450  1.0000
  H   H120      1.0  0.08740  0.01850  0.74550  1.0000
  H   H121      1.0  0.83740  0.48150  0.49550  1.0000
  H   H122      1.0  0.41260  0.48150  0.25450  1.0000
  H   H123      1.0  0.83740  0.98150  0.99550  1.0000
  H   H124      1.0  0.41260  0.98150  0.75450  1.0000
  H   H125      1.0  0.33740  0.48150  0.99550  1.0000
  H   H126      1.0  0.91260  0.48150  0.75450  1.0000
  H   H127      1.0  0.33740  0.98150  0.49550  1.0000
  H   H128      1.0  0.91260  0.98150  0.25450  1.0000
  C   C225      1.0  0.14978  0.48080  0.43950  1.0000
  C   C226      1.0  0.60022  0.48080  0.81050  1.0000
  C   C227      1.0  0.14978  0.98080  0.93950  1.0000
  C   C228      1.0  0.60022  0.98080  0.31050  1.0000
  C   C229      1.0  0.64978  0.48080  0.93950  1.0000
  C   C230      1.0  0.10022  0.48080  0.31050  1.0000
  C   C231      1.0  0.64978  0.98080  0.43950  1.0000
  C   C232      1.0  0.10022  0.98080  0.81050  1.0000
  C   C233      1.0  0.85022  0.51920  0.56050  1.0000
  C   C234      1.0  0.39978  0.51920  0.18950  1.0000
  C   C235      1.0  0.85022  0.01920  0.06050  1.0000
  C   C236      1.0  0.39978  0.01920  0.68950  1.0000
  C   C237      1.0  0.35022  0.51920  0.06050  1.0000
  C   C238      1.0  0.89978  0.51920  0.68950  1.0000
  C   C239      1.0  0.35022  0.01920  0.56050  1.0000
  C   C240      1.0  0.89978  0.01920  0.18950  1.0000
  C   C241      1.0  0.17643  0.20810  0.42621  1.0000
  C   C242      1.0  0.57357  0.20810  0.82379  1.0000
  C   C243      1.0  0.17643  0.70810  0.92621  1.0000
  C   C244      1.0  0.57357  0.70810  0.32379  1.0000
  C   C245      1.0  0.67643  0.20810  0.92621  1.0000
  C   C246      1.0  0.07357  0.20810  0.32379  1.0000
  C   C247      1.0  0.67643  0.70810  0.42621  1.0000
  C   C248      1.0  0.07357  0.70810  0.82379  1.0000
  C   C249      1.0  0.82357  0.79190  0.57379  1.0000
  C   C250      1.0  0.42643  0.79190  0.17621  1.0000
  C   C251      1.0  0.82357  0.29190  0.07379  1.0000
  C   C252      1.0  0.42643  0.29190  0.67621  1.0000
  C   C253      1.0  0.32357  0.79190  0.07379  1.0000
  C   C254      1.0  0.92643  0.79190  0.67621  1.0000
  C   C255      1.0  0.32357  0.29190  0.57379  1.0000
  C   C256      1.0  0.92643  0.29190  0.17621  1.0000
