data_image0
_chemical_formula_structural       C40H8C8H8C8H8C8H8C8H8C24H8C8H8C8H8C8H8C8H8C8H8C8H8C16H8C8H8C8H8C16H32N32O80Cu32I32In12
_chemical_formula_sum              "C192 H152 N32 O80 Cu32 I32 In12"
_cell_length_a       15.7352
_cell_length_b       32.9364
_cell_length_c       36.5832
_cell_angle_alpha    90
_cell_angle_beta     90
_cell_angle_gamma    90

_space_group_name_H-M_alt    "P 1"
_space_group_IT_number       1

loop_
  _space_group_symop_operation_xyz
  'x, y, z'

loop_
  _atom_site_type_symbol
  _atom_site_label
  _atom_site_symmetry_multiplicity
  _atom_site_fract_x
  _atom_site_fract_y
  _atom_site_fract_z
  _atom_site_occupancy
  C   C1        1.0  0.53700  0.80120  0.18720  1.0000
  C   C2        1.0  0.96300  0.69880  0.68720  1.0000
  C   C3        1.0  0.46300  0.80120  0.31280  1.0000
  C   C4        1.0  0.03700  0.69880  0.81280  1.0000
  C   C5        1.0  0.46300  0.19880  0.81280  1.0000
  C   C6        1.0  0.03700  0.30120  0.31280  1.0000
  C   C7        1.0  0.53700  0.19880  0.68720  1.0000
  C   C8        1.0  0.96300  0.30120  0.18720  1.0000
  C   C9        1.0  0.59490  0.76530  0.17800  1.0000
  C   C10       1.0  0.90510  0.73470  0.67800  1.0000
  C   C11       1.0  0.40510  0.76530  0.32200  1.0000
  C   C12       1.0  0.09490  0.73470  0.82200  1.0000
  C   C13       1.0  0.40510  0.23470  0.82200  1.0000
  C   C14       1.0  0.09490  0.26530  0.32200  1.0000
  C   C15       1.0  0.59490  0.23470  0.67800  1.0000
  C   C16       1.0  0.90510  0.26530  0.17800  1.0000
  C   C17       1.0  0.97760  0.42270  0.18434  1.0000
  C   C18       1.0  0.52240  0.07730  0.68434  1.0000
  C   C19       1.0  0.02240  0.42270  0.31566  1.0000
  C   C20       1.0  0.47760  0.07730  0.81566  1.0000
  C   C21       1.0  0.02240  0.57730  0.81566  1.0000
  C   C22       1.0  0.47760  0.92270  0.31566  1.0000
  C   C23       1.0  0.97760  0.57730  0.68434  1.0000
  C   C24       1.0  0.52240  0.92270  0.18434  1.0000
  C   C25       1.0  0.95000  0.46380  0.17250  1.0000
  C   C26       1.0  0.55000  0.03620  0.67250  1.0000
  C   C27       1.0  0.05000  0.46380  0.32750  1.0000
  C   C28       1.0  0.45000  0.03620  0.82750  1.0000
  C   C29       1.0  0.05000  0.53620  0.82750  1.0000
  C   C30       1.0  0.45000  0.96380  0.32750  1.0000
  C   C31       1.0  0.95000  0.53620  0.67250  1.0000
  C   C32       1.0  0.55000  0.96380  0.17250  1.0000
  C   C33       1.0  0.90350  0.48900  0.19510  1.0000
  C   C34       1.0  0.59650  0.01100  0.69510  1.0000
  C   C35       1.0  0.09650  0.48900  0.30490  1.0000
  C   C36       1.0  0.40350  0.01100  0.80490  1.0000
  C   C37       1.0  0.09650  0.51100  0.80490  1.0000
  C   C38       1.0  0.40350  0.98900  0.30490  1.0000
  C   C39       1.0  0.90350  0.51100  0.69510  1.0000
  C   C40       1.0  0.59650  0.98900  0.19510  1.0000
  H   H1        1.0  0.88550  0.48000  0.21790  1.0000
  H   H2        1.0  0.61450  0.02000  0.71790  1.0000
  H   H3        1.0  0.11450  0.48000  0.28210  1.0000
  H   H4        1.0  0.38550  0.02000  0.78210  1.0000
  H   H5        1.0  0.11450  0.52000  0.78210  1.0000
  H   H6        1.0  0.38550  0.98000  0.28210  1.0000
  H   H7        1.0  0.88550  0.52000  0.71790  1.0000
  H   H8        1.0  0.61450  0.98000  0.21790  1.0000
  C   C41       1.0  0.58300  0.74320  0.14610  1.0000
  C   C42       1.0  0.91700  0.75680  0.64610  1.0000
  C   C43       1.0  0.41700  0.74320  0.35390  1.0000
  C   C44       1.0  0.08300  0.75680  0.85390  1.0000
  C   C45       1.0  0.41700  0.25680  0.85390  1.0000
  C   C46       1.0  0.08300  0.24320  0.35390  1.0000
  C   C47       1.0  0.58300  0.25680  0.64610  1.0000
  C   C48       1.0  0.91700  0.24320  0.14610  1.0000
  H   H9        1.0  0.53780  0.74880  0.13050  1.0000
  H   H10       1.0  0.96220  0.75120  0.63050  1.0000
  H   H11       1.0  0.46220  0.74880  0.36950  1.0000
  H   H12       1.0  0.03780  0.75120  0.86950  1.0000
  H   H13       1.0  0.46220  0.25120  0.86950  1.0000
  H   H14       1.0  0.03780  0.24880  0.36950  1.0000
  H   H15       1.0  0.53780  0.25120  0.63050  1.0000
  H   H16       1.0  0.96220  0.24880  0.13050  1.0000
  C   C49       1.0  0.88410  0.52780  0.18320  1.0000
  C   C50       1.0  0.61590  0.97220  0.68320  1.0000
  C   C51       1.0  0.11590  0.52780  0.31680  1.0000
  C   C52       1.0  0.38410  0.97220  0.81680  1.0000
  C   C53       1.0  0.11590  0.47220  0.81680  1.0000
  C   C54       1.0  0.38410  0.02780  0.31680  1.0000
  C   C55       1.0  0.88410  0.47220  0.68320  1.0000
  C   C56       1.0  0.61590  0.02780  0.18320  1.0000
  H   H17       1.0  0.85180  0.54400  0.19880  1.0000
  H   H18       1.0  0.64820  0.95600  0.69880  1.0000
  H   H19       1.0  0.14820  0.54400  0.30120  1.0000
  H   H20       1.0  0.35180  0.95600  0.80120  1.0000
  H   H21       1.0  0.14820  0.45600  0.80120  1.0000
  H   H22       1.0  0.35180  0.04400  0.30120  1.0000
  H   H23       1.0  0.85180  0.45600  0.69880  1.0000
  H   H24       1.0  0.64820  0.04400  0.19880  1.0000
  C   C57       1.0  0.97150  0.47960  0.13960  1.0000
  C   C58       1.0  0.52850  0.02040  0.63960  1.0000
  C   C59       1.0  0.02850  0.47960  0.36040  1.0000
  C   C60       1.0  0.47150  0.02040  0.86040  1.0000
  C   C61       1.0  0.02850  0.52040  0.86040  1.0000
  C   C62       1.0  0.47150  0.97960  0.36040  1.0000
  C   C63       1.0  0.97150  0.52040  0.63960  1.0000
  C   C64       1.0  0.52850  0.97960  0.13960  1.0000
  H   H25       1.0  0.00030  0.46340  0.12290  1.0000
  H   H26       1.0  0.49970  0.03660  0.62290  1.0000
  H   H27       1.0  0.99970  0.46340  0.37710  1.0000
  H   H28       1.0  0.50030  0.03660  0.87710  1.0000
  H   H29       1.0  0.99970  0.53660  0.87710  1.0000
  H   H30       1.0  0.50030  0.96340  0.37710  1.0000
  H   H31       1.0  0.00030  0.53660  0.62290  1.0000
  H   H32       1.0  0.49970  0.96340  0.12290  1.0000
  C   C65       1.0  0.95240  0.51880  0.13000  1.0000
  C   C66       1.0  0.54760  0.98120  0.63000  1.0000
  C   C67       1.0  0.04760  0.51880  0.37000  1.0000
  C   C68       1.0  0.45240  0.98120  0.87000  1.0000
  C   C69       1.0  0.04760  0.48120  0.87000  1.0000
  C   C70       1.0  0.45240  0.01880  0.37000  1.0000
  C   C71       1.0  0.95240  0.48120  0.63000  1.0000
  C   C72       1.0  0.54760  0.01880  0.13000  1.0000
  H   H33       1.0  0.97110  0.52870  0.10750  1.0000
  H   H34       1.0  0.52890  0.97130  0.60750  1.0000
  H   H35       1.0  0.02890  0.52870  0.39250  1.0000
  H   H36       1.0  0.47110  0.97130  0.89250  1.0000
  H   H37       1.0  0.02890  0.47130  0.89250  1.0000
  H   H38       1.0  0.47110  0.02870  0.39250  1.0000
  H   H39       1.0  0.97110  0.47130  0.60750  1.0000
  H   H40       1.0  0.52890  0.02870  0.10750  1.0000
  C   C73       1.0  0.25600  0.79480  0.19110  1.0000
  C   C74       1.0  0.24400  0.70520  0.69110  1.0000
  C   C75       1.0  0.74400  0.79480  0.30890  1.0000
  C   C76       1.0  0.75600  0.70520  0.80890  1.0000
  C   C77       1.0  0.74400  0.20520  0.80890  1.0000
  C   C78       1.0  0.75600  0.29480  0.30890  1.0000
  C   C79       1.0  0.25600  0.20520  0.69110  1.0000
  C   C80       1.0  0.24400  0.29480  0.19110  1.0000
  C   C81       1.0  0.18830  0.76450  0.18170  1.0000
  C   C82       1.0  0.31170  0.73550  0.68170  1.0000
  C   C83       1.0  0.81170  0.76450  0.31830  1.0000
  C   C84       1.0  0.68830  0.73550  0.81830  1.0000
  C   C85       1.0  0.81170  0.23550  0.81830  1.0000
  C   C86       1.0  0.68830  0.26450  0.31830  1.0000
  C   C87       1.0  0.18830  0.23550  0.68170  1.0000
  C   C88       1.0  0.31170  0.26450  0.18170  1.0000
  C   C89       1.0  0.65550  0.75360  0.20150  1.0000
  C   C90       1.0  0.84450  0.74640  0.70150  1.0000
  C   C91       1.0  0.34450  0.75360  0.29850  1.0000
  C   C92       1.0  0.15550  0.74640  0.79850  1.0000
  C   C93       1.0  0.34450  0.24640  0.79850  1.0000
  C   C94       1.0  0.15550  0.25360  0.29850  1.0000
  C   C95       1.0  0.65550  0.24640  0.70150  1.0000
  C   C96       1.0  0.84450  0.25360  0.20150  1.0000
  H   H41       1.0  0.66200  0.76660  0.22390  1.0000
  H   H42       1.0  0.83800  0.73340  0.72390  1.0000
  H   H43       1.0  0.33800  0.76660  0.27610  1.0000
  H   H44       1.0  0.16200  0.73340  0.77610  1.0000
  H   H45       1.0  0.33800  0.23340  0.77610  1.0000
  H   H46       1.0  0.16200  0.26660  0.27610  1.0000
  H   H47       1.0  0.66200  0.23340  0.72390  1.0000
  H   H48       1.0  0.83800  0.26660  0.22390  1.0000
  C   C97       1.0  0.70820  0.72190  0.19190  1.0000
  C   C98       1.0  0.79180  0.77810  0.69190  1.0000
  C   C99       1.0  0.29180  0.72190  0.30810  1.0000
  C   C100      1.0  0.20820  0.77810  0.80810  1.0000
  C   C101      1.0  0.29180  0.27810  0.80810  1.0000
  C   C102      1.0  0.20820  0.22190  0.30810  1.0000
  C   C103      1.0  0.70820  0.27810  0.69190  1.0000
  C   C104      1.0  0.79180  0.22190  0.19190  1.0000
  H   H49       1.0  0.75010  0.71420  0.20840  1.0000
  H   H50       1.0  0.74990  0.78580  0.70840  1.0000
  H   H51       1.0  0.24990  0.71420  0.29160  1.0000
  H   H52       1.0  0.25010  0.78580  0.79160  1.0000
  H   H53       1.0  0.24990  0.28580  0.79160  1.0000
  H   H54       1.0  0.25010  0.21420  0.29160  1.0000
  H   H55       1.0  0.75010  0.28580  0.70840  1.0000
  H   H56       1.0  0.74990  0.21420  0.20840  1.0000
  C   C105      1.0  0.63960  0.71320  0.13830  1.0000
  C   C106      1.0  0.86040  0.78680  0.63830  1.0000
  C   C107      1.0  0.36040  0.71320  0.36170  1.0000
  C   C108      1.0  0.13960  0.78680  0.86170  1.0000
  C   C109      1.0  0.36040  0.28680  0.86170  1.0000
  C   C110      1.0  0.13960  0.21320  0.36170  1.0000
  C   C111      1.0  0.63960  0.28680  0.63830  1.0000
  C   C112      1.0  0.86040  0.21320  0.13830  1.0000
  H   H57       1.0  0.63420  0.69980  0.11610  1.0000
  H   H58       1.0  0.86580  0.80020  0.61610  1.0000
  H   H59       1.0  0.36580  0.69980  0.38390  1.0000
  H   H60       1.0  0.13420  0.80020  0.88390  1.0000
  H   H61       1.0  0.36580  0.30020  0.88390  1.0000
  H   H62       1.0  0.13420  0.19980  0.38390  1.0000
  H   H63       1.0  0.63420  0.30020  0.61610  1.0000
  H   H64       1.0  0.86580  0.19980  0.11610  1.0000
  C   C113      1.0  0.08100  0.71630  0.19630  1.0000
  C   C114      1.0  0.41900  0.78370  0.69630  1.0000
  C   C115      1.0  0.91900  0.71630  0.30370  1.0000
  C   C116      1.0  0.58100  0.78370  0.80370  1.0000
  C   C117      1.0  0.91900  0.28370  0.80370  1.0000
  C   C118      1.0  0.58100  0.21630  0.30370  1.0000
  C   C119      1.0  0.08100  0.28370  0.69630  1.0000
  C   C120      1.0  0.41900  0.21630  0.19630  1.0000
  H   H65       1.0  0.05310  0.70170  0.21450  1.0000
  H   H66       1.0  0.44690  0.79830  0.71450  1.0000
  H   H67       1.0  0.94690  0.70170  0.28550  1.0000
  H   H68       1.0  0.55310  0.79830  0.78550  1.0000
  H   H69       1.0  0.94690  0.29830  0.78550  1.0000
  H   H70       1.0  0.55310  0.20170  0.28550  1.0000
  H   H71       1.0  0.05310  0.29830  0.71450  1.0000
  H   H72       1.0  0.44690  0.20170  0.21450  1.0000
  C   C121      1.0  0.10270  0.73390  0.13730  1.0000
  C   C122      1.0  0.39730  0.76610  0.63730  1.0000
  C   C123      1.0  0.89730  0.73390  0.36270  1.0000
  C   C124      1.0  0.60270  0.76610  0.86270  1.0000
  C   C125      1.0  0.89730  0.26610  0.86270  1.0000
  C   C126      1.0  0.60270  0.23390  0.36270  1.0000
  C   C127      1.0  0.10270  0.26610  0.63730  1.0000
  C   C128      1.0  0.39730  0.23390  0.13730  1.0000
  H   H73       1.0  0.08580  0.73330  0.11290  1.0000
  H   H74       1.0  0.41420  0.76670  0.61290  1.0000
  H   H75       1.0  0.91420  0.73330  0.38710  1.0000
  H   H76       1.0  0.58580  0.76670  0.88710  1.0000
  H   H77       1.0  0.91420  0.26670  0.88710  1.0000
  H   H78       1.0  0.58580  0.23330  0.38710  1.0000
  H   H79       1.0  0.08580  0.26670  0.61290  1.0000
  H   H80       1.0  0.41420  0.23330  0.11290  1.0000
  C   C129      1.0  0.16800  0.75630  0.14580  1.0000
  C   C130      1.0  0.33200  0.74370  0.64580  1.0000
  C   C131      1.0  0.83200  0.75630  0.35420  1.0000
  C   C132      1.0  0.66800  0.74370  0.85420  1.0000
  C   C133      1.0  0.83200  0.24370  0.85420  1.0000
  C   C134      1.0  0.66800  0.25630  0.35420  1.0000
  C   C135      1.0  0.16800  0.24370  0.64580  1.0000
  C   C136      1.0  0.33200  0.25630  0.14580  1.0000
  H   H81       1.0  0.20160  0.76700  0.12730  1.0000
  H   H82       1.0  0.29840  0.73300  0.62730  1.0000
  H   H83       1.0  0.79840  0.76700  0.37270  1.0000
  H   H84       1.0  0.70160  0.73300  0.87270  1.0000
  H   H85       1.0  0.79840  0.23300  0.87270  1.0000
  H   H86       1.0  0.70160  0.26700  0.37270  1.0000
  H   H87       1.0  0.20160  0.23300  0.62730  1.0000
  H   H88       1.0  0.29840  0.26700  0.12730  1.0000
  C   C137      1.0  0.14390  0.74180  0.20640  1.0000
  C   C138      1.0  0.35610  0.75820  0.70640  1.0000
  C   C139      1.0  0.85610  0.74180  0.29360  1.0000
  C   C140      1.0  0.64390  0.75820  0.79360  1.0000
  C   C141      1.0  0.85610  0.25820  0.79360  1.0000
  C   C142      1.0  0.64390  0.24180  0.29360  1.0000
  C   C143      1.0  0.14390  0.25820  0.70640  1.0000
  C   C144      1.0  0.35610  0.24180  0.20640  1.0000
  H   H89       1.0  0.15750  0.74400  0.23100  1.0000
  H   H90       1.0  0.34250  0.75600  0.73100  1.0000
  H   H91       1.0  0.84250  0.74400  0.26900  1.0000
  H   H92       1.0  0.65750  0.75600  0.76900  1.0000
  H   H93       1.0  0.84250  0.25600  0.76900  1.0000
  H   H94       1.0  0.65750  0.24400  0.26900  1.0000
  H   H95       1.0  0.15750  0.25600  0.73100  1.0000
  H   H96       1.0  0.34250  0.24400  0.23100  1.0000
  C   C145      1.0  0.88160  0.61930  0.91767  1.0000
  C   C146      1.0  0.61840  0.88070  0.41767  1.0000
  C   C147      1.0  0.11840  0.61930  0.58233  1.0000
  C   C148      1.0  0.38160  0.88070  0.08233  1.0000
  C   C149      1.0  0.11840  0.38070  0.08233  1.0000
  C   C150      1.0  0.38160  0.11930  0.58233  1.0000
  C   C151      1.0  0.88160  0.38070  0.41767  1.0000
  C   C152      1.0  0.61840  0.11930  0.91767  1.0000
  C   C153      1.0  0.87970  0.60590  0.01552  1.0000
  C   C154      1.0  0.62030  0.89410  0.51552  1.0000
  C   C155      1.0  0.12030  0.60590  0.48448  1.0000
  C   C156      1.0  0.37970  0.89410  0.98448  1.0000
  C   C157      1.0  0.12030  0.39410  0.98448  1.0000
  C   C158      1.0  0.37970  0.10590  0.48448  1.0000
  C   C159      1.0  0.87970  0.39410  0.51552  1.0000
  C   C160      1.0  0.62030  0.10590  0.01552  1.0000
  H   H97       1.0  0.87840  0.58610  0.03370  1.0000
  H   H98       1.0  0.62160  0.91390  0.53370  1.0000
  H   H99       1.0  0.12160  0.58610  0.46630  1.0000
  H   H100      1.0  0.37840  0.91390  0.96630  1.0000
  H   H101      1.0  0.12160  0.41390  0.96630  1.0000
  H   H102      1.0  0.37840  0.08610  0.46630  1.0000
  H   H103      1.0  0.87840  0.41390  0.53370  1.0000
  H   H104      1.0  0.62160  0.08610  0.03370  1.0000
  C   C161      1.0  0.88010  0.59430  0.97920  1.0000
  C   C162      1.0  0.61990  0.90570  0.47920  1.0000
  C   C163      1.0  0.11990  0.59430  0.52080  1.0000
  C   C164      1.0  0.38010  0.90570  0.02080  1.0000
  C   C165      1.0  0.11990  0.40570  0.02080  1.0000
  C   C166      1.0  0.38010  0.09430  0.52080  1.0000
  C   C167      1.0  0.88010  0.40570  0.47920  1.0000
  C   C168      1.0  0.61990  0.09430  0.97920  1.0000
  H   H105      1.0  0.87840  0.56690  0.97300  1.0000
  H   H106      1.0  0.62160  0.93310  0.47300  1.0000
  H   H107      1.0  0.12160  0.56690  0.52700  1.0000
  H   H108      1.0  0.37840  0.93310  0.02700  1.0000
  H   H109      1.0  0.12160  0.43310  0.02700  1.0000
  H   H110      1.0  0.37840  0.06690  0.52700  1.0000
  H   H111      1.0  0.87840  0.43310  0.47300  1.0000
  H   H112      1.0  0.62160  0.06690  0.97300  1.0000
  C   C169      1.0  0.88510  0.67550  0.99800  1.0000
  C   C170      1.0  0.61490  0.82450  0.49800  1.0000
  C   C171      1.0  0.11490  0.67550  0.50200  1.0000
  C   C172      1.0  0.38510  0.82450  0.00200  1.0000
  C   C173      1.0  0.11490  0.32450  0.00200  1.0000
  C   C174      1.0  0.38510  0.17550  0.50200  1.0000
  C   C175      1.0  0.88510  0.32450  0.49800  1.0000
  C   C176      1.0  0.61490  0.17550  0.99800  1.0000
  H   H113      1.0  0.88350  0.70290  0.00420  1.0000
  H   H114      1.0  0.61650  0.79710  0.50420  1.0000
  H   H115      1.0  0.11650  0.70290  0.49580  1.0000
  H   H116      1.0  0.38350  0.79710  0.99580  1.0000
  H   H117      1.0  0.11650  0.29710  0.99580  1.0000
  H   H118      1.0  0.38350  0.20290  0.49580  1.0000
  H   H119      1.0  0.88350  0.29710  0.50420  1.0000
  H   H120      1.0  0.61650  0.20290  0.00420  1.0000
  C   C177      1.0  0.88290  0.62370  0.95201  1.0000
  C   C178      1.0  0.61710  0.87630  0.45201  1.0000
  C   C179      1.0  0.11710  0.62370  0.54799  1.0000
  C   C180      1.0  0.38290  0.87630  0.04799  1.0000
  C   C181      1.0  0.11710  0.37630  0.04799  1.0000
  C   C182      1.0  0.38290  0.12370  0.54799  1.0000
  C   C183      1.0  0.88290  0.37630  0.45201  1.0000
  C   C184      1.0  0.61710  0.12370  0.95201  1.0000
  C   C185      1.0  0.89130  0.66390  0.96190  1.0000
  C   C186      1.0  0.60870  0.83610  0.46190  1.0000
  C   C187      1.0  0.10870  0.66390  0.53810  1.0000
  C   C188      1.0  0.39130  0.83610  0.03810  1.0000
  C   C189      1.0  0.10870  0.33610  0.03810  1.0000
  C   C190      1.0  0.39130  0.16390  0.53810  1.0000
  C   C191      1.0  0.89130  0.33610  0.46190  1.0000
  C   C192      1.0  0.60870  0.16390  0.96190  1.0000
  H   H121      1.0  0.90130  0.68340  0.94400  1.0000
  H   H122      1.0  0.59870  0.81660  0.44400  1.0000
  H   H123      1.0  0.09870  0.68340  0.55600  1.0000
  H   H124      1.0  0.40130  0.81660  0.05600  1.0000
  H   H125      1.0  0.09870  0.31660  0.05600  1.0000
  H   H126      1.0  0.40130  0.18340  0.55600  1.0000
  H   H127      1.0  0.90130  0.31660  0.44400  1.0000
  H   H128      1.0  0.59870  0.18340  0.94400  1.0000
  H   H129      1.0  0.16000  0.36130  0.23180  1.0000
  H   H130      1.0  0.34000  0.13870  0.73180  1.0000
  H   H131      1.0  0.84000  0.36130  0.26820  1.0000
  H   H132      1.0  0.66000  0.13870  0.76820  1.0000
  H   H133      1.0  0.84000  0.63870  0.76820  1.0000
  H   H134      1.0  0.66000  0.86130  0.26820  1.0000
  H   H135      1.0  0.16000  0.63870  0.73180  1.0000
  H   H136      1.0  0.34000  0.86130  0.23180  1.0000
  H   H137      1.0  0.20340  0.42670  0.15970  1.0000
  H   H138      1.0  0.29660  0.07330  0.65970  1.0000
  H   H139      1.0  0.79660  0.42670  0.34030  1.0000
  H   H140      1.0  0.70340  0.07330  0.84030  1.0000
  H   H141      1.0  0.79660  0.57330  0.84030  1.0000
  H   H142      1.0  0.70340  0.92670  0.34030  1.0000
  H   H143      1.0  0.20340  0.57330  0.65970  1.0000
  H   H144      1.0  0.29660  0.92670  0.15970  1.0000
  H   H145      1.0  0.26790  0.39440  0.16090  1.0000
  H   H146      1.0  0.23210  0.10560  0.66090  1.0000
  H   H147      1.0  0.73210  0.39440  0.33910  1.0000
  H   H148      1.0  0.76790  0.10560  0.83910  1.0000
  H   H149      1.0  0.73210  0.60560  0.83910  1.0000
  H   H150      1.0  0.76790  0.89440  0.33910  1.0000
  H   H151      1.0  0.26790  0.60560  0.66090  1.0000
  H   H152      1.0  0.23210  0.89440  0.16090  1.0000
  N   N1        1.0  0.70300  0.70170  0.16080  1.0000
  N   N2        1.0  0.79700  0.79830  0.66080  1.0000
  N   N3        1.0  0.29700  0.70170  0.33920  1.0000
  N   N4        1.0  0.20300  0.79830  0.83920  1.0000
  N   N5        1.0  0.29700  0.29830  0.83920  1.0000
  N   N6        1.0  0.20300  0.20170  0.33920  1.0000
  N   N7        1.0  0.70300  0.29830  0.66080  1.0000
  N   N8        1.0  0.79700  0.20170  0.16080  1.0000
  N   N9        1.0  0.05660  0.71080  0.16192  1.0000
  N   N10       1.0  0.44340  0.78920  0.66192  1.0000
  N   N11       1.0  0.94340  0.71080  0.33808  1.0000
  N   N12       1.0  0.55660  0.78920  0.83808  1.0000
  N   N13       1.0  0.94340  0.28920  0.83808  1.0000
  N   N14       1.0  0.55660  0.21080  0.33808  1.0000
  N   N15       1.0  0.05660  0.28920  0.66192  1.0000
  N   N16       1.0  0.44340  0.21080  0.16192  1.0000
  N   N17       1.0  0.90720  0.54350  0.15218  1.0000
  N   N18       1.0  0.59280  0.95650  0.65218  1.0000
  N   N19       1.0  0.09280  0.54350  0.34782  1.0000
  N   N20       1.0  0.40720  0.95650  0.84782  1.0000
  N   N21       1.0  0.09280  0.45650  0.84782  1.0000
  N   N22       1.0  0.40720  0.04350  0.34782  1.0000
  N   N23       1.0  0.90720  0.45650  0.65218  1.0000
  N   N24       1.0  0.59280  0.04350  0.15218  1.0000
  N   N25       1.0  0.88120  0.64630  0.02510  1.0000
  N   N26       1.0  0.61880  0.85370  0.52510  1.0000
  N   N27       1.0  0.11880  0.64630  0.47490  1.0000
  N   N28       1.0  0.38120  0.85370  0.97490  1.0000
  N   N29       1.0  0.11880  0.35370  0.97490  1.0000
  N   N30       1.0  0.38120  0.14630  0.47490  1.0000
  N   N31       1.0  0.88120  0.35370  0.52510  1.0000
  N   N32       1.0  0.61880  0.14630  0.02510  1.0000
  O   O1        1.0  0.48020  0.81005  0.16498  1.0000
  O   O2        1.0  0.01980  0.68995  0.66498  1.0000
  O   O3        1.0  0.51980  0.81005  0.33502  1.0000
  O   O4        1.0  0.98020  0.68995  0.83502  1.0000
  O   O5        1.0  0.51980  0.18995  0.83502  1.0000
  O   O6        1.0  0.98020  0.31005  0.33502  1.0000
  O   O7        1.0  0.48020  0.18995  0.66498  1.0000
  O   O8        1.0  0.01980  0.31005  0.16498  1.0000
  O   O9        1.0  0.02030  0.40315  0.16260  1.0000
  O   O10       1.0  0.47970  0.09685  0.66260  1.0000
  O   O11       1.0  0.97970  0.40315  0.33740  1.0000
  O   O12       1.0  0.52030  0.09685  0.83740  1.0000
  O   O13       1.0  0.97970  0.59685  0.83740  1.0000
  O   O14       1.0  0.52030  0.90315  0.33740  1.0000
  O   O15       1.0  0.02030  0.59685  0.66260  1.0000
  O   O16       1.0  0.47970  0.90315  0.16260  1.0000
  O   O17       1.0  0.95350  0.41289  0.21599  1.0000
  O   O18       1.0  0.54650  0.08711  0.71599  1.0000
  O   O19       1.0  0.04650  0.41289  0.28401  1.0000
  O   O20       1.0  0.45350  0.08711  0.78401  1.0000
  O   O21       1.0  0.04650  0.58711  0.78401  1.0000
  O   O22       1.0  0.45350  0.91289  0.28401  1.0000
  O   O23       1.0  0.95350  0.58711  0.71599  1.0000
  O   O24       1.0  0.54650  0.91289  0.21599  1.0000
  O   O25       1.0  0.55520  0.81820  0.21609  1.0000
  O   O26       1.0  0.94480  0.68180  0.71609  1.0000
  O   O27       1.0  0.44480  0.81820  0.28391  1.0000
  O   O28       1.0  0.05520  0.68180  0.78391  1.0000
  O   O29       1.0  0.44480  0.18180  0.78391  1.0000
  O   O30       1.0  0.05520  0.31820  0.28391  1.0000
  O   O31       1.0  0.55520  0.18180  0.71609  1.0000
  O   O32       1.0  0.94480  0.31820  0.21609  1.0000
  O   O33       1.0  0.11330  0.36154  0.22179  1.0000
  O   O34       1.0  0.38670  0.13846  0.72179  1.0000
  O   O35       1.0  0.88670  0.36154  0.27821  1.0000
  O   O36       1.0  0.61330  0.13846  0.77821  1.0000
  O   O37       1.0  0.88670  0.63846  0.77821  1.0000
  O   O38       1.0  0.61330  0.86154  0.27821  1.0000
  O   O39       1.0  0.11330  0.63846  0.72179  1.0000
  O   O40       1.0  0.38670  0.86154  0.22179  1.0000
  O   O41       1.0  0.29140  0.81200  0.16498  1.0000
  O   O42       1.0  0.20860  0.68800  0.66498  1.0000
  O   O43       1.0  0.70860  0.81200  0.33502  1.0000
  O   O44       1.0  0.79140  0.68800  0.83502  1.0000
  O   O45       1.0  0.70860  0.18800  0.83502  1.0000
  O   O46       1.0  0.79140  0.31200  0.33502  1.0000
  O   O47       1.0  0.29140  0.18800  0.66498  1.0000
  O   O48       1.0  0.20860  0.31200  0.16498  1.0000
  O   O49       1.0  0.88820  0.64481  0.89254  1.0000
  O   O50       1.0  0.61180  0.85519  0.39254  1.0000
  O   O51       1.0  0.11180  0.64481  0.60746  1.0000
  O   O52       1.0  0.38820  0.85519  0.10746  1.0000
  O   O53       1.0  0.11180  0.35519  0.10746  1.0000
  O   O54       1.0  0.38820  0.14481  0.60746  1.0000
  O   O55       1.0  0.88820  0.35519  0.39254  1.0000
  O   O56       1.0  0.61180  0.14481  0.89254  1.0000
  O   O57       1.0  0.21500  0.40200  0.16230  1.0000
  O   O58       1.0  0.28500  0.09800  0.66230  1.0000
  O   O59       1.0  0.78500  0.40200  0.33770  1.0000
  O   O60       1.0  0.71500  0.09800  0.83770  1.0000
  O   O61       1.0  0.78500  0.59800  0.83770  1.0000
  O   O62       1.0  0.71500  0.90200  0.33770  1.0000
  O   O63       1.0  0.21500  0.59800  0.66230  1.0000
  O   O64       1.0  0.28500  0.90200  0.16230  1.0000
  O   O65       1.0  0.86820  0.58380  0.90700  1.0000
  O   O66       1.0  0.63180  0.91620  0.40700  1.0000
  O   O67       1.0  0.13180  0.58380  0.59300  1.0000
  O   O68       1.0  0.36820  0.91620  0.09300  1.0000
  O   O69       1.0  0.13180  0.41620  0.09300  1.0000
  O   O70       1.0  0.36820  0.08380  0.59300  1.0000
  O   O71       1.0  0.86820  0.41620  0.40700  1.0000
  O   O72       1.0  0.63180  0.08380  0.90700  1.0000
  O   O73       1.0  0.26950  0.79890  0.22394  1.0000
  O   O74       1.0  0.23050  0.70110  0.72394  1.0000
  O   O75       1.0  0.73050  0.79890  0.27606  1.0000
  O   O76       1.0  0.76950  0.70110  0.77606  1.0000
  O   O77       1.0  0.73050  0.20110  0.77606  1.0000
  O   O78       1.0  0.76950  0.29890  0.27606  1.0000
  O   O79       1.0  0.26950  0.20110  0.72394  1.0000
  O   O80       1.0  0.23050  0.29890  0.22394  1.0000
  Cu  Cu1       1.0  0.89270  0.60219  0.13817  1.0000
  Cu  Cu2       1.0  0.60730  0.89781  0.63817  1.0000
  Cu  Cu3       1.0  0.10730  0.60219  0.36183  1.0000
  Cu  Cu4       1.0  0.39270  0.89781  0.86183  1.0000
  Cu  Cu5       1.0  0.10730  0.39781  0.86183  1.0000
  Cu  Cu6       1.0  0.39270  0.10219  0.36183  1.0000
  Cu  Cu7       1.0  0.89270  0.39781  0.63817  1.0000
  Cu  Cu8       1.0  0.60730  0.10219  0.13817  1.0000
  Cu  Cu9       1.0  0.88192  0.65150  0.08277  1.0000
  Cu  Cu10      1.0  0.61808  0.84850  0.58277  1.0000
  Cu  Cu11      1.0  0.11808  0.65150  0.41723  1.0000
  Cu  Cu12      1.0  0.38192  0.84850  0.91723  1.0000
  Cu  Cu13      1.0  0.11808  0.34850  0.91723  1.0000
  Cu  Cu14      1.0  0.38192  0.15150  0.41723  1.0000
  Cu  Cu15      1.0  0.88192  0.34850  0.58277  1.0000
  Cu  Cu16      1.0  0.61808  0.15150  0.08277  1.0000
  Cu  Cu17      1.0  0.79751  0.66584  0.14350  1.0000
  Cu  Cu18      1.0  0.70249  0.83416  0.64350  1.0000
  Cu  Cu19      1.0  0.20249  0.66584  0.35650  1.0000
  Cu  Cu20      1.0  0.29751  0.83416  0.85650  1.0000
  Cu  Cu21      1.0  0.20249  0.33416  0.85650  1.0000
  Cu  Cu22      1.0  0.29751  0.16584  0.35650  1.0000
  Cu  Cu23      1.0  0.79751  0.33416  0.64350  1.0000
  Cu  Cu24      1.0  0.70249  0.16584  0.14350  1.0000
  Cu  Cu25      1.0  0.96196  0.67463  0.14420  1.0000
  Cu  Cu26      1.0  0.53804  0.82537  0.64420  1.0000
  Cu  Cu27      1.0  0.03804  0.67463  0.35580  1.0000
  Cu  Cu28      1.0  0.46196  0.82537  0.85580  1.0000
  Cu  Cu29      1.0  0.03804  0.32537  0.85580  1.0000
  Cu  Cu30      1.0  0.46196  0.17463  0.35580  1.0000
  Cu  Cu31      1.0  0.96196  0.32537  0.64420  1.0000
  Cu  Cu32      1.0  0.53804  0.17463  0.14420  1.0000
  I   I1        1.0  0.88706  0.64391  0.20256  1.0000
  I   I2        1.0  0.61294  0.85609  0.70256  1.0000
  I   I3        1.0  0.11294  0.64391  0.29744  1.0000
  I   I4        1.0  0.38706  0.85609  0.79744  1.0000
  I   I5        1.0  0.11294  0.35609  0.79744  1.0000
  I   I6        1.0  0.38706  0.14391  0.29744  1.0000
  I   I7        1.0  0.88706  0.35609  0.70256  1.0000
  I   I8        1.0  0.61294  0.14391  0.20256  1.0000
  I   I9        1.0  0.74503  0.60660  0.10184  1.0000
  I   I10       1.0  0.75497  0.89340  0.60184  1.0000
  I   I11       1.0  0.25497  0.60660  0.39816  1.0000
  I   I12       1.0  0.24503  0.89340  0.89816  1.0000
  I   I13       1.0  0.25497  0.39340  0.89816  1.0000
  I   I14       1.0  0.24503  0.10660  0.39816  1.0000
  I   I15       1.0  0.74503  0.39340  0.60184  1.0000
  I   I16       1.0  0.75497  0.10660  0.10184  1.0000
  I   I17       1.0  0.03403  0.61986  0.09974  1.0000
  I   I18       1.0  0.46597  0.88014  0.59974  1.0000
  I   I19       1.0  0.96597  0.61986  0.40026  1.0000
  I   I20       1.0  0.53403  0.88014  0.90026  1.0000
  I   I21       1.0  0.96597  0.38014  0.90026  1.0000
  I   I22       1.0  0.53403  0.11986  0.40026  1.0000
  I   I23       1.0  0.03403  0.38014  0.59974  1.0000
  I   I24       1.0  0.46597  0.11986  0.09974  1.0000
  I   I25       1.0  0.87219  0.72764  0.10256  1.0000
  I   I26       1.0  0.62781  0.77236  0.60256  1.0000
  I   I27       1.0  0.12781  0.72764  0.39744  1.0000
  I   I28       1.0  0.37219  0.77236  0.89744  1.0000
  I   I29       1.0  0.12781  0.27236  0.89744  1.0000
  I   I30       1.0  0.37219  0.22764  0.39744  1.0000
  I   I31       1.0  0.87219  0.27236  0.60256  1.0000
  I   I32       1.0  0.62781  0.22764  0.10256  1.0000
  In  In1       1.0  0.00000  0.36439  0.25000  1.0000
  In  In2       1.0  0.50000  0.13561  0.75000  1.0000
  In  In3       1.0  0.00000  0.63561  0.75000  1.0000
  In  In4       1.0  0.50000  0.86439  0.25000  1.0000
  In  In5       1.0  0.11601  0.35660  0.16443  1.0000
  In  In6       1.0  0.38399  0.14340  0.66443  1.0000
  In  In7       1.0  0.88399  0.35660  0.33557  1.0000
  In  In8       1.0  0.61601  0.14340  0.83557  1.0000
  In  In9       1.0  0.88399  0.64340  0.83557  1.0000
  In  In10      1.0  0.61601  0.85660  0.33557  1.0000
  In  In11      1.0  0.11601  0.64340  0.66443  1.0000
  In  In12      1.0  0.38399  0.85660  0.16443  1.0000
