data_image0
_chemical_formula_structural       Cu4P4O16N4Cl4C4H2C2H2C2H2C2H2C4H2C2H2C2H2C2H2
_chemical_formula_sum              "Cu4 P4 O16 N4 Cl4 C20 H16"
_cell_length_a       6.8435
_cell_length_b       9.606
_cell_length_c       19.981
_cell_angle_alpha    90
_cell_angle_beta     109.498
_cell_angle_gamma    90

_space_group_name_H-M_alt    "P 1"
_space_group_IT_number       1

loop_
  _space_group_symop_operation_xyz
  'x, y, z'

loop_
  _atom_site_type_symbol
  _atom_site_label
  _atom_site_symmetry_multiplicity
  _atom_site_fract_x
  _atom_site_fract_y
  _atom_site_fract_z
  _atom_site_occupancy
  Cu  Cu1       1.0  0.31547  0.53178  0.11374  1.0000
  Cu  Cu2       1.0  0.31547  0.46822  0.61374  1.0000
  Cu  Cu3       1.0  0.81583  0.53455  0.11230  1.0000
  Cu  Cu4       1.0  0.81583  0.46545  0.61230  1.0000
  P   P1        1.0  0.15390  0.74160  0.19594  1.0000
  P   P2        1.0  0.15390  0.25840  0.69594  1.0000
  P   P3        1.0  0.47760  0.33170  0.02852  1.0000
  P   P4        1.0  0.47760  0.66830  0.52852  1.0000
  O   O1        1.0  0.96850  0.65240  0.19310  1.0000
  O   O2        1.0  0.96850  0.34760  0.69310  1.0000
  O   O3        1.0  0.33200  0.65030  0.19340  1.0000
  O   O4        1.0  0.33200  0.34970  0.69340  1.0000
  O   O5        1.0  0.20900  0.84590  0.25640  1.0000
  O   O6        1.0  0.20900  0.15410  0.75640  1.0000
  O   O7        1.0  0.05230  0.62100  0.05770  1.0000
  O   O8        1.0  0.05230  0.37900  0.55770  1.0000
  O   O9        1.0  0.58420  0.44430  0.16970  1.0000
  O   O10       1.0  0.58420  0.55570  0.66970  1.0000
  O   O11       1.0  0.66840  0.41880  0.03100  1.0000
  O   O12       1.0  0.66840  0.58120  0.53100  1.0000
  O   O13       1.0  0.29680  0.42120  0.03170  1.0000
  O   O14       1.0  0.29680  0.57880  0.53170  1.0000
  O   O15       1.0  0.42160  0.22940  0.96880  1.0000
  O   O16       1.0  0.42160  0.77060  0.46880  1.0000
  N   N1        1.0  0.04190  0.75950  0.05270  1.0000
  N   N2        1.0  0.04190  0.24050  0.55270  1.0000
  N   N3        1.0  0.59470  0.29840  0.17000  1.0000
  N   N4        1.0  0.59470  0.70160  0.67000  1.0000
  Cl  Cl1       1.0  0.56820  0.71350  0.07128  1.0000
  Cl  Cl2       1.0  0.56820  0.28650  0.57128  1.0000
  Cl  Cl3       1.0  0.06130  0.35590  0.15808  1.0000
  Cl  Cl4       1.0  0.06130  0.64410  0.65808  1.0000
  C   C1        1.0  0.08400  0.83880  0.11340  1.0000
  C   C2        1.0  0.08400  0.16120  0.61340  1.0000
  C   C3        1.0  0.98490  0.81630  0.98880  1.0000
  C   C4        1.0  0.98490  0.18370  0.48880  1.0000
  H   H1        1.0  0.95110  0.76090  0.94840  1.0000
  H   H2        1.0  0.95110  0.23910  0.44840  1.0000
  C   C5        1.0  0.97650  0.95960  0.98320  1.0000
  C   C6        1.0  0.97650  0.04040  0.48320  1.0000
  H   H3        1.0  0.94600  0.00040  0.93870  1.0000
  H   H4        1.0  0.94600  0.99960  0.43870  1.0000
  C   C7        1.0  0.00970  0.03730  0.03760  1.0000
  C   C8        1.0  0.00970  0.96270  0.53760  1.0000
  H   H5        1.0  0.99210  0.13290  0.03090  1.0000
  H   H6        1.0  0.99210  0.86710  0.53090  1.0000
  C   C9        1.0  0.07180  0.98480  0.10750  1.0000
  C   C10       1.0  0.07180  0.01520  0.60750  1.0000
  H   H7        1.0  0.10280  0.04270  0.14700  1.0000
  H   H8        1.0  0.10280  0.95730  0.64700  1.0000
  C   C11       1.0  0.55670  0.23540  0.11150  1.0000
  C   C12       1.0  0.55670  0.76460  0.61150  1.0000
  C   C13       1.0  0.63860  0.23480  0.23480  1.0000
  C   C14       1.0  0.63860  0.76520  0.73480  1.0000
  H   H9        1.0  0.64320  0.28710  0.27450  1.0000
  H   H10       1.0  0.64320  0.71290  0.77450  1.0000
  C   C15       1.0  0.67370  0.10220  0.24100  1.0000
  C   C16       1.0  0.67370  0.89780  0.74100  1.0000
  H   H11       1.0  0.72520  0.06000  0.28540  1.0000
  H   H12       1.0  0.72520  0.94000  0.78540  1.0000
  C   C17       1.0  0.62990  0.02230  0.17670  1.0000
  C   C18       1.0  0.62990  0.97770  0.67670  1.0000
  H   H13       1.0  0.63860  0.92570  0.17810  1.0000
  H   H14       1.0  0.63860  0.07430  0.67810  1.0000
  C   C19       1.0  0.57560  0.09150  0.11400  1.0000
  C   C20       1.0  0.57560  0.90850  0.61400  1.0000
  H   H15       1.0  0.55070  0.04170  0.07200  1.0000
  H   H16       1.0  0.55070  0.95830  0.57200  1.0000
