data_image0
_chemical_formula_structural       Zn3O16C10H2C6H2C2H2C6H2C2H2C2H2C2H2C2H2
_chemical_formula_sum              "Zn3 O16 C32 H16"
_cell_length_a       9.6061
_cell_length_b       10.1802
_cell_length_c       11.8289
_cell_angle_alpha    101.373
_cell_angle_beta     112.499
_cell_angle_gamma    93.458

_space_group_name_H-M_alt    "P 1"
_space_group_IT_number       1

loop_
  _space_group_symop_operation_xyz
  'x, y, z'

loop_
  _atom_site_type_symbol
  _atom_site_label
  _atom_site_symmetry_multiplicity
  _atom_site_fract_x
  _atom_site_fract_y
  _atom_site_fract_z
  _atom_site_occupancy
  Zn  Zn1       1.0  0.31551  0.73441  0.25131  1.0000
  Zn  Zn2       1.0  0.68449  0.26559  0.74869  1.0000
  Zn  Zn3       1.0  0.50000  0.00000  0.50000  1.0000
  O   O1        1.0  0.22360  0.56000  0.10910  1.0000
  O   O2        1.0  0.77640  0.44000  0.89090  1.0000
  O   O3        1.0  0.52570  0.80110  0.38750  1.0000
  O   O4        1.0  0.47430  0.19890  0.61250  1.0000
  O   O5        1.0  0.38280  0.04410  0.32240  1.0000
  O   O6        1.0  0.61720  0.95590  0.67760  1.0000
  O   O7        1.0  0.27790  0.87320  0.14980  1.0000
  O   O8        1.0  0.72210  0.12680  0.85020  1.0000
  O   O9        1.0  0.15350  0.76360  0.31770  1.0000
  O   O10       1.0  0.84650  0.23640  0.68230  1.0000
  O   O11       1.0  0.31510  0.51300  0.29320  1.0000
  O   O12       1.0  0.68490  0.48700  0.70680  1.0000
  O   O13       1.0  0.30880  0.90100  0.50270  1.0000
  O   O14       1.0  0.69120  0.09900  0.49730  1.0000
  O   O15       1.0  0.58690  0.69450  0.23500  1.0000
  O   O16       1.0  0.41310  0.30550  0.76500  1.0000
  C   C1        1.0  0.21510  0.32800  0.11290  1.0000
  C   C2        1.0  0.78490  0.67200  0.88710  1.0000
  C   C3        1.0  0.05570  0.82980  0.47170  1.0000
  C   C4        1.0  0.94430  0.17020  0.52830  1.0000
  C   C5        1.0  0.24490  0.09760  0.12780  1.0000
  C   C6        1.0  0.75510  0.90240  0.87220  1.0000
  C   C7        1.0  0.30780  0.99790  0.20740  1.0000
  C   C8        1.0  0.69220  0.00210  0.79260  1.0000
  C   C9        1.0  0.27250  0.23540  0.18390  1.0000
  C   C10       1.0  0.72750  0.76460  0.81610  1.0000
  H   H1        1.0  0.33020  0.26570  0.27010  1.0000
  H   H2        1.0  0.66980  0.73430  0.72990  1.0000
  C   C11       1.0  0.78900  0.79350  0.43270  1.0000
  C   C12       1.0  0.21100  0.20650  0.56730  1.0000
  C   C13       1.0  0.25290  0.47740  0.17570  1.0000
  C   C14       1.0  0.74710  0.52260  0.82430  1.0000
  C   C15       1.0  0.09370  0.86370  0.60090  1.0000
  C   C16       1.0  0.90630  0.13630  0.39910  1.0000
  H   H3        1.0  0.19490  0.89130  0.65720  1.0000
  H   H4        1.0  0.80510  0.10870  0.34280  1.0000
  C   C17       1.0  0.90510  0.79400  0.38850  1.0000
  C   C18       1.0  0.09490  0.20600  0.61150  1.0000
  H   H5        1.0  0.88030  0.77000  0.30230  1.0000
  H   H6        1.0  0.11970  0.23000  0.69770  1.0000
  C   C19       1.0  0.62470  0.76040  0.34300  1.0000
  C   C20       1.0  0.37530  0.23960  0.65700  1.0000
  C   C21       1.0  0.18320  0.83170  0.42710  1.0000
  C   C22       1.0  0.81680  0.16830  0.57290  1.0000
  C   C23       1.0  0.15940  0.05430  0.99990  1.0000
  C   C24       1.0  0.84060  0.94570  0.00010  1.0000
  H   H7        1.0  0.14120  0.96240  0.96120  1.0000
  H   H8        1.0  0.85880  0.03760  0.03880  1.0000
  C   C25       1.0  0.82920  0.82240  0.56200  1.0000
  C   C26       1.0  0.17080  0.17760  0.43800  1.0000
  H   H9        1.0  0.75330  0.81890  0.59250  1.0000
  H   H10       1.0  0.24670  0.18110  0.40750  1.0000
  C   C27       1.0  0.97940  0.85630  0.64560  1.0000
  C   C28       1.0  0.02060  0.14370  0.35440  1.0000
  H   H11       1.0  0.00460  0.87420  0.73180  1.0000
  H   H12       1.0  0.99540  0.12580  0.26820  1.0000
  C   C29       1.0  0.12880  0.28300  0.98430  1.0000
  C   C30       1.0  0.87120  0.71700  0.01570  1.0000
  H   H13       1.0  0.09030  0.34480  0.93620  1.0000
  H   H14       1.0  0.90970  0.65520  0.06380  1.0000
  C   C31       1.0  0.10020  0.14610  0.92790  1.0000
  C   C32       1.0  0.89980  0.85390  0.07210  1.0000
  H   H15       1.0  0.04130  0.11540  0.84190  1.0000
  H   H16       1.0  0.95870  0.88460  0.15810  1.0000
