data_image0
_chemical_formula_structural       Co4O24C12H12
_chemical_formula_sum              "Co4 O24 C12 H12"
_cell_length_a       8.2702
_cell_length_b       11.6766
_cell_length_c       8.1631
_cell_angle_alpha    90
_cell_angle_beta     90
_cell_angle_gamma    90

_space_group_name_H-M_alt    "P 1"
_space_group_IT_number       1

loop_
  _space_group_symop_operation_xyz
  'x, y, z'

loop_
  _atom_site_type_symbol
  _atom_site_label
  _atom_site_symmetry_multiplicity
  _atom_site_fract_x
  _atom_site_fract_y
  _atom_site_fract_z
  _atom_site_occupancy
  Co  Co1       1.0  0.50000  0.00000  0.00000  1.0000
  Co  Co2       1.0  0.00000  0.00000  0.50000  1.0000
  Co  Co3       1.0  0.50000  0.50000  0.00000  1.0000
  Co  Co4       1.0  0.00000  0.50000  0.50000  1.0000
  O   O1        1.0  0.59560  0.92918  0.78590  1.0000
  O   O2        1.0  0.90440  0.07082  0.28590  1.0000
  O   O3        1.0  0.40440  0.42918  0.21410  1.0000
  O   O4        1.0  0.09560  0.57082  0.71410  1.0000
  O   O5        1.0  0.40440  0.07082  0.21410  1.0000
  O   O6        1.0  0.09560  0.92918  0.71410  1.0000
  O   O7        1.0  0.59560  0.57082  0.78590  1.0000
  O   O8        1.0  0.90440  0.42918  0.28590  1.0000
  O   O9        1.0  0.77267  0.94010  0.58160  1.0000
  O   O10       1.0  0.72733  0.05990  0.08160  1.0000
  O   O11       1.0  0.22733  0.44010  0.41840  1.0000
  O   O12       1.0  0.27267  0.55990  0.91840  1.0000
  O   O13       1.0  0.22733  0.05990  0.41840  1.0000
  O   O14       1.0  0.27267  0.94010  0.91840  1.0000
  O   O15       1.0  0.77267  0.55990  0.58160  1.0000
  O   O16       1.0  0.72733  0.44010  0.08160  1.0000
  O   O17       1.0  0.47468  0.15492  0.87150  1.0000
  O   O18       1.0  0.02532  0.84508  0.37150  1.0000
  O   O19       1.0  0.52532  0.65492  0.12850  1.0000
  O   O20       1.0  0.97468  0.34508  0.62850  1.0000
  O   O21       1.0  0.52532  0.84508  0.12850  1.0000
  O   O22       1.0  0.97468  0.15492  0.62850  1.0000
  O   O23       1.0  0.47468  0.34508  0.87150  1.0000
  O   O24       1.0  0.02532  0.65492  0.37150  1.0000
  C   C1        1.0  0.71992  0.97019  0.72010  1.0000
  C   C2        1.0  0.78008  0.02981  0.22010  1.0000
  C   C3        1.0  0.28008  0.47019  0.27990  1.0000
  C   C4        1.0  0.21992  0.52981  0.77990  1.0000
  C   C5        1.0  0.28008  0.02981  0.27990  1.0000
  C   C6        1.0  0.21992  0.97019  0.77990  1.0000
  C   C7        1.0  0.71992  0.52981  0.72010  1.0000
  C   C8        1.0  0.78008  0.47019  0.22010  1.0000
  C   C9        1.0  0.49040  0.25000  0.94240  1.0000
  C   C10       1.0  0.00960  0.75000  0.44240  1.0000
  C   C11       1.0  0.50960  0.75000  0.05760  1.0000
  C   C12       1.0  0.99040  0.25000  0.55760  1.0000
  H   H1        1.0  0.78730  0.03520  0.78560  1.0000
  H   H2        1.0  0.71270  0.96480  0.28560  1.0000
  H   H3        1.0  0.21270  0.53520  0.21440  1.0000
  H   H4        1.0  0.28730  0.46480  0.71440  1.0000
  H   H5        1.0  0.21270  0.96480  0.21440  1.0000
  H   H6        1.0  0.28730  0.03520  0.71440  1.0000
  H   H7        1.0  0.78730  0.46480  0.78560  1.0000
  H   H8        1.0  0.71270  0.53520  0.28560  1.0000
  H   H9        1.0  0.52060  0.25000  0.07700  1.0000
  H   H10       1.0  0.97940  0.75000  0.57700  1.0000
  H   H11       1.0  0.47940  0.75000  0.92300  1.0000
  H   H12       1.0  0.02060  0.25000  0.42300  1.0000
