data_image0
_chemical_formula_structural       U4O36N4C8H8C4H8C4H8C4H8C4H8C4H8C4
_chemical_formula_sum              "U4 O36 N4 C32 H48"
_cell_length_a       9.2845
_cell_length_b       27.5528
_cell_length_c       13.0534
_cell_angle_alpha    90
_cell_angle_beta     110.848
_cell_angle_gamma    90

_space_group_name_H-M_alt    "P 1"
_space_group_IT_number       1

loop_
  _space_group_symop_operation_xyz
  'x, y, z'

loop_
  _atom_site_type_symbol
  _atom_site_label
  _atom_site_symmetry_multiplicity
  _atom_site_fract_x
  _atom_site_fract_y
  _atom_site_fract_z
  _atom_site_occupancy
  U   U1        1.0  0.85684  0.32439  0.89209  1.0000
  U   U2        1.0  0.64316  0.82439  0.60791  1.0000
  U   U3        1.0  0.14316  0.67561  0.10791  1.0000
  U   U4        1.0  0.35684  0.17561  0.39209  1.0000
  O   O1        1.0  0.78790  0.32670  0.00220  1.0000
  O   O2        1.0  0.71210  0.82670  0.49780  1.0000
  O   O3        1.0  0.21210  0.67330  0.99780  1.0000
  O   O4        1.0  0.28790  0.17330  0.50220  1.0000
  O   O5        1.0  0.92280  0.32445  0.78120  1.0000
  O   O6        1.0  0.57720  0.82445  0.71880  1.0000
  O   O7        1.0  0.07720  0.67555  0.21880  1.0000
  O   O8        1.0  0.42280  0.17555  0.28120  1.0000
  O   O9        1.0  0.59260  0.31948  0.76280  1.0000
  O   O10       1.0  0.90740  0.81948  0.73720  1.0000
  O   O11       1.0  0.40740  0.68052  0.23720  1.0000
  O   O12       1.0  0.09260  0.18052  0.26280  1.0000
  O   O13       1.0  0.70980  0.25018  0.82410  1.0000
  O   O14       1.0  0.79020  0.75018  0.67590  1.0000
  O   O15       1.0  0.29020  0.74982  0.17590  1.0000
  O   O16       1.0  0.20980  0.24982  0.32410  1.0000
  O   O17       1.0  0.51820  0.24565  0.46800  1.0000
  O   O18       1.0  0.98180  0.74565  0.03200  1.0000
  O   O19       1.0  0.48180  0.75435  0.53200  1.0000
  O   O20       1.0  0.01820  0.25435  0.96800  1.0000
  O   O21       1.0  0.62360  0.17417  0.51910  1.0000
  O   O22       1.0  0.87640  0.67417  0.98090  1.0000
  O   O23       1.0  0.37640  0.82583  0.48090  1.0000
  O   O24       1.0  0.12360  0.32583  0.01910  1.0000
  O   O25       1.0  0.96700  0.40890  0.93470  1.0000
  O   O26       1.0  0.53300  0.90890  0.56530  1.0000
  O   O27       1.0  0.03300  0.59110  0.06530  1.0000
  O   O28       1.0  0.46700  0.09110  0.43470  1.0000
  O   O29       1.0  0.73100  0.40594  0.82320  1.0000
  O   O30       1.0  0.76900  0.90594  0.67680  1.0000
  O   O31       1.0  0.26900  0.59406  0.17680  1.0000
  O   O32       1.0  0.23100  0.09406  0.32320  1.0000
  O   O33       1.0  0.85510  0.47507  0.85170  1.0000
  O   O34       1.0  0.64490  0.97507  0.64830  1.0000
  O   O35       1.0  0.14490  0.52493  0.14830  1.0000
  O   O36       1.0  0.35510  0.02493  0.35170  1.0000
  N   N1        1.0  0.85100  0.43159  0.86980  1.0000
  N   N2        1.0  0.64900  0.93159  0.63020  1.0000
  N   N3        1.0  0.14900  0.56841  0.13020  1.0000
  N   N4        1.0  0.35100  0.06841  0.36980  1.0000
  C   C1        1.0  0.58890  0.27360  0.76870  1.0000
  C   C2        1.0  0.91110  0.77360  0.73130  1.0000
  C   C3        1.0  0.41110  0.72640  0.23130  1.0000
  C   C4        1.0  0.08890  0.22640  0.26870  1.0000
  C   C5        1.0  0.43910  0.24655  0.71520  1.0000
  C   C6        1.0  0.06090  0.74655  0.78480  1.0000
  C   C7        1.0  0.56090  0.75345  0.28480  1.0000
  C   C8        1.0  0.93910  0.25345  0.21520  1.0000
  H   H1        1.0  0.45960  0.21390  0.69180  1.0000
  H   H2        1.0  0.04040  0.71390  0.80820  1.0000
  H   H3        1.0  0.54040  0.78610  0.30820  1.0000
  H   H4        1.0  0.95960  0.28610  0.19180  1.0000
  H   H5        1.0  0.37230  0.26440  0.64980  1.0000
  H   H6        1.0  0.12770  0.76440  0.85020  1.0000
  H   H7        1.0  0.62770  0.73560  0.35020  1.0000
  H   H8        1.0  0.87230  0.23560  0.14980  1.0000
  C   C9        1.0  0.35900  0.24211  0.79970  1.0000
  C   C10       1.0  0.14100  0.74211  0.70030  1.0000
  C   C11       1.0  0.64100  0.75789  0.20030  1.0000
  C   C12       1.0  0.85900  0.25789  0.29970  1.0000
  H   H9        1.0  0.43110  0.22660  0.86680  1.0000
  H   H10       1.0  0.06890  0.72660  0.63320  1.0000
  H   H11       1.0  0.56890  0.77340  0.13320  1.0000
  H   H12       1.0  0.93110  0.27340  0.36680  1.0000
  H   H13       1.0  0.33610  0.27510  0.81980  1.0000
  H   H14       1.0  0.16390  0.77510  0.68020  1.0000
  H   H15       1.0  0.66390  0.72490  0.18020  1.0000
  H   H16       1.0  0.83610  0.22490  0.31980  1.0000
  C   C13       1.0  0.20860  0.21268  0.75940  1.0000
  C   C14       1.0  0.29140  0.71268  0.74060  1.0000
  C   C15       1.0  0.79140  0.78732  0.24060  1.0000
  C   C16       1.0  0.70860  0.28732  0.25940  1.0000
  H   H17       1.0  0.22910  0.18100  0.73130  1.0000
  H   H18       1.0  0.27090  0.68100  0.76870  1.0000
  H   H19       1.0  0.77090  0.81900  0.26870  1.0000
  H   H20       1.0  0.72910  0.31900  0.23130  1.0000
  H   H21       1.0  0.17610  0.20610  0.82250  1.0000
  H   H22       1.0  0.32390  0.70610  0.67750  1.0000
  H   H23       1.0  0.82390  0.79390  0.17750  1.0000
  H   H24       1.0  0.67610  0.29390  0.32250  1.0000
  C   C17       1.0  0.07740  0.23758  0.67030  1.0000
  C   C18       1.0  0.42260  0.73758  0.82970  1.0000
  C   C19       1.0  0.92260  0.76242  0.32970  1.0000
  C   C20       1.0  0.57740  0.26242  0.17030  1.0000
  H   H25       1.0  0.10130  0.23830  0.60220  1.0000
  H   H26       1.0  0.39870  0.73830  0.89780  1.0000
  H   H27       1.0  0.89870  0.76170  0.39780  1.0000
  H   H28       1.0  0.60130  0.26170  0.10220  1.0000
  H   H29       1.0  0.07050  0.27160  0.69250  1.0000
  H   H30       1.0  0.42950  0.77160  0.80750  1.0000
  H   H31       1.0  0.92950  0.72840  0.30750  1.0000
  H   H32       1.0  0.57050  0.22840  0.19250  1.0000
  C   C21       1.0  0.92090  0.21315  0.64590  1.0000
  C   C22       1.0  0.57910  0.71315  0.85410  1.0000
  C   C23       1.0  0.07910  0.78685  0.35410  1.0000
  C   C24       1.0  0.42090  0.28685  0.14590  1.0000
  H   H33       1.0  0.90250  0.20790  0.71530  1.0000
  H   H34       1.0  0.59750  0.70790  0.78470  1.0000
  H   H35       1.0  0.09750  0.79210  0.28470  1.0000
  H   H36       1.0  0.40250  0.29210  0.21530  1.0000
  H   H37       1.0  0.92100  0.18110  0.61180  1.0000
  H   H38       1.0  0.57900  0.68110  0.88820  1.0000
  H   H39       1.0  0.07900  0.81890  0.38820  1.0000
  H   H40       1.0  0.42100  0.31890  0.11180  1.0000
  C   C25       1.0  0.79140  0.24448  0.56860  1.0000
  C   C26       1.0  0.70860  0.74448  0.93140  1.0000
  C   C27       1.0  0.20860  0.75552  0.43140  1.0000
  C   C28       1.0  0.29140  0.25552  0.06860  1.0000
  H   H41       1.0  0.77780  0.27320  0.61000  1.0000
  H   H42       1.0  0.72220  0.77320  0.89000  1.0000
  H   H43       1.0  0.22220  0.72680  0.39000  1.0000
  H   H44       1.0  0.27780  0.22680  0.11000  1.0000
  H   H45       1.0  0.82470  0.25640  0.50910  1.0000
  H   H46       1.0  0.67530  0.75640  0.99090  1.0000
  H   H47       1.0  0.17530  0.74360  0.49090  1.0000
  H   H48       1.0  0.32470  0.24360  0.00910  1.0000
  C   C29       1.0  0.63600  0.21986  0.51710  1.0000
  C   C30       1.0  0.86400  0.71986  0.98290  1.0000
  C   C31       1.0  0.36400  0.78014  0.48290  1.0000
  C   C32       1.0  0.13600  0.28014  0.01710  1.0000
