data_image0
_chemical_formula_structural       U4O32C8H8C4H8C4H8C4H8C4H8C4H8C12H8C4H8C4H8
_chemical_formula_sum              "U4 O32 C48 H72"
_cell_length_a       9.4938
_cell_length_b       14.6791
_cell_length_c       21.9542
_cell_angle_alpha    90
_cell_angle_beta     100.437
_cell_angle_gamma    90

_space_group_name_H-M_alt    "P 1"
_space_group_IT_number       1

loop_
  _space_group_symop_operation_xyz
  'x, y, z'

loop_
  _atom_site_type_symbol
  _atom_site_label
  _atom_site_symmetry_multiplicity
  _atom_site_fract_x
  _atom_site_fract_y
  _atom_site_fract_z
  _atom_site_occupancy
  U   U1        1.0  0.14401  0.73793  0.54601  1.0000
  U   U2        1.0  0.85599  0.23793  0.95399  1.0000
  U   U3        1.0  0.85599  0.26207  0.45399  1.0000
  U   U4        1.0  0.14401  0.76207  0.04601  1.0000
  O   O1        1.0  0.10750  0.66623  0.60589  1.0000
  O   O2        1.0  0.89250  0.16623  0.89411  1.0000
  O   O3        1.0  0.89250  0.33377  0.39411  1.0000
  O   O4        1.0  0.10750  0.83377  0.10589  1.0000
  O   O5        1.0  0.17910  0.81152  0.48657  1.0000
  O   O6        1.0  0.82090  0.31152  0.01343  1.0000
  O   O7        1.0  0.82090  0.18848  0.51343  1.0000
  O   O8        1.0  0.17910  0.68848  0.98657  1.0000
  O   O9        1.0  0.32459  0.81730  0.62170  1.0000
  O   O10       1.0  0.67541  0.31730  0.87830  1.0000
  O   O11       1.0  0.67541  0.18270  0.37830  1.0000
  O   O12       1.0  0.32459  0.68270  0.12170  1.0000
  O   O13       1.0  0.40730  0.70517  0.57246  1.0000
  O   O14       1.0  0.59270  0.20517  0.92754  1.0000
  O   O15       1.0  0.59270  0.29483  0.42754  1.0000
  O   O16       1.0  0.40730  0.79483  0.07246  1.0000
  O   O17       1.0  0.78520  0.39526  0.50978  1.0000
  O   O18       1.0  0.21480  0.89526  0.99022  1.0000
  O   O19       1.0  0.21480  0.60474  0.49022  1.0000
  O   O20       1.0  0.78520  0.10474  0.00978  1.0000
  O   O21       1.0  0.00989  0.35447  0.53306  1.0000
  O   O22       1.0  0.99011  0.85447  0.96694  1.0000
  O   O23       1.0  0.99011  0.64553  0.46694  1.0000
  O   O24       1.0  0.00989  0.14553  0.03306  1.0000
  O   O25       1.0  0.89497  0.79370  0.52320  1.0000
  O   O26       1.0  0.10503  0.29370  0.97680  1.0000
  O   O27       1.0  0.10503  0.20630  0.47680  1.0000
  O   O28       1.0  0.89497  0.70630  0.02320  1.0000
  O   O29       1.0  0.04075  0.86511  0.59600  1.0000
  O   O30       1.0  0.95925  0.36511  0.90400  1.0000
  O   O31       1.0  0.95925  0.13489  0.40400  1.0000
  O   O32       1.0  0.04075  0.63489  0.09600  1.0000
  C   C1        1.0  0.42880  0.76920  0.61136  1.0000
  C   C2        1.0  0.57120  0.26920  0.88864  1.0000
  C   C3        1.0  0.57120  0.23080  0.38864  1.0000
  C   C4        1.0  0.42880  0.73080  0.11136  1.0000
  C   C5        1.0  0.57640  0.79180  0.64661  1.0000
  C   C6        1.0  0.42360  0.29180  0.85339  1.0000
  C   C7        1.0  0.42360  0.20820  0.35339  1.0000
  C   C8        1.0  0.57640  0.70820  0.14661  1.0000
  H   H1        1.0  0.57200  0.79280  0.69130  1.0000
  H   H2        1.0  0.42800  0.29280  0.80870  1.0000
  H   H3        1.0  0.42800  0.20720  0.30870  1.0000
  H   H4        1.0  0.57200  0.70720  0.19130  1.0000
  H   H5        1.0  0.60070  0.85430  0.63490  1.0000
  H   H6        1.0  0.39930  0.35430  0.86510  1.0000
  H   H7        1.0  0.39930  0.14570  0.36510  1.0000
  H   H8        1.0  0.60070  0.64570  0.13490  1.0000
  C   C9        1.0  0.69880  0.72860  0.63742  1.0000
  C   C10       1.0  0.30120  0.22860  0.86258  1.0000
  C   C11       1.0  0.30120  0.27140  0.36258  1.0000
  C   C12       1.0  0.69880  0.77140  0.13742  1.0000
  H   H9        1.0  0.68840  0.71340  0.59290  1.0000
  H   H10       1.0  0.31160  0.21340  0.90710  1.0000
  H   H11       1.0  0.31160  0.28660  0.40710  1.0000
  H   H12       1.0  0.68840  0.78660  0.09290  1.0000
  H   H13       1.0  0.79080  0.76120  0.64980  1.0000
  H   H14       1.0  0.20920  0.26120  0.85020  1.0000
  H   H15       1.0  0.20920  0.23880  0.35020  1.0000
  H   H16       1.0  0.79080  0.73880  0.14980  1.0000
  C   C13       1.0  0.70310  0.64070  0.67455  1.0000
  C   C14       1.0  0.29690  0.14070  0.82545  1.0000
  C   C15       1.0  0.29690  0.35930  0.32545  1.0000
  C   C16       1.0  0.70310  0.85930  0.17455  1.0000
  H   H17       1.0  0.61120  0.60810  0.66180  1.0000
  H   H18       1.0  0.38880  0.10810  0.83820  1.0000
  H   H19       1.0  0.38880  0.39190  0.33820  1.0000
  H   H20       1.0  0.61120  0.89190  0.16180  1.0000
  H   H21       1.0  0.71190  0.65620  0.71900  1.0000
  H   H22       1.0  0.28810  0.15620  0.78100  1.0000
  H   H23       1.0  0.28810  0.34380  0.28100  1.0000
  H   H24       1.0  0.71190  0.84380  0.21900  1.0000
  C   C17       1.0  0.82580  0.57660  0.66675  1.0000
  C   C18       1.0  0.17420  0.07660  0.83325  1.0000
  C   C19       1.0  0.17420  0.42340  0.33325  1.0000
  C   C20       1.0  0.82580  0.92340  0.16675  1.0000
  H   H25       1.0  0.91670  0.61140  0.67430  1.0000
  H   H26       1.0  0.08330  0.11140  0.82570  1.0000
  H   H27       1.0  0.08330  0.38860  0.32570  1.0000
  H   H28       1.0  0.91670  0.88860  0.17430  1.0000
  H   H29       1.0  0.83340  0.52810  0.69850  1.0000
  H   H30       1.0  0.16660  0.02810  0.80150  1.0000
  H   H31       1.0  0.16660  0.47190  0.30150  1.0000
  H   H32       1.0  0.83340  0.97190  0.19850  1.0000
  C   C21       1.0  0.80790  0.53260  0.60326  1.0000
  C   C22       1.0  0.19210  0.03260  0.89674  1.0000
  C   C23       1.0  0.19210  0.46740  0.39674  1.0000
  C   C24       1.0  0.80790  0.96740  0.10326  1.0000
  H   H33       1.0  0.80040  0.58080  0.57130  1.0000
  H   H34       1.0  0.19960  0.08080  0.92870  1.0000
  H   H35       1.0  0.19960  0.41920  0.42870  1.0000
  H   H36       1.0  0.80040  0.91920  0.07130  1.0000
  H   H37       1.0  0.71760  0.49720  0.59570  1.0000
  H   H38       1.0  0.28240  0.99720  0.90430  1.0000
  H   H39       1.0  0.28240  0.50280  0.40430  1.0000
  H   H40       1.0  0.71760  0.00280  0.09570  1.0000
  C   C25       1.0  0.93250  0.46950  0.59699  1.0000
  C   C26       1.0  0.06750  0.96950  0.90301  1.0000
  C   C27       1.0  0.06750  0.53050  0.40301  1.0000
  C   C28       1.0  0.93250  0.03050  0.09699  1.0000
  H   H41       1.0  0.01660  0.50760  0.59330  1.0000
  H   H42       1.0  0.98340  0.00760  0.90670  1.0000
  H   H43       1.0  0.98340  0.49240  0.40670  1.0000
  H   H44       1.0  0.01660  0.99240  0.09330  1.0000
  H   H45       1.0  0.95740  0.43370  0.63570  1.0000
  H   H46       1.0  0.04260  0.93370  0.86430  1.0000
  H   H47       1.0  0.04260  0.56630  0.36430  1.0000
  H   H48       1.0  0.95740  0.06630  0.13570  1.0000
  C   C29       1.0  0.90720  0.40410  0.54333  1.0000
  C   C30       1.0  0.09280  0.90410  0.95667  1.0000
  C   C31       1.0  0.09280  0.59590  0.45667  1.0000
  C   C32       1.0  0.90720  0.09590  0.04333  1.0000
  C   C33       1.0  0.92120  0.86060  0.55927  1.0000
  C   C34       1.0  0.07880  0.36060  0.94073  1.0000
  C   C35       1.0  0.07880  0.13940  0.44073  1.0000
  C   C36       1.0  0.92120  0.63940  0.05927  1.0000
  C   C37       1.0  0.81580  0.93750  0.55879  1.0000
  C   C38       1.0  0.18420  0.43750  0.94121  1.0000
  C   C39       1.0  0.18420  0.06250  0.44121  1.0000
  C   C40       1.0  0.81580  0.56250  0.05879  1.0000
  H   H49       1.0  0.86010  0.99400  0.54650  1.0000
  H   H50       1.0  0.13990  0.49400  0.95350  1.0000
  H   H51       1.0  0.13990  0.00600  0.45350  1.0000
  H   H52       1.0  0.86010  0.50600  0.04650  1.0000
  H   H53       1.0  0.79870  0.94640  0.60160  1.0000
  H   H54       1.0  0.20130  0.44640  0.89840  1.0000
  H   H55       1.0  0.20130  0.05360  0.39840  1.0000
  H   H56       1.0  0.79870  0.55360  0.10160  1.0000
  C   C41       1.0  0.67180  0.92480  0.51632  1.0000
  C   C42       1.0  0.32820  0.42480  0.98368  1.0000
  C   C43       1.0  0.32820  0.07520  0.48368  1.0000
  C   C44       1.0  0.67180  0.57520  0.01632  1.0000
  H   H57       1.0  0.62680  0.86780  0.52740  1.0000
  H   H58       1.0  0.37320  0.36780  0.97260  1.0000
  H   H59       1.0  0.37320  0.13220  0.47260  1.0000
  H   H60       1.0  0.62680  0.63220  0.02740  1.0000
  H   H61       1.0  0.68640  0.91930  0.47300  1.0000
  H   H62       1.0  0.31360  0.41930  0.02700  1.0000
  H   H63       1.0  0.31360  0.08070  0.52700  1.0000
  H   H64       1.0  0.68640  0.58070  0.97300  1.0000
  C   C45       1.0  0.57250  0.00470  0.52157  1.0000
  C   C46       1.0  0.42750  0.50470  0.97843  1.0000
  C   C47       1.0  0.42750  0.99530  0.47843  1.0000
  C   C48       1.0  0.57250  0.49530  0.02157  1.0000
  H   H65       1.0  0.61910  0.06170  0.51160  1.0000
  H   H66       1.0  0.38090  0.56170  0.98840  1.0000
  H   H67       1.0  0.38090  0.93830  0.48840  1.0000
  H   H68       1.0  0.61910  0.43830  0.01160  1.0000
  H   H69       1.0  0.55700  0.00920  0.56490  1.0000
  H   H70       1.0  0.44300  0.50920  0.93510  1.0000
  H   H71       1.0  0.44300  0.99080  0.43510  1.0000
  H   H72       1.0  0.55700  0.49080  0.06490  1.0000
