data_image0
_chemical_formula_structural       U2O16C10H4C2H4C2H4C2H4C2H4C2H4C2H4C2H4C2H4C2H4C2O8U4O24C8H4C2H4C2H4C2H4C2H4C2
_chemical_formula_sum              "U6 O48 C48 H60"
_cell_length_a       11.653
_cell_length_b       14.6666
_cell_length_c       19.1956
_cell_angle_alpha    88.22
_cell_angle_beta     83.038
_cell_angle_gamma    85.811

_space_group_name_H-M_alt    "P 1"
_space_group_IT_number       1

loop_
  _space_group_symop_operation_xyz
  'x, y, z'

loop_
  _atom_site_type_symbol
  _atom_site_label
  _atom_site_symmetry_multiplicity
  _atom_site_fract_x
  _atom_site_fract_y
  _atom_site_fract_z
  _atom_site_occupancy
  U   U1        1.0  0.06389  0.32693  0.40114  1.0000
  U   U2        1.0  0.93611  0.67307  0.59886  1.0000
  O   O1        1.0  0.97140  0.38160  0.34320  1.0000
  O   O2        1.0  0.02860  0.61840  0.65680  1.0000
  O   O3        1.0  0.15490  0.27610  0.46120  1.0000
  O   O4        1.0  0.84510  0.72390  0.53880  1.0000
  O   O5        1.0  0.89660  0.24310  0.45340  1.0000
  O   O6        1.0  0.10340  0.75690  0.54660  1.0000
  O   O7        1.0  0.01050  0.17470  0.36900  1.0000
  O   O8        1.0  0.98950  0.82530  0.63100  1.0000
  O   O9        1.0  0.18110  0.25690  0.29830  1.0000
  O   O10       1.0  0.81890  0.74310  0.70170  1.0000
  O   O11       1.0  0.24480  0.38260  0.33280  1.0000
  O   O12       1.0  0.75520  0.61740  0.66720  1.0000
  O   O13       1.0  0.94460  0.39350  0.50560  1.0000
  O   O14       1.0  0.05540  0.60650  0.49440  1.0000
  O   O15       1.0  0.10550  0.48360  0.42840  1.0000
  O   O16       1.0  0.89450  0.51640  0.57160  1.0000
  C   C1        1.0  0.92370  0.17390  0.41470  1.0000
  C   C2        1.0  0.07630  0.82610  0.58530  1.0000
  C   C3        1.0  0.25410  0.31700  0.29060  1.0000
  C   C4        1.0  0.74590  0.68300  0.70940  1.0000
  C   C5        1.0  0.95370  0.47470  0.52300  1.0000
  C   C6        1.0  0.04630  0.52530  0.47700  1.0000
  C   C7        1.0  0.85790  0.08920  0.42580  1.0000
  C   C8        1.0  0.14210  0.91080  0.57420  1.0000
  C   C9        1.0  0.34600  0.30970  0.22620  1.0000
  C   C10       1.0  0.65400  0.69030  0.77380  1.0000
  H   H1        1.0  0.90250  0.04370  0.45290  1.0000
  H   H2        1.0  0.09750  0.95630  0.54710  1.0000
  H   H3        1.0  0.85300  0.06290  0.37950  1.0000
  H   H4        1.0  0.14700  0.93710  0.62050  1.0000
  C   C11       1.0  0.73630  0.10370  0.46380  1.0000
  C   C12       1.0  0.26370  0.89630  0.53620  1.0000
  H   H5        1.0  0.36910  0.24430  0.21790  1.0000
  H   H6        1.0  0.63090  0.75570  0.78210  1.0000
  H   H7        1.0  0.31080  0.33480  0.18470  1.0000
  H   H8        1.0  0.68920  0.66520  0.81530  1.0000
  C   C13       1.0  0.45360  0.35900  0.23260  1.0000
  C   C14       1.0  0.54640  0.64100  0.76740  1.0000
  H   H9        1.0  0.68330  0.12750  0.42980  1.0000
  H   H10       1.0  0.31670  0.87250  0.57020  1.0000
  H   H11       1.0  0.73580  0.15040  0.50000  1.0000
  H   H12       1.0  0.26420  0.84960  0.50000  1.0000
  C   C15       1.0  0.69140  0.01620  0.49880  1.0000
  C   C16       1.0  0.30860  0.98380  0.50120  1.0000
  H   H13       1.0  0.48950  0.33490  0.27420  1.0000
  H   H14       1.0  0.51050  0.66510  0.72580  1.0000
  H   H15       1.0  0.43220  0.42500  0.23920  1.0000
  H   H16       1.0  0.56780  0.57500  0.76080  1.0000
  C   C17       1.0  0.54230  0.34580  0.16550  1.0000
  C   C18       1.0  0.45770  0.65420  0.83450  1.0000
  H   H17       1.0  0.69730  0.96780  0.46340  1.0000
  H   H18       1.0  0.30270  0.03220  0.53660  1.0000
  H   H19       1.0  0.60860  0.02760  0.51710  1.0000
  H   H20       1.0  0.39140  0.97240  0.48290  1.0000
  C   C19       1.0  0.76060  0.98330  0.55930  1.0000
  C   C20       1.0  0.23940  0.01670  0.44070  1.0000
  H   H21       1.0  0.61210  0.37780  0.17180  1.0000
  H   H22       1.0  0.38790  0.62220  0.82820  1.0000
  H   H23       1.0  0.56610  0.27980  0.16130  1.0000
  H   H24       1.0  0.43390  0.72020  0.83870  1.0000
  C   C21       1.0  0.49850  0.38040  0.09660  1.0000
  C   C22       1.0  0.50150  0.61960  0.90340  1.0000
  H   H25       1.0  0.84100  0.96410  0.53990  1.0000
  H   H26       1.0  0.15900  0.03590  0.46010  1.0000
  H   H27       1.0  0.76360  0.03460  0.59120  1.0000
  H   H28       1.0  0.23640  0.96540  0.40880  1.0000
  C   C23       1.0  0.70700  0.90410  0.60060  1.0000
  C   C24       1.0  0.29300  0.09590  0.39940  1.0000
  H   H29       1.0  0.56120  0.36890  0.05760  1.0000
  H   H30       1.0  0.43880  0.63110  0.94240  1.0000
  H   H31       1.0  0.43270  0.34490  0.08790  1.0000
  H   H32       1.0  0.56730  0.65510  0.91210  1.0000
  C   C25       1.0  0.45960  0.48110  0.09640  1.0000
  C   C26       1.0  0.54040  0.51890  0.90360  1.0000
  H   H33       1.0  0.69800  0.85510  0.56780  1.0000
  H   H34       1.0  0.30200  0.14490  0.43220  1.0000
  H   H35       1.0  0.76070  0.87920  0.63380  1.0000
  H   H36       1.0  0.23930  0.12080  0.36620  1.0000
  C   C27       1.0  0.59090  0.92950  0.64120  1.0000
  C   C28       1.0  0.40910  0.07050  0.35880  1.0000
  H   H37       1.0  0.40180  0.49380  0.13780  1.0000
  H   H38       1.0  0.59820  0.50620  0.86220  1.0000
  H   H39       1.0  0.42170  0.49670  0.05380  1.0000
  H   H40       1.0  0.57830  0.50330  0.94620  1.0000
  C   C29       1.0  0.56050  0.54080  0.09820  1.0000
  C   C30       1.0  0.43950  0.45920  0.90180  1.0000
  O   O17       1.0  0.57130  0.00480  0.67260  1.0000
  O   O18       1.0  0.42870  0.99520  0.32740  1.0000
  O   O19       1.0  0.51480  0.87210  0.64820  1.0000
  O   O20       1.0  0.48520  0.12790  0.35180  1.0000
  O   O21       1.0  0.54630  0.61020  0.13550  1.0000
  O   O22       1.0  0.45370  0.38980  0.86450  1.0000
  O   O23       1.0  0.65620  0.52420  0.06010  1.0000
  O   O24       1.0  0.34380  0.47580  0.93990  1.0000
  U   U3        1.0  0.38788  0.95729  0.73923  1.0000
  U   U4        1.0  0.61212  0.04271  0.26077  1.0000
  U   U5        1.0  0.73007  0.67292  0.08553  1.0000
  U   U6        1.0  0.26993  0.32708  0.91447  1.0000
  O   O25       1.0  0.47400  0.90820  0.80320  1.0000
  O   O26       1.0  0.52600  0.09180  0.19680  1.0000
  O   O27       1.0  0.30150  0.00860  0.67650  1.0000
  O   O28       1.0  0.69850  0.99140  0.32350  1.0000
  O   O29       1.0  0.32560  0.80580  0.71240  1.0000
  O   O30       1.0  0.67440  0.19420  0.28760  1.0000
  O   O31       1.0  0.21630  0.88110  0.79520  1.0000
  O   O32       1.0  0.78370  0.11890  0.20480  1.0000
  O   O33       1.0  0.26600  0.03810  0.83680  1.0000
  O   O34       1.0  0.73400  0.96190  0.16320  1.0000
  O   O35       1.0  0.43650  0.11540  0.75910  1.0000
  O   O36       1.0  0.56350  0.88460  0.24090  1.0000
  O   O37       1.0  0.64950  0.72550  0.02090  1.0000
  O   O38       1.0  0.35050  0.27450  0.97910  1.0000
  O   O39       1.0  0.81170  0.62250  0.15010  1.0000
  O   O40       1.0  0.18830  0.37750  0.84990  1.0000
  O   O41       1.0  0.78110  0.83010  0.10600  1.0000
  O   O42       1.0  0.21890  0.16990  0.89400  1.0000
  O   O43       1.0  0.61200  0.75340  0.18520  1.0000
  O   O44       1.0  0.38800  0.24660  0.81480  1.0000
  O   O45       1.0  0.85990  0.58710  0.99430  1.0000
  O   O46       1.0  0.14010  0.41290  0.00570  1.0000
  O   O47       1.0  0.91810  0.71630  0.02500  1.0000
  O   O48       1.0  0.08190  0.28370  0.97500  1.0000
  C   C31       1.0  0.23750  0.81020  0.75860  1.0000
  C   C32       1.0  0.76250  0.18980  0.24140  1.0000
  C   C33       1.0  0.27900  0.12080  0.84910  1.0000
  C   C34       1.0  0.72100  0.87920  0.15090  1.0000
  C   C35       1.0  0.37680  0.16540  0.80280  1.0000
  C   C36       1.0  0.62320  0.83460  0.19720  1.0000
  C   C37       1.0  0.16670  0.72790  0.77150  1.0000
  C   C38       1.0  0.83330  0.27210  0.22850  1.0000
  H   H41       1.0  0.15580  0.70300  0.72560  1.0000
  H   H42       1.0  0.84420  0.29700  0.27440  1.0000
  H   H43       1.0  0.21130  0.68030  0.79680  1.0000
  H   H44       1.0  0.78870  0.31970  0.20320  1.0000
  C   C39       1.0  0.04830  0.74590  0.81340  1.0000
  C   C40       1.0  0.95170  0.25410  0.18660  1.0000
  H   H45       1.0  0.05770  0.77600  0.85760  1.0000
  H   H46       1.0  0.94230  0.22400  0.14240  1.0000
  H   H47       1.0  0.00000  0.78840  0.78610  1.0000
  H   H48       1.0  0.00000  0.21160  0.21390  1.0000
  C   C41       1.0  0.98580  0.65880  0.83090  1.0000
  C   C42       1.0  0.01420  0.34120  0.16910  1.0000
  H   H49       1.0  0.90730  0.67610  0.85460  1.0000
  H   H50       1.0  0.09270  0.32390  0.14540  1.0000
  H   H51       1.0  0.97600  0.62980  0.78630  1.0000
  H   H52       1.0  0.02400  0.37020  0.21370  1.0000
  C   C43       1.0  0.04490  0.58770  0.87720  1.0000
  C   C44       1.0  0.95510  0.41230  0.12280  1.0000
  H   H53       1.0  0.12330  0.56950  0.85370  1.0000
  H   H54       1.0  0.87670  0.43050  0.14630  1.0000
  H   H55       1.0  0.00000  0.53260  0.88220  1.0000
  H   H56       1.0  0.00000  0.46740  0.11780  1.0000
  C   C45       1.0  0.05550  0.62240  0.94960  1.0000
  C   C46       1.0  0.94450  0.37760  0.05040  1.0000
  H   H57       1.0  0.10110  0.57590  0.97540  1.0000
  H   H58       1.0  0.89890  0.42410  0.02460  1.0000
  H   H59       1.0  0.09800  0.67880  0.94480  1.0000
  H   H60       1.0  0.90200  0.32120  0.05520  1.0000
  C   C47       1.0  0.93780  0.64280  0.99170  1.0000
  C   C48       1.0  0.06220  0.35720  0.00830  1.0000
