data_image0
_chemical_formula_structural       Mn4O24C4H4C8H8
_chemical_formula_sum              "Mn4 O24 C12 H12"
_cell_length_a       13.4375
_cell_length_b       8.6838
_cell_length_c       8.4075
_cell_angle_alpha    90
_cell_angle_beta     118.148
_cell_angle_gamma    90

_space_group_name_H-M_alt    "P 1"
_space_group_IT_number       1

loop_
  _space_group_symop_operation_xyz
  'x, y, z'

loop_
  _atom_site_type_symbol
  _atom_site_label
  _atom_site_symmetry_multiplicity
  _atom_site_fract_x
  _atom_site_fract_y
  _atom_site_fract_z
  _atom_site_occupancy
  Mn  Mn1       1.0  0.25000  0.25000  0.00000  1.0000
  Mn  Mn2       1.0  0.75000  0.25000  0.50000  1.0000
  Mn  Mn3       1.0  0.75000  0.75000  0.00000  1.0000
  Mn  Mn4       1.0  0.25000  0.75000  0.50000  1.0000
  O   O1        1.0  0.17618  0.45614  0.04957  1.0000
  O   O2        1.0  0.82382  0.45614  0.45043  1.0000
  O   O3        1.0  0.67618  0.95614  0.04957  1.0000
  O   O4        1.0  0.32382  0.95614  0.45043  1.0000
  O   O5        1.0  0.82382  0.54386  0.95043  1.0000
  O   O6        1.0  0.17618  0.54386  0.54957  1.0000
  O   O7        1.0  0.32382  0.04386  0.95043  1.0000
  O   O8        1.0  0.67618  0.04386  0.54957  1.0000
  O   O9        1.0  0.20568  0.65234  0.23610  1.0000
  O   O10       1.0  0.79432  0.65234  0.26390  1.0000
  O   O11       1.0  0.70568  0.15234  0.23610  1.0000
  O   O12       1.0  0.29432  0.15234  0.26390  1.0000
  O   O13       1.0  0.79432  0.34766  0.76390  1.0000
  O   O14       1.0  0.20568  0.34766  0.73610  1.0000
  O   O15       1.0  0.29432  0.84766  0.76390  1.0000
  O   O16       1.0  0.70568  0.84766  0.73610  1.0000
  O   O17       1.0  0.41158  0.37236  0.13872  1.0000
  O   O18       1.0  0.58842  0.37236  0.36128  1.0000
  O   O19       1.0  0.91158  0.87236  0.13872  1.0000
  O   O20       1.0  0.08842  0.87236  0.36128  1.0000
  O   O21       1.0  0.58842  0.62764  0.86128  1.0000
  O   O22       1.0  0.41158  0.62764  0.63872  1.0000
  O   O23       1.0  0.08842  0.12764  0.86128  1.0000
  O   O24       1.0  0.91158  0.12764  0.63872  1.0000
  C   C1        1.0  0.50000  0.30580  0.25000  1.0000
  C   C2        1.0  0.00000  0.80580  0.25000  1.0000
  C   C3        1.0  0.50000  0.69420  0.75000  1.0000
  C   C4        1.0  0.00000  0.19420  0.75000  1.0000
  H   H1        1.0  0.50000  0.19870  0.25000  1.0000
  H   H2        1.0  0.00000  0.69870  0.25000  1.0000
  H   H3        1.0  0.50000  0.80130  0.75000  1.0000
  H   H4        1.0  0.00000  0.30130  0.75000  1.0000
  C   C5        1.0  0.21580  0.51416  0.20291  1.0000
  C   C6        1.0  0.78420  0.51416  0.29709  1.0000
  C   C7        1.0  0.71580  0.01416  0.20291  1.0000
  C   C8        1.0  0.28420  0.01416  0.29709  1.0000
  C   C9        1.0  0.78420  0.48584  0.79709  1.0000
  C   C10       1.0  0.21580  0.48584  0.70291  1.0000
  C   C11       1.0  0.28420  0.98584  0.79709  1.0000
  C   C12       1.0  0.71580  0.98584  0.70291  1.0000
  H   H5        1.0  0.25620  0.44970  0.30090  1.0000
  H   H6        1.0  0.74380  0.44970  0.19910  1.0000
  H   H7        1.0  0.75620  0.94970  0.30090  1.0000
  H   H8        1.0  0.24380  0.94970  0.19910  1.0000
  H   H9        1.0  0.74380  0.55030  0.69910  1.0000
  H   H10       1.0  0.25620  0.55030  0.80090  1.0000
  H   H11       1.0  0.24380  0.05030  0.69910  1.0000
  H   H12       1.0  0.75620  0.05030  0.80090  1.0000
