data_image0
_chemical_formula_structural       Mn4O24C4H4C8H8
_chemical_formula_sum              "Mn4 O24 C12 H12"
_cell_length_a       13.8035
_cell_length_b       8.6913
_cell_length_c       8.4626
_cell_angle_alpha    90
_cell_angle_beta     119.664
_cell_angle_gamma    90

_space_group_name_H-M_alt    "P 1"
_space_group_IT_number       1

loop_
  _space_group_symop_operation_xyz
  'x, y, z'

loop_
  _atom_site_type_symbol
  _atom_site_label
  _atom_site_symmetry_multiplicity
  _atom_site_fract_x
  _atom_site_fract_y
  _atom_site_fract_z
  _atom_site_occupancy
  Mn  Mn1       1.0  0.25000  0.25000  0.00000  1.0000
  Mn  Mn2       1.0  0.75000  0.25000  0.50000  1.0000
  Mn  Mn3       1.0  0.75000  0.75000  0.00000  1.0000
  Mn  Mn4       1.0  0.25000  0.75000  0.50000  1.0000
  O   O1        1.0  0.18204  0.45814  0.05167  1.0000
  O   O2        1.0  0.81796  0.45814  0.44833  1.0000
  O   O3        1.0  0.68204  0.95814  0.05167  1.0000
  O   O4        1.0  0.31796  0.95814  0.44833  1.0000
  O   O5        1.0  0.81796  0.54186  0.94833  1.0000
  O   O6        1.0  0.18204  0.54186  0.55167  1.0000
  O   O7        1.0  0.31796  0.04186  0.94833  1.0000
  O   O8        1.0  0.68204  0.04186  0.55167  1.0000
  O   O9        1.0  0.20454  0.65208  0.23561  1.0000
  O   O10       1.0  0.79546  0.65208  0.26439  1.0000
  O   O11       1.0  0.70454  0.15208  0.23561  1.0000
  O   O12       1.0  0.29546  0.15208  0.26439  1.0000
  O   O13       1.0  0.79546  0.34792  0.76439  1.0000
  O   O14       1.0  0.20454  0.34792  0.73561  1.0000
  O   O15       1.0  0.29546  0.84792  0.76439  1.0000
  O   O16       1.0  0.70454  0.84792  0.73561  1.0000
  O   O17       1.0  0.41192  0.36655  0.13990  1.0000
  O   O18       1.0  0.58808  0.36655  0.36010  1.0000
  O   O19       1.0  0.91192  0.86655  0.13990  1.0000
  O   O20       1.0  0.08808  0.86655  0.36010  1.0000
  O   O21       1.0  0.58808  0.63345  0.86010  1.0000
  O   O22       1.0  0.41192  0.63345  0.63990  1.0000
  O   O23       1.0  0.08808  0.13345  0.86010  1.0000
  O   O24       1.0  0.91192  0.13345  0.63990  1.0000
  C   C1        1.0  0.50000  0.30130  0.25000  1.0000
  C   C2        1.0  0.00000  0.80130  0.25000  1.0000
  C   C3        1.0  0.50000  0.69870  0.75000  1.0000
  C   C4        1.0  0.00000  0.19870  0.75000  1.0000
  H   H1        1.0  0.50000  0.19430  0.25000  1.0000
  H   H2        1.0  0.00000  0.69430  0.25000  1.0000
  H   H3        1.0  0.50000  0.80570  0.75000  1.0000
  H   H4        1.0  0.00000  0.30570  0.75000  1.0000
  C   C5        1.0  0.22082  0.51930  0.20250  1.0000
  C   C6        1.0  0.77918  0.51930  0.29750  1.0000
  C   C7        1.0  0.72082  0.01930  0.20250  1.0000
  C   C8        1.0  0.27918  0.01930  0.29750  1.0000
  C   C9        1.0  0.77918  0.48070  0.79750  1.0000
  C   C10       1.0  0.22082  0.48070  0.70250  1.0000
  C   C11       1.0  0.27918  0.98070  0.79750  1.0000
  C   C12       1.0  0.72082  0.98070  0.70250  1.0000
  H   H5        1.0  0.26740  0.45870  0.30210  1.0000
  H   H6        1.0  0.73260  0.45870  0.19790  1.0000
  H   H7        1.0  0.76740  0.95870  0.30210  1.0000
  H   H8        1.0  0.23260  0.95870  0.19790  1.0000
  H   H9        1.0  0.73260  0.54130  0.69790  1.0000
  H   H10       1.0  0.26740  0.54130  0.80210  1.0000
  H   H11       1.0  0.23260  0.04130  0.69790  1.0000
  H   H12       1.0  0.76740  0.04130  0.80210  1.0000
