data_image0
_chemical_formula_structural       In16O96N32C160O96H32N32C32In16C32O64
_chemical_formula_sum              "In32 O256 N64 C224 H32"
_cell_length_a       17.2988
_cell_length_b       18.119
_cell_length_c       31.676
_cell_angle_alpha    90
_cell_angle_beta     90
_cell_angle_gamma    90

_space_group_name_H-M_alt    "P 1"
_space_group_IT_number       1

loop_
  _space_group_symop_operation_xyz
  'x, y, z'

loop_
  _atom_site_type_symbol
  _atom_site_label
  _atom_site_symmetry_multiplicity
  _atom_site_fract_x
  _atom_site_fract_y
  _atom_site_fract_z
  _atom_site_occupancy
  In  In1       1.0  0.12500  0.38636  0.12500  1.0000
  In  In2       1.0  0.62500  0.36364  0.12500  1.0000
  In  In3       1.0  0.62500  0.38636  0.62500  1.0000
  In  In4       1.0  0.12500  0.36364  0.62500  1.0000
  In  In5       1.0  0.12500  0.88636  0.62500  1.0000
  In  In6       1.0  0.62500  0.86364  0.62500  1.0000
  In  In7       1.0  0.62500  0.88636  0.12500  1.0000
  In  In8       1.0  0.12500  0.86364  0.12500  1.0000
  In  In9       1.0  0.87500  0.61364  0.87500  1.0000
  In  In10      1.0  0.37500  0.63636  0.87500  1.0000
  In  In11      1.0  0.37500  0.61364  0.37500  1.0000
  In  In12      1.0  0.87500  0.63636  0.37500  1.0000
  In  In13      1.0  0.87500  0.11364  0.37500  1.0000
  In  In14      1.0  0.37500  0.13636  0.37500  1.0000
  In  In15      1.0  0.37500  0.11364  0.87500  1.0000
  In  In16      1.0  0.87500  0.13636  0.87500  1.0000
  O   O1        1.0  0.02440  0.43709  0.08798  1.0000
  O   O2        1.0  0.72560  0.31291  0.08798  1.0000
  O   O3        1.0  0.72560  0.43709  0.66202  1.0000
  O   O4        1.0  0.02440  0.31291  0.66202  1.0000
  O   O5        1.0  0.02440  0.93709  0.58798  1.0000
  O   O6        1.0  0.72560  0.81291  0.58798  1.0000
  O   O7        1.0  0.72560  0.93709  0.16202  1.0000
  O   O8        1.0  0.02440  0.81291  0.16202  1.0000
  O   O9        1.0  0.52440  0.43709  0.58798  1.0000
  O   O10       1.0  0.22560  0.31291  0.58798  1.0000
  O   O11       1.0  0.22560  0.43709  0.16202  1.0000
  O   O12       1.0  0.52440  0.31291  0.16202  1.0000
  O   O13       1.0  0.52440  0.93709  0.08798  1.0000
  O   O14       1.0  0.22560  0.81291  0.08798  1.0000
  O   O15       1.0  0.22560  0.93709  0.66202  1.0000
  O   O16       1.0  0.52440  0.81291  0.66202  1.0000
  O   O17       1.0  0.97560  0.56291  0.91202  1.0000
  O   O18       1.0  0.27440  0.68709  0.91202  1.0000
  O   O19       1.0  0.27440  0.56291  0.33798  1.0000
  O   O20       1.0  0.97560  0.68709  0.33798  1.0000
  O   O21       1.0  0.97560  0.06291  0.41202  1.0000
  O   O22       1.0  0.27440  0.18709  0.41202  1.0000
  O   O23       1.0  0.27440  0.06291  0.83798  1.0000
  O   O24       1.0  0.97560  0.18709  0.83798  1.0000
  O   O25       1.0  0.47560  0.56291  0.41202  1.0000
  O   O26       1.0  0.77440  0.68709  0.41202  1.0000
  O   O27       1.0  0.77440  0.56291  0.83798  1.0000
  O   O28       1.0  0.47560  0.68709  0.83798  1.0000
  O   O29       1.0  0.47560  0.06291  0.91202  1.0000
  O   O30       1.0  0.77440  0.18709  0.91202  1.0000
  O   O31       1.0  0.77440  0.06291  0.33798  1.0000
  O   O32       1.0  0.47560  0.18709  0.33798  1.0000
  O   O33       1.0  0.10798  0.33866  0.05431  1.0000
  O   O34       1.0  0.64202  0.41134  0.05431  1.0000
  O   O35       1.0  0.64202  0.33866  0.69569  1.0000
  O   O36       1.0  0.10798  0.41134  0.69569  1.0000
  O   O37       1.0  0.10798  0.83866  0.55431  1.0000
  O   O38       1.0  0.64202  0.91134  0.55431  1.0000
  O   O39       1.0  0.64202  0.83866  0.19569  1.0000
  O   O40       1.0  0.10798  0.91134  0.19569  1.0000
  O   O41       1.0  0.60798  0.33866  0.55431  1.0000
  O   O42       1.0  0.14202  0.41134  0.55431  1.0000
  O   O43       1.0  0.14202  0.33866  0.19569  1.0000
  O   O44       1.0  0.60798  0.41134  0.19569  1.0000
  O   O45       1.0  0.60798  0.83866  0.05431  1.0000
  O   O46       1.0  0.14202  0.91134  0.05431  1.0000
  O   O47       1.0  0.14202  0.83866  0.69569  1.0000
  O   O48       1.0  0.60798  0.91134  0.69569  1.0000
  O   O49       1.0  0.89202  0.66134  0.94569  1.0000
  O   O50       1.0  0.35798  0.58866  0.94569  1.0000
  O   O51       1.0  0.35798  0.66134  0.30431  1.0000
  O   O52       1.0  0.89202  0.58866  0.30431  1.0000
  O   O53       1.0  0.89202  0.16134  0.44569  1.0000
  O   O54       1.0  0.35798  0.08866  0.44569  1.0000
  O   O55       1.0  0.35798  0.16134  0.80431  1.0000
  O   O56       1.0  0.89202  0.08866  0.80431  1.0000
  O   O57       1.0  0.39202  0.66134  0.44569  1.0000
  O   O58       1.0  0.85798  0.58866  0.44569  1.0000
  O   O59       1.0  0.85798  0.66134  0.80431  1.0000
  O   O60       1.0  0.39202  0.58866  0.80431  1.0000
  O   O61       1.0  0.39202  0.16134  0.94569  1.0000
  O   O62       1.0  0.85798  0.08866  0.94569  1.0000
  O   O63       1.0  0.85798  0.16134  0.30431  1.0000
  O   O64       1.0  0.39202  0.08866  0.30431  1.0000
  O   O65       1.0  0.06997  0.47640  0.16502  1.0000
  O   O66       1.0  0.68003  0.27360  0.16502  1.0000
  O   O67       1.0  0.68003  0.47640  0.58498  1.0000
  O   O68       1.0  0.06997  0.27360  0.58498  1.0000
  O   O69       1.0  0.06997  0.97640  0.66502  1.0000
  O   O70       1.0  0.68003  0.77360  0.66502  1.0000
  O   O71       1.0  0.68003  0.97640  0.08498  1.0000
  O   O72       1.0  0.06997  0.77360  0.08498  1.0000
  O   O73       1.0  0.56997  0.47640  0.66502  1.0000
  O   O74       1.0  0.18003  0.27360  0.66502  1.0000
  O   O75       1.0  0.18003  0.47640  0.08498  1.0000
  O   O76       1.0  0.56997  0.27360  0.08498  1.0000
  O   O77       1.0  0.56997  0.97640  0.16502  1.0000
  O   O78       1.0  0.18003  0.77360  0.16502  1.0000
  O   O79       1.0  0.18003  0.97640  0.58498  1.0000
  O   O80       1.0  0.56997  0.77360  0.58498  1.0000
  O   O81       1.0  0.93003  0.52360  0.83498  1.0000
  O   O82       1.0  0.31997  0.72640  0.83498  1.0000
  O   O83       1.0  0.31997  0.52360  0.41502  1.0000
  O   O84       1.0  0.93003  0.72640  0.41502  1.0000
  O   O85       1.0  0.93003  0.02360  0.33498  1.0000
  O   O86       1.0  0.31997  0.22640  0.33498  1.0000
  O   O87       1.0  0.31997  0.02360  0.91502  1.0000
  O   O88       1.0  0.93003  0.22640  0.91502  1.0000
  O   O89       1.0  0.43003  0.52360  0.33498  1.0000
  O   O90       1.0  0.81997  0.72640  0.33498  1.0000
  O   O91       1.0  0.81997  0.52360  0.91502  1.0000
  O   O92       1.0  0.43003  0.72640  0.91502  1.0000
  O   O93       1.0  0.43003  0.02360  0.83498  1.0000
  O   O94       1.0  0.81997  0.22640  0.83498  1.0000
  O   O95       1.0  0.81997  0.02360  0.41502  1.0000
  O   O96       1.0  0.43003  0.22640  0.41502  1.0000
  N   N1        1.0  0.21388  0.29967  0.11278  1.0000
  N   N2        1.0  0.53612  0.45033  0.11278  1.0000
  N   N3        1.0  0.53612  0.29967  0.63722  1.0000
  N   N4        1.0  0.21388  0.45033  0.63722  1.0000
  N   N5        1.0  0.21388  0.79967  0.61278  1.0000
  N   N6        1.0  0.53612  0.95033  0.61278  1.0000
  N   N7        1.0  0.53612  0.79967  0.13722  1.0000
  N   N8        1.0  0.21388  0.95033  0.13722  1.0000
  N   N9        1.0  0.71388  0.29967  0.61278  1.0000
  N   N10       1.0  0.03612  0.45033  0.61278  1.0000
  N   N11       1.0  0.03612  0.29967  0.13722  1.0000
  N   N12       1.0  0.71388  0.45033  0.13722  1.0000
  N   N13       1.0  0.71388  0.79967  0.11278  1.0000
  N   N14       1.0  0.03612  0.95033  0.11278  1.0000
  N   N15       1.0  0.03612  0.79967  0.63722  1.0000
  N   N16       1.0  0.71388  0.95033  0.63722  1.0000
  N   N17       1.0  0.78612  0.70033  0.88722  1.0000
  N   N18       1.0  0.46388  0.54967  0.88722  1.0000
  N   N19       1.0  0.46388  0.70033  0.36278  1.0000
  N   N20       1.0  0.78612  0.54967  0.36278  1.0000
  N   N21       1.0  0.78612  0.20033  0.38722  1.0000
  N   N22       1.0  0.46388  0.04967  0.38722  1.0000
  N   N23       1.0  0.46388  0.20033  0.86278  1.0000
  N   N24       1.0  0.78612  0.04967  0.86278  1.0000
  N   N25       1.0  0.28612  0.70033  0.38722  1.0000
  N   N26       1.0  0.96388  0.54967  0.38722  1.0000
  N   N27       1.0  0.96388  0.70033  0.86278  1.0000
  N   N28       1.0  0.28612  0.54967  0.86278  1.0000
  N   N29       1.0  0.28612  0.20033  0.88722  1.0000
  N   N30       1.0  0.96388  0.04967  0.88722  1.0000
  N   N31       1.0  0.96388  0.20033  0.36278  1.0000
  N   N32       1.0  0.28612  0.04967  0.36278  1.0000
  C   C1        1.0  0.99240  0.49244  0.10335  1.0000
  C   C2        1.0  0.75760  0.25756  0.10335  1.0000
  C   C3        1.0  0.75760  0.49244  0.64665  1.0000
  C   C4        1.0  0.99240  0.25756  0.64665  1.0000
  C   C5        1.0  0.99240  0.99244  0.60335  1.0000
  C   C6        1.0  0.75760  0.75756  0.60335  1.0000
  C   C7        1.0  0.75760  0.99244  0.14665  1.0000
  C   C8        1.0  0.99240  0.75756  0.14665  1.0000
  C   C9        1.0  0.49240  0.49244  0.60335  1.0000
  C   C10       1.0  0.25760  0.25756  0.60335  1.0000
  C   C11       1.0  0.25760  0.49244  0.14665  1.0000
  C   C12       1.0  0.49240  0.25756  0.14665  1.0000
  C   C13       1.0  0.49240  0.99244  0.10335  1.0000
  C   C14       1.0  0.25760  0.75756  0.10335  1.0000
  C   C15       1.0  0.25760  0.99244  0.64665  1.0000
  C   C16       1.0  0.49240  0.75756  0.64665  1.0000
  C   C17       1.0  0.00760  0.50756  0.89665  1.0000
  C   C18       1.0  0.24240  0.74244  0.89665  1.0000
  C   C19       1.0  0.24240  0.50756  0.35335  1.0000
  C   C20       1.0  0.00760  0.74244  0.35335  1.0000
  C   C21       1.0  0.00760  0.00756  0.39665  1.0000
  C   C22       1.0  0.24240  0.24244  0.39665  1.0000
  C   C23       1.0  0.24240  0.00756  0.85335  1.0000
  C   C24       1.0  0.00760  0.24244  0.85335  1.0000
  C   C25       1.0  0.50760  0.50756  0.39665  1.0000
  C   C26       1.0  0.74240  0.74244  0.39665  1.0000
  C   C27       1.0  0.74240  0.50756  0.85335  1.0000
  C   C28       1.0  0.50760  0.74244  0.85335  1.0000
  C   C29       1.0  0.50760  0.00756  0.89665  1.0000
  C   C30       1.0  0.74240  0.24244  0.89665  1.0000
  C   C31       1.0  0.74240  0.00756  0.35335  1.0000
  C   C32       1.0  0.50760  0.24244  0.35335  1.0000
  C   C33       1.0  0.14687  0.28266  0.04531  1.0000
  C   C34       1.0  0.60313  0.46734  0.04531  1.0000
  C   C35       1.0  0.60313  0.28266  0.70469  1.0000
  C   C36       1.0  0.14687  0.46734  0.70469  1.0000
  C   C37       1.0  0.14687  0.78266  0.54531  1.0000
  C   C38       1.0  0.60313  0.96734  0.54531  1.0000
  C   C39       1.0  0.60313  0.78266  0.20469  1.0000
  C   C40       1.0  0.14687  0.96734  0.20469  1.0000
  C   C41       1.0  0.64687  0.28266  0.54531  1.0000
  C   C42       1.0  0.10313  0.46734  0.54531  1.0000
  C   C43       1.0  0.10313  0.28266  0.20469  1.0000
  C   C44       1.0  0.64687  0.46734  0.20469  1.0000
  C   C45       1.0  0.64687  0.78266  0.04531  1.0000
  C   C46       1.0  0.10313  0.96734  0.04531  1.0000
  C   C47       1.0  0.10313  0.78266  0.70469  1.0000
  C   C48       1.0  0.64687  0.96734  0.70469  1.0000
  C   C49       1.0  0.85313  0.71734  0.95469  1.0000
  C   C50       1.0  0.39687  0.53266  0.95469  1.0000
  C   C51       1.0  0.39687  0.71734  0.29531  1.0000
  C   C52       1.0  0.85313  0.53266  0.29531  1.0000
  C   C53       1.0  0.85313  0.21734  0.45469  1.0000
  C   C54       1.0  0.39687  0.03266  0.45469  1.0000
  C   C55       1.0  0.39687  0.21734  0.79531  1.0000
  C   C56       1.0  0.85313  0.03266  0.79531  1.0000
  C   C57       1.0  0.35313  0.71734  0.45469  1.0000
  C   C58       1.0  0.89687  0.53266  0.45469  1.0000
  C   C59       1.0  0.89687  0.71734  0.79531  1.0000
  C   C60       1.0  0.35313  0.53266  0.79531  1.0000
  C   C61       1.0  0.35313  0.21734  0.95469  1.0000
  C   C62       1.0  0.89687  0.03266  0.95469  1.0000
  C   C63       1.0  0.89687  0.21734  0.29531  1.0000
  C   C64       1.0  0.35313  0.03266  0.29531  1.0000
  C   C65       1.0  0.01668  0.51402  0.14860  1.0000
  C   C66       1.0  0.73332  0.23598  0.14860  1.0000
  C   C67       1.0  0.73332  0.51402  0.60140  1.0000
  C   C68       1.0  0.01668  0.23598  0.60140  1.0000
  C   C69       1.0  0.01668  0.01402  0.64860  1.0000
  C   C70       1.0  0.73332  0.73598  0.64860  1.0000
  C   C71       1.0  0.73332  0.01402  0.10140  1.0000
  C   C72       1.0  0.01668  0.73598  0.10140  1.0000
  C   C73       1.0  0.51668  0.51402  0.64860  1.0000
  C   C74       1.0  0.23332  0.23598  0.64860  1.0000
  C   C75       1.0  0.23332  0.51402  0.10140  1.0000
  C   C76       1.0  0.51668  0.23598  0.10140  1.0000
  C   C77       1.0  0.51668  0.01402  0.14860  1.0000
  C   C78       1.0  0.23332  0.73598  0.14860  1.0000
  C   C79       1.0  0.23332  0.01402  0.60140  1.0000
  C   C80       1.0  0.51668  0.73598  0.60140  1.0000
  C   C81       1.0  0.98332  0.48598  0.85140  1.0000
  C   C82       1.0  0.26668  0.76402  0.85140  1.0000
  C   C83       1.0  0.26668  0.48598  0.39860  1.0000
  C   C84       1.0  0.98332  0.76402  0.39860  1.0000
  C   C85       1.0  0.98332  0.98598  0.35140  1.0000
  C   C86       1.0  0.26668  0.26402  0.35140  1.0000
  C   C87       1.0  0.26668  0.98598  0.89860  1.0000
  C   C88       1.0  0.98332  0.26402  0.89860  1.0000
  C   C89       1.0  0.48332  0.48598  0.35140  1.0000
  C   C90       1.0  0.76668  0.76402  0.35140  1.0000
  C   C91       1.0  0.76668  0.48598  0.89860  1.0000
  C   C92       1.0  0.48332  0.76402  0.89860  1.0000
  C   C93       1.0  0.48332  0.98598  0.85140  1.0000
  C   C94       1.0  0.76668  0.26402  0.85140  1.0000
  C   C95       1.0  0.76668  0.98598  0.39860  1.0000
  C   C96       1.0  0.48332  0.26402  0.39860  1.0000
  C   C97       1.0  0.27267  0.26733  0.13352  1.0000
  C   C98       1.0  0.47733  0.48267  0.13352  1.0000
  C   C99       1.0  0.47733  0.26733  0.61648  1.0000
  C   C100      1.0  0.27267  0.48267  0.61648  1.0000
  C   C101      1.0  0.27267  0.76733  0.63352  1.0000
  C   C102      1.0  0.47733  0.98267  0.63352  1.0000
  C   C103      1.0  0.47733  0.76733  0.11648  1.0000
  C   C104      1.0  0.27267  0.98267  0.11648  1.0000
  C   C105      1.0  0.77267  0.26733  0.63352  1.0000
  C   C106      1.0  0.97733  0.48267  0.63352  1.0000
  C   C107      1.0  0.97733  0.26733  0.11648  1.0000
  C   C108      1.0  0.77267  0.48267  0.11648  1.0000
  C   C109      1.0  0.77267  0.76733  0.13352  1.0000
  C   C110      1.0  0.97733  0.98267  0.13352  1.0000
  C   C111      1.0  0.97733  0.76733  0.61648  1.0000
  C   C112      1.0  0.77267  0.98267  0.61648  1.0000
  C   C113      1.0  0.72733  0.73267  0.86648  1.0000
  C   C114      1.0  0.52267  0.51733  0.86648  1.0000
  C   C115      1.0  0.52267  0.73267  0.38352  1.0000
  C   C116      1.0  0.72733  0.51733  0.38352  1.0000
  C   C117      1.0  0.72733  0.23267  0.36648  1.0000
  C   C118      1.0  0.52267  0.01733  0.36648  1.0000
  C   C119      1.0  0.52267  0.23267  0.88352  1.0000
  C   C120      1.0  0.72733  0.01733  0.88352  1.0000
  C   C121      1.0  0.22733  0.73267  0.36648  1.0000
  C   C122      1.0  0.02267  0.51733  0.36648  1.0000
  C   C123      1.0  0.02267  0.73267  0.88352  1.0000
  C   C124      1.0  0.22733  0.51733  0.88352  1.0000
  C   C125      1.0  0.22733  0.23267  0.86648  1.0000
  C   C126      1.0  0.02267  0.01733  0.86648  1.0000
  C   C127      1.0  0.02267  0.23267  0.38352  1.0000
  C   C128      1.0  0.22733  0.01733  0.38352  1.0000
  C   C129      1.0  0.20616  0.26069  0.07589  1.0000
  C   C130      1.0  0.54384  0.48931  0.07589  1.0000
  C   C131      1.0  0.54384  0.26069  0.67411  1.0000
  C   C132      1.0  0.20616  0.48931  0.67411  1.0000
  C   C133      1.0  0.20616  0.76069  0.57589  1.0000
  C   C134      1.0  0.54384  0.98931  0.57589  1.0000
  C   C135      1.0  0.54384  0.76069  0.17411  1.0000
  C   C136      1.0  0.20616  0.98931  0.17411  1.0000
  C   C137      1.0  0.70616  0.26069  0.57589  1.0000
  C   C138      1.0  0.04384  0.48931  0.57589  1.0000
  C   C139      1.0  0.04384  0.26069  0.17411  1.0000
  C   C140      1.0  0.70616  0.48931  0.17411  1.0000
  C   C141      1.0  0.70616  0.76069  0.07589  1.0000
  C   C142      1.0  0.04384  0.98931  0.07589  1.0000
  C   C143      1.0  0.04384  0.76069  0.67411  1.0000
  C   C144      1.0  0.70616  0.98931  0.67411  1.0000
  C   C145      1.0  0.79384  0.73931  0.92411  1.0000
  C   C146      1.0  0.45616  0.51069  0.92411  1.0000
  C   C147      1.0  0.45616  0.73931  0.32589  1.0000
  C   C148      1.0  0.79384  0.51069  0.32589  1.0000
  C   C149      1.0  0.79384  0.23931  0.42411  1.0000
  C   C150      1.0  0.45616  0.01069  0.42411  1.0000
  C   C151      1.0  0.45616  0.23931  0.82589  1.0000
  C   C152      1.0  0.79384  0.01069  0.82589  1.0000
  C   C153      1.0  0.29384  0.73931  0.42411  1.0000
  C   C154      1.0  0.95616  0.51069  0.42411  1.0000
  C   C155      1.0  0.95616  0.73931  0.82589  1.0000
  C   C156      1.0  0.29384  0.51069  0.82589  1.0000
  C   C157      1.0  0.29384  0.23931  0.92411  1.0000
  C   C158      1.0  0.95616  0.01069  0.92411  1.0000
  C   C159      1.0  0.95616  0.23931  0.32589  1.0000
  C   C160      1.0  0.29384  0.01069  0.32589  1.0000
  O   O97       1.0  0.94355  0.53281  0.08577  1.0000
  O   O98       1.0  0.80645  0.21719  0.08577  1.0000
  O   O99       1.0  0.80645  0.53281  0.66423  1.0000
  O   O100      1.0  0.94355  0.21719  0.66423  1.0000
  O   O101      1.0  0.94355  0.03281  0.58577  1.0000
  O   O102      1.0  0.80645  0.71719  0.58577  1.0000
  O   O103      1.0  0.80645  0.03281  0.16423  1.0000
  O   O104      1.0  0.94355  0.71719  0.16423  1.0000
  O   O105      1.0  0.44355  0.53281  0.58577  1.0000
  O   O106      1.0  0.30645  0.21719  0.58577  1.0000
  O   O107      1.0  0.30645  0.53281  0.16423  1.0000
  O   O108      1.0  0.44355  0.21719  0.16423  1.0000
  O   O109      1.0  0.44355  0.03281  0.08577  1.0000
  O   O110      1.0  0.30645  0.71719  0.08577  1.0000
  O   O111      1.0  0.30645  0.03281  0.66423  1.0000
  O   O112      1.0  0.44355  0.71719  0.66423  1.0000
  O   O113      1.0  0.05645  0.46719  0.91423  1.0000
  O   O114      1.0  0.19355  0.78281  0.91423  1.0000
  O   O115      1.0  0.19355  0.46719  0.33577  1.0000
  O   O116      1.0  0.05645  0.78281  0.33577  1.0000
  O   O117      1.0  0.05645  0.96719  0.41423  1.0000
  O   O118      1.0  0.19355  0.28281  0.41423  1.0000
  O   O119      1.0  0.19355  0.96719  0.83577  1.0000
  O   O120      1.0  0.05645  0.28281  0.83577  1.0000
  O   O121      1.0  0.55645  0.46719  0.41423  1.0000
  O   O122      1.0  0.69355  0.78281  0.41423  1.0000
  O   O123      1.0  0.69355  0.46719  0.83577  1.0000
  O   O124      1.0  0.55645  0.78281  0.83577  1.0000
  O   O125      1.0  0.55645  0.96719  0.91423  1.0000
  O   O126      1.0  0.69355  0.28281  0.91423  1.0000
  O   O127      1.0  0.69355  0.96719  0.33577  1.0000
  O   O128      1.0  0.55645  0.28281  0.33577  1.0000
  O   O129      1.0  0.13762  0.24421  0.01181  1.0000
  O   O130      1.0  0.61238  0.50579  0.01181  1.0000
  O   O131      1.0  0.61238  0.24421  0.73819  1.0000
  O   O132      1.0  0.13762  0.50579  0.73819  1.0000
  O   O133      1.0  0.13762  0.74421  0.51181  1.0000
  O   O134      1.0  0.61238  0.00579  0.51181  1.0000
  O   O135      1.0  0.61238  0.74421  0.23819  1.0000
  O   O136      1.0  0.13762  0.00579  0.23819  1.0000
  O   O137      1.0  0.63762  0.24421  0.51181  1.0000
  O   O138      1.0  0.11238  0.50579  0.51181  1.0000
  O   O139      1.0  0.11238  0.24421  0.23819  1.0000
  O   O140      1.0  0.63762  0.50579  0.23819  1.0000
  O   O141      1.0  0.63762  0.74421  0.01181  1.0000
  O   O142      1.0  0.11238  0.00579  0.01181  1.0000
  O   O143      1.0  0.11238  0.74421  0.73819  1.0000
  O   O144      1.0  0.63762  0.00579  0.73819  1.0000
  O   O145      1.0  0.86238  0.75579  0.98819  1.0000
  O   O146      1.0  0.38762  0.49421  0.98819  1.0000
  O   O147      1.0  0.38762  0.75579  0.26181  1.0000
  O   O148      1.0  0.86238  0.49421  0.26181  1.0000
  O   O149      1.0  0.86238  0.25579  0.48819  1.0000
  O   O150      1.0  0.38762  0.99421  0.48819  1.0000
  O   O151      1.0  0.38762  0.25579  0.76181  1.0000
  O   O152      1.0  0.86238  0.99421  0.76181  1.0000
  O   O153      1.0  0.36238  0.75579  0.48819  1.0000
  O   O154      1.0  0.88762  0.49421  0.48819  1.0000
  O   O155      1.0  0.88762  0.75579  0.76181  1.0000
  O   O156      1.0  0.36238  0.49421  0.76181  1.0000
  O   O157      1.0  0.36238  0.25579  0.98819  1.0000
  O   O158      1.0  0.88762  0.99421  0.98819  1.0000
  O   O159      1.0  0.88762  0.25579  0.26181  1.0000
  O   O160      1.0  0.36238  0.99421  0.26181  1.0000
  O   O161      1.0  0.98273  0.56836  0.16489  1.0000
  O   O162      1.0  0.76727  0.18164  0.16489  1.0000
  O   O163      1.0  0.76727  0.56836  0.58511  1.0000
  O   O164      1.0  0.98273  0.18164  0.58511  1.0000
  O   O165      1.0  0.98273  0.06836  0.66489  1.0000
  O   O166      1.0  0.76727  0.68164  0.66489  1.0000
  O   O167      1.0  0.76727  0.06836  0.08511  1.0000
  O   O168      1.0  0.98273  0.68164  0.08511  1.0000
  O   O169      1.0  0.48273  0.56836  0.66489  1.0000
  O   O170      1.0  0.26727  0.18164  0.66489  1.0000
  O   O171      1.0  0.26727  0.56836  0.08511  1.0000
  O   O172      1.0  0.48273  0.18164  0.08511  1.0000
  O   O173      1.0  0.48273  0.06836  0.16489  1.0000
  O   O174      1.0  0.26727  0.68164  0.16489  1.0000
  O   O175      1.0  0.26727  0.06836  0.58511  1.0000
  O   O176      1.0  0.48273  0.68164  0.58511  1.0000
  O   O177      1.0  0.01727  0.43164  0.83511  1.0000
  O   O178      1.0  0.23273  0.81836  0.83511  1.0000
  O   O179      1.0  0.23273  0.43164  0.41489  1.0000
  O   O180      1.0  0.01727  0.81836  0.41489  1.0000
  O   O181      1.0  0.01727  0.93164  0.33511  1.0000
  O   O182      1.0  0.23273  0.31836  0.33511  1.0000
  O   O183      1.0  0.23273  0.93164  0.91489  1.0000
  O   O184      1.0  0.01727  0.31836  0.91489  1.0000
  O   O185      1.0  0.51727  0.43164  0.33511  1.0000
  O   O186      1.0  0.73273  0.81836  0.33511  1.0000
  O   O187      1.0  0.73273  0.43164  0.91489  1.0000
  O   O188      1.0  0.51727  0.81836  0.91489  1.0000
  O   O189      1.0  0.51727  0.93164  0.83511  1.0000
  O   O190      1.0  0.73273  0.31836  0.83511  1.0000
  O   O191      1.0  0.73273  0.93164  0.41489  1.0000
  O   O192      1.0  0.51727  0.31836  0.41489  1.0000
  H   H1        1.0  0.29230  0.28460  0.16010  1.0000
  H   H2        1.0  0.45770  0.46540  0.16010  1.0000
  H   H3        1.0  0.45770  0.28460  0.58990  1.0000
  H   H4        1.0  0.29230  0.46540  0.58990  1.0000
  H   H5        1.0  0.29230  0.78460  0.66010  1.0000
  H   H6        1.0  0.45770  0.96540  0.66010  1.0000
  H   H7        1.0  0.45770  0.78460  0.08990  1.0000
  H   H8        1.0  0.29230  0.96540  0.08990  1.0000
  H   H9        1.0  0.79230  0.28460  0.66010  1.0000
  H   H10       1.0  0.95770  0.46540  0.66010  1.0000
  H   H11       1.0  0.95770  0.28460  0.08990  1.0000
  H   H12       1.0  0.79230  0.46540  0.08990  1.0000
  H   H13       1.0  0.79230  0.78460  0.16010  1.0000
  H   H14       1.0  0.95770  0.96540  0.16010  1.0000
  H   H15       1.0  0.95770  0.78460  0.58990  1.0000
  H   H16       1.0  0.79230  0.96540  0.58990  1.0000
  H   H17       1.0  0.70770  0.71540  0.83990  1.0000
  H   H18       1.0  0.54230  0.53460  0.83990  1.0000
  H   H19       1.0  0.54230  0.71540  0.41010  1.0000
  H   H20       1.0  0.70770  0.53460  0.41010  1.0000
  H   H21       1.0  0.70770  0.21540  0.33990  1.0000
  H   H22       1.0  0.54230  0.03460  0.33990  1.0000
  H   H23       1.0  0.54230  0.21540  0.91010  1.0000
  H   H24       1.0  0.70770  0.03460  0.91010  1.0000
  H   H25       1.0  0.20770  0.71540  0.33990  1.0000
  H   H26       1.0  0.04230  0.53460  0.33990  1.0000
  H   H27       1.0  0.04230  0.71540  0.91010  1.0000
  H   H28       1.0  0.20770  0.53460  0.91010  1.0000
  H   H29       1.0  0.20770  0.21540  0.83990  1.0000
  H   H30       1.0  0.04230  0.03460  0.83990  1.0000
  H   H31       1.0  0.04230  0.21540  0.41010  1.0000
  H   H32       1.0  0.20770  0.03460  0.41010  1.0000
  N   N33       1.0  0.30293  0.21012  0.11214  1.0000
  N   N34       1.0  0.44707  0.53988  0.11214  1.0000
  N   N35       1.0  0.44707  0.21012  0.63786  1.0000
  N   N36       1.0  0.30293  0.53988  0.63786  1.0000
  N   N37       1.0  0.30293  0.71012  0.61214  1.0000
  N   N38       1.0  0.44707  0.03988  0.61214  1.0000
  N   N39       1.0  0.44707  0.71012  0.13786  1.0000
  N   N40       1.0  0.30293  0.03988  0.13786  1.0000
  N   N41       1.0  0.80293  0.21012  0.61214  1.0000
  N   N42       1.0  0.94707  0.53988  0.61214  1.0000
  N   N43       1.0  0.94707  0.21012  0.13786  1.0000
  N   N44       1.0  0.80293  0.53988  0.13786  1.0000
  N   N45       1.0  0.80293  0.71012  0.11214  1.0000
  N   N46       1.0  0.94707  0.03988  0.11214  1.0000
  N   N47       1.0  0.94707  0.71012  0.63786  1.0000
  N   N48       1.0  0.80293  0.03988  0.63786  1.0000
  N   N49       1.0  0.69707  0.78988  0.88786  1.0000
  N   N50       1.0  0.55293  0.46012  0.88786  1.0000
  N   N51       1.0  0.55293  0.78988  0.36214  1.0000
  N   N52       1.0  0.69707  0.46012  0.36214  1.0000
  N   N53       1.0  0.69707  0.28988  0.38786  1.0000
  N   N54       1.0  0.55293  0.96012  0.38786  1.0000
  N   N55       1.0  0.55293  0.28988  0.86214  1.0000
  N   N56       1.0  0.69707  0.96012  0.86214  1.0000
  N   N57       1.0  0.19707  0.78988  0.38786  1.0000
  N   N58       1.0  0.05293  0.46012  0.38786  1.0000
  N   N59       1.0  0.05293  0.78988  0.86214  1.0000
  N   N60       1.0  0.19707  0.46012  0.86214  1.0000
  N   N61       1.0  0.19707  0.28988  0.88786  1.0000
  N   N62       1.0  0.05293  0.96012  0.88786  1.0000
  N   N63       1.0  0.05293  0.28988  0.36214  1.0000
  N   N64       1.0  0.19707  0.96012  0.36214  1.0000
  C   C161      1.0  0.26075  0.20563  0.07543  1.0000
  C   C162      1.0  0.48925  0.54437  0.07543  1.0000
  C   C163      1.0  0.48925  0.20563  0.67457  1.0000
  C   C164      1.0  0.26075  0.54437  0.67457  1.0000
  C   C165      1.0  0.26075  0.70563  0.57543  1.0000
  C   C166      1.0  0.48925  0.04437  0.57543  1.0000
  C   C167      1.0  0.48925  0.70563  0.17457  1.0000
  C   C168      1.0  0.26075  0.04437  0.17457  1.0000
  C   C169      1.0  0.76075  0.20563  0.57543  1.0000
  C   C170      1.0  0.98925  0.54437  0.57543  1.0000
  C   C171      1.0  0.98925  0.20563  0.17457  1.0000
  C   C172      1.0  0.76075  0.54437  0.17457  1.0000
  C   C173      1.0  0.76075  0.70563  0.07543  1.0000
  C   C174      1.0  0.98925  0.04437  0.07543  1.0000
  C   C175      1.0  0.98925  0.70563  0.67457  1.0000
  C   C176      1.0  0.76075  0.04437  0.67457  1.0000
  C   C177      1.0  0.73925  0.79437  0.92457  1.0000
  C   C178      1.0  0.51075  0.45563  0.92457  1.0000
  C   C179      1.0  0.51075  0.79437  0.32543  1.0000
  C   C180      1.0  0.73925  0.45563  0.32543  1.0000
  C   C181      1.0  0.73925  0.29437  0.42457  1.0000
  C   C182      1.0  0.51075  0.95563  0.42457  1.0000
  C   C183      1.0  0.51075  0.29437  0.82543  1.0000
  C   C184      1.0  0.73925  0.95563  0.82543  1.0000
  C   C185      1.0  0.23925  0.79437  0.42457  1.0000
  C   C186      1.0  0.01075  0.45563  0.42457  1.0000
  C   C187      1.0  0.01075  0.79437  0.82543  1.0000
  C   C188      1.0  0.23925  0.45563  0.82543  1.0000
  C   C189      1.0  0.23925  0.29437  0.92457  1.0000
  C   C190      1.0  0.01075  0.95563  0.92457  1.0000
  C   C191      1.0  0.01075  0.29437  0.32543  1.0000
  C   C192      1.0  0.23925  0.95563  0.32543  1.0000
  In  In17      1.0  0.89146  0.62500  0.12500  1.0000
  In  In18      1.0  0.85854  0.12500  0.12500  1.0000
  In  In19      1.0  0.85854  0.62500  0.62500  1.0000
  In  In20      1.0  0.89146  0.12500  0.62500  1.0000
  In  In21      1.0  0.39146  0.62500  0.62500  1.0000
  In  In22      1.0  0.35854  0.12500  0.62500  1.0000
  In  In23      1.0  0.35854  0.62500  0.12500  1.0000
  In  In24      1.0  0.39146  0.12500  0.12500  1.0000
  In  In25      1.0  0.10854  0.37500  0.87500  1.0000
  In  In26      1.0  0.14146  0.87500  0.87500  1.0000
  In  In27      1.0  0.14146  0.37500  0.37500  1.0000
  In  In28      1.0  0.10854  0.87500  0.37500  1.0000
  In  In29      1.0  0.60854  0.37500  0.37500  1.0000
  In  In30      1.0  0.64146  0.87500  0.37500  1.0000
  In  In31      1.0  0.64146  0.37500  0.87500  1.0000
  In  In32      1.0  0.60854  0.87500  0.87500  1.0000
  C   C193      1.0  0.27844  0.14859  0.04402  1.0000
  C   C194      1.0  0.47156  0.60141  0.04402  1.0000
  C   C195      1.0  0.47156  0.14859  0.70598  1.0000
  C   C196      1.0  0.27844  0.60141  0.70598  1.0000
  C   C197      1.0  0.27844  0.64859  0.54402  1.0000
  C   C198      1.0  0.47156  0.10141  0.54402  1.0000
  C   C199      1.0  0.47156  0.64859  0.20598  1.0000
  C   C200      1.0  0.27844  0.10141  0.20598  1.0000
  C   C201      1.0  0.77844  0.14859  0.54402  1.0000
  C   C202      1.0  0.97156  0.60141  0.54402  1.0000
  C   C203      1.0  0.97156  0.14859  0.20598  1.0000
  C   C204      1.0  0.77844  0.60141  0.20598  1.0000
  C   C205      1.0  0.77844  0.64859  0.04402  1.0000
  C   C206      1.0  0.97156  0.10141  0.04402  1.0000
  C   C207      1.0  0.97156  0.64859  0.70598  1.0000
  C   C208      1.0  0.77844  0.10141  0.70598  1.0000
  C   C209      1.0  0.72156  0.85141  0.95598  1.0000
  C   C210      1.0  0.52844  0.39859  0.95598  1.0000
  C   C211      1.0  0.52844  0.85141  0.29402  1.0000
  C   C212      1.0  0.72156  0.39859  0.29402  1.0000
  C   C213      1.0  0.72156  0.35141  0.45598  1.0000
  C   C214      1.0  0.52844  0.89859  0.45598  1.0000
  C   C215      1.0  0.52844  0.35141  0.79402  1.0000
  C   C216      1.0  0.72156  0.89859  0.79402  1.0000
  C   C217      1.0  0.22156  0.85141  0.45598  1.0000
  C   C218      1.0  0.02844  0.39859  0.45598  1.0000
  C   C219      1.0  0.02844  0.85141  0.79402  1.0000
  C   C220      1.0  0.22156  0.39859  0.79402  1.0000
  C   C221      1.0  0.22156  0.35141  0.95598  1.0000
  C   C222      1.0  0.02844  0.89859  0.95598  1.0000
  C   C223      1.0  0.02844  0.35141  0.29402  1.0000
  C   C224      1.0  0.22156  0.89859  0.29402  1.0000
  O   O193      1.0  0.33473  0.10731  0.05186  1.0000
  O   O194      1.0  0.41527  0.64269  0.05186  1.0000
  O   O195      1.0  0.41527  0.10731  0.69814  1.0000
  O   O196      1.0  0.33473  0.64269  0.69814  1.0000
  O   O197      1.0  0.33473  0.60731  0.55186  1.0000
  O   O198      1.0  0.41527  0.14269  0.55186  1.0000
  O   O199      1.0  0.41527  0.60731  0.19814  1.0000
  O   O200      1.0  0.33473  0.14269  0.19814  1.0000
  O   O201      1.0  0.83473  0.10731  0.55186  1.0000
  O   O202      1.0  0.91527  0.64269  0.55186  1.0000
  O   O203      1.0  0.91527  0.10731  0.19814  1.0000
  O   O204      1.0  0.83473  0.64269  0.19814  1.0000
  O   O205      1.0  0.83473  0.60731  0.05186  1.0000
  O   O206      1.0  0.91527  0.14269  0.05186  1.0000
  O   O207      1.0  0.91527  0.60731  0.69814  1.0000
  O   O208      1.0  0.83473  0.14269  0.69814  1.0000
  O   O209      1.0  0.66527  0.89269  0.94814  1.0000
  O   O210      1.0  0.58473  0.35731  0.94814  1.0000
  O   O211      1.0  0.58473  0.89269  0.30186  1.0000
  O   O212      1.0  0.66527  0.35731  0.30186  1.0000
  O   O213      1.0  0.66527  0.39269  0.44814  1.0000
  O   O214      1.0  0.58473  0.85731  0.44814  1.0000
  O   O215      1.0  0.58473  0.39269  0.80186  1.0000
  O   O216      1.0  0.66527  0.85731  0.80186  1.0000
  O   O217      1.0  0.16527  0.89269  0.44814  1.0000
  O   O218      1.0  0.08473  0.35731  0.44814  1.0000
  O   O219      1.0  0.08473  0.89269  0.80186  1.0000
  O   O220      1.0  0.16527  0.35731  0.80186  1.0000
  O   O221      1.0  0.16527  0.39269  0.94814  1.0000
  O   O222      1.0  0.08473  0.85731  0.94814  1.0000
  O   O223      1.0  0.08473  0.39269  0.30186  1.0000
  O   O224      1.0  0.16527  0.85731  0.30186  1.0000
  O   O225      1.0  0.23592  0.14372  0.01113  1.0000
  O   O226      1.0  0.51408  0.60628  0.01113  1.0000
  O   O227      1.0  0.51408  0.14372  0.73887  1.0000
  O   O228      1.0  0.23592  0.60628  0.73887  1.0000
  O   O229      1.0  0.23592  0.64372  0.51113  1.0000
  O   O230      1.0  0.51408  0.10628  0.51113  1.0000
  O   O231      1.0  0.51408  0.64372  0.23887  1.0000
  O   O232      1.0  0.23592  0.10628  0.23887  1.0000
  O   O233      1.0  0.73592  0.14372  0.51113  1.0000
  O   O234      1.0  0.01408  0.60628  0.51113  1.0000
  O   O235      1.0  0.01408  0.14372  0.23887  1.0000
  O   O236      1.0  0.73592  0.60628  0.23887  1.0000
  O   O237      1.0  0.73592  0.64372  0.01113  1.0000
  O   O238      1.0  0.01408  0.10628  0.01113  1.0000
  O   O239      1.0  0.01408  0.64372  0.73887  1.0000
  O   O240      1.0  0.73592  0.10628  0.73887  1.0000
  O   O241      1.0  0.76408  0.85628  0.98887  1.0000
  O   O242      1.0  0.48592  0.39372  0.98887  1.0000
  O   O243      1.0  0.48592  0.85628  0.26113  1.0000
  O   O244      1.0  0.76408  0.39372  0.26113  1.0000
  O   O245      1.0  0.76408  0.35628  0.48887  1.0000
  O   O246      1.0  0.48592  0.89372  0.48887  1.0000
  O   O247      1.0  0.48592  0.35628  0.76113  1.0000
  O   O248      1.0  0.76408  0.89372  0.76113  1.0000
  O   O249      1.0  0.26408  0.85628  0.48887  1.0000
  O   O250      1.0  0.98592  0.39372  0.48887  1.0000
  O   O251      1.0  0.98592  0.85628  0.76113  1.0000
  O   O252      1.0  0.26408  0.39372  0.76113  1.0000
  O   O253      1.0  0.26408  0.35628  0.98887  1.0000
  O   O254      1.0  0.98592  0.89372  0.98887  1.0000
  O   O255      1.0  0.98592  0.35628  0.26113  1.0000
  O   O256      1.0  0.26408  0.89372  0.26113  1.0000
