data_image0
_chemical_formula_structural       U4S4O4U4S4O4U4S4O4U4O40C4O4C4O4C4H4O4C4O4C4H4O4C4H4O4C4O4C4H4O4C4O4C4H4O4C4H4O4C4H4O4C4O4C4H4O4C4O4C8H4C4H4C8H4C4H4C12H4C4H4C8H4C4H4C12H4C4H4C8H4C4H4C12H4C4H4C8H4C4H4
_chemical_formula_sum              "U16 S12 O112 C168 H96"
_cell_length_a       12.0104
_cell_length_b       20.1349
_cell_length_c       28.2209
_cell_angle_alpha    90
_cell_angle_beta     91.468
_cell_angle_gamma    90

_space_group_name_H-M_alt    "P 1"
_space_group_IT_number       1

loop_
  _space_group_symop_operation_xyz
  'x, y, z'

loop_
  _atom_site_type_symbol
  _atom_site_label
  _atom_site_symmetry_multiplicity
  _atom_site_fract_x
  _atom_site_fract_y
  _atom_site_fract_z
  _atom_site_occupancy
  U   U1        1.0  0.46370  0.81404  0.42375  1.0000
  U   U2        1.0  0.53630  0.31404  0.07625  1.0000
  U   U3        1.0  0.53630  0.18596  0.57625  1.0000
  U   U4        1.0  0.46370  0.68596  0.92375  1.0000
  S   S1        1.0  0.24650  0.98149  0.14985  1.0000
  S   S2        1.0  0.75350  0.48149  0.35015  1.0000
  S   S3        1.0  0.75350  0.01851  0.85015  1.0000
  S   S4        1.0  0.24650  0.51851  0.64985  1.0000
  O   O1        1.0  0.41030  0.73270  0.42020  1.0000
  O   O2        1.0  0.58970  0.23270  0.07980  1.0000
  O   O3        1.0  0.58970  0.26730  0.57980  1.0000
  O   O4        1.0  0.41030  0.76730  0.92020  1.0000
  U   U5        1.0  0.41157  0.77883  0.55411  1.0000
  U   U6        1.0  0.58843  0.27883  0.94589  1.0000
  U   U7        1.0  0.58843  0.22117  0.44589  1.0000
  U   U8        1.0  0.41157  0.72117  0.05411  1.0000
  S   S5        1.0  0.06620  0.88930  0.80100  1.0000
  S   S6        1.0  0.93380  0.38930  0.69900  1.0000
  S   S7        1.0  0.93380  0.11070  0.19900  1.0000
  S   S8        1.0  0.06620  0.61070  0.30100  1.0000
  O   O5        1.0  0.51900  0.89510  0.42550  1.0000
  O   O6        1.0  0.48100  0.39510  0.07450  1.0000
  O   O7        1.0  0.48100  0.10490  0.57450  1.0000
  O   O8        1.0  0.51900  0.60490  0.92550  1.0000
  U   U9        1.0  0.65259  0.71310  0.65232  1.0000
  U   U10       1.0  0.34741  0.21310  0.84768  1.0000
  U   U11       1.0  0.34741  0.28690  0.34768  1.0000
  U   U12       1.0  0.65259  0.78690  0.15232  1.0000
  S   S9        1.0  0.87120  0.49041  0.90786  1.0000
  S   S10       1.0  0.12880  0.99041  0.59214  1.0000
  S   S11       1.0  0.12880  0.50959  0.09214  1.0000
  S   S12       1.0  0.87120  0.00959  0.40786  1.0000
  O   O9        1.0  0.38430  0.69760  0.53230  1.0000
  O   O10       1.0  0.61570  0.19760  0.96770  1.0000
  O   O11       1.0  0.61570  0.30240  0.46770  1.0000
  O   O12       1.0  0.38430  0.80240  0.03230  1.0000
  U   U13       1.0  0.70217  0.76362  0.52407  1.0000
  U   U14       1.0  0.29783  0.26362  0.97593  1.0000
  U   U15       1.0  0.29783  0.23638  0.47593  1.0000
  U   U16       1.0  0.70217  0.73638  0.02407  1.0000
  O   O13       1.0  0.42720  0.85950  0.57630  1.0000
  O   O14       1.0  0.57280  0.35950  0.92370  1.0000
  O   O15       1.0  0.57280  0.14050  0.42370  1.0000
  O   O16       1.0  0.42720  0.64050  0.07630  1.0000
  O   O17       1.0  0.71940  0.78860  0.66570  1.0000
  O   O18       1.0  0.28060  0.28860  0.83430  1.0000
  O   O19       1.0  0.28060  0.21140  0.33430  1.0000
  O   O20       1.0  0.71940  0.71140  0.16570  1.0000
  O   O21       1.0  0.58950  0.63540  0.64110  1.0000
  O   O22       1.0  0.41050  0.13540  0.85890  1.0000
  O   O23       1.0  0.41050  0.36460  0.35890  1.0000
  O   O24       1.0  0.58950  0.86460  0.14110  1.0000
  O   O25       1.0  0.67300  0.68360  0.50130  1.0000
  O   O26       1.0  0.32700  0.18360  0.99870  1.0000
  O   O27       1.0  0.32700  0.31640  0.49870  1.0000
  O   O28       1.0  0.67300  0.81640  0.00130  1.0000
  O   O29       1.0  0.74030  0.84360  0.54510  1.0000
  O   O30       1.0  0.25970  0.34360  0.95490  1.0000
  O   O31       1.0  0.25970  0.15640  0.45490  1.0000
  O   O32       1.0  0.74030  0.65640  0.04510  1.0000
  O   O33       1.0  0.53550  0.79650  0.49580  1.0000
  O   O34       1.0  0.46450  0.29650  0.00420  1.0000
  O   O35       1.0  0.46450  0.20350  0.50420  1.0000
  O   O36       1.0  0.53550  0.70350  0.99580  1.0000
  O   O37       1.0  0.92050  0.43020  0.89270  1.0000
  O   O38       1.0  0.07950  0.93020  0.60730  1.0000
  O   O39       1.0  0.07950  0.56980  0.10730  1.0000
  O   O40       1.0  0.92050  0.06980  0.39270  1.0000
  O   O41       1.0  0.77330  0.48920  0.93660  1.0000
  O   O42       1.0  0.22670  0.98920  0.56340  1.0000
  O   O43       1.0  0.22670  0.51080  0.06340  1.0000
  O   O44       1.0  0.77330  0.01080  0.43660  1.0000
  O   O45       1.0  0.58210  0.75100  0.58360  1.0000
  O   O46       1.0  0.41790  0.25100  0.91640  1.0000
  O   O47       1.0  0.41790  0.24900  0.41640  1.0000
  O   O48       1.0  0.58210  0.74900  0.08360  1.0000
  O   O49       1.0  0.31380  0.86120  0.37250  1.0000
  O   O50       1.0  0.68620  0.36120  0.12750  1.0000
  O   O51       1.0  0.68620  0.13880  0.62750  1.0000
  O   O52       1.0  0.31380  0.63880  0.87250  1.0000
  C   C1        1.0  0.37110  0.85210  0.33570  1.0000
  C   C2        1.0  0.62890  0.35210  0.16430  1.0000
  C   C3        1.0  0.62890  0.14790  0.66430  1.0000
  C   C4        1.0  0.37110  0.64790  0.83570  1.0000
  O   O53       1.0  0.45910  0.81930  0.33780  1.0000
  O   O54       1.0  0.54090  0.31930  0.16220  1.0000
  O   O55       1.0  0.54090  0.18070  0.66220  1.0000
  O   O56       1.0  0.45910  0.68070  0.83780  1.0000
  C   C5        1.0  0.33580  0.88340  0.28970  1.0000
  C   C6        1.0  0.66420  0.38340  0.21030  1.0000
  C   C7        1.0  0.66420  0.11660  0.71030  1.0000
  C   C8        1.0  0.33580  0.61660  0.78970  1.0000
  O   O57       1.0  0.79240  0.80360  0.09280  1.0000
  O   O58       1.0  0.20760  0.30360  0.40720  1.0000
  O   O59       1.0  0.20760  0.19640  0.90720  1.0000
  O   O60       1.0  0.79240  0.69640  0.59280  1.0000
  C   C9        1.0  0.23660  0.92010  0.28510  1.0000
  C   C10       1.0  0.76340  0.42010  0.21490  1.0000
  C   C11       1.0  0.76340  0.07990  0.71490  1.0000
  C   C12       1.0  0.23660  0.57990  0.78510  1.0000
  H   H1        1.0  0.18960  0.92390  0.31067  1.0000
  H   H2        1.0  0.81040  0.42390  0.18933  1.0000
  H   H3        1.0  0.81040  0.07610  0.68933  1.0000
  H   H4        1.0  0.18960  0.57610  0.81067  1.0000
  O   O61       1.0  0.20160  0.04600  0.15780  1.0000
  O   O62       1.0  0.79840  0.54600  0.34220  1.0000
  O   O63       1.0  0.79840  0.95400  0.84220  1.0000
  O   O64       1.0  0.20160  0.45400  0.65780  1.0000
  C   C13       1.0  0.27960  0.94340  0.20500  1.0000
  C   C14       1.0  0.72040  0.44340  0.29500  1.0000
  C   C15       1.0  0.72040  0.05660  0.79500  1.0000
  C   C16       1.0  0.27960  0.55660  0.70500  1.0000
  O   O65       1.0  0.89870  0.77250  0.03550  1.0000
  O   O66       1.0  0.10130  0.27250  0.46450  1.0000
  O   O67       1.0  0.10130  0.22750  0.96450  1.0000
  O   O68       1.0  0.89870  0.72750  0.53550  1.0000
  C   C17       1.0  0.20930  0.95030  0.24290  1.0000
  C   C18       1.0  0.79070  0.45030  0.25710  1.0000
  C   C19       1.0  0.79070  0.04970  0.75710  1.0000
  C   C20       1.0  0.20930  0.54970  0.74290  1.0000
  H   H5        1.0  0.14428  0.97511  0.23966  1.0000
  H   H6        1.0  0.85572  0.47511  0.26034  1.0000
  H   H7        1.0  0.85572  0.02489  0.76034  1.0000
  H   H8        1.0  0.14428  0.52489  0.73966  1.0000
  O   O69       1.0  0.34370  0.97460  0.12170  1.0000
  O   O70       1.0  0.65630  0.47460  0.37830  1.0000
  O   O71       1.0  0.65630  0.02540  0.87830  1.0000
  O   O72       1.0  0.34370  0.52540  0.62170  1.0000
  C   C21       1.0  0.37610  0.90680  0.20850  1.0000
  C   C22       1.0  0.62390  0.40680  0.29150  1.0000
  C   C23       1.0  0.62390  0.09320  0.79150  1.0000
  C   C24       1.0  0.37610  0.59320  0.70850  1.0000
  H   H9        1.0  0.42149  0.90168  0.18257  1.0000
  H   H10       1.0  0.57851  0.40168  0.31743  1.0000
  H   H11       1.0  0.57851  0.09832  0.81743  1.0000
  H   H12       1.0  0.42149  0.59832  0.68257  1.0000
  O   O73       1.0  0.48560  0.75590  0.68470  1.0000
  O   O74       1.0  0.51440  0.25590  0.81530  1.0000
  O   O75       1.0  0.51440  0.24410  0.31530  1.0000
  O   O76       1.0  0.48560  0.74410  0.18470  1.0000
  C   C25       1.0  0.88490  0.80540  0.07250  1.0000
  C   C26       1.0  0.11510  0.30540  0.42750  1.0000
  C   C27       1.0  0.11510  0.19460  0.92750  1.0000
  C   C28       1.0  0.88490  0.69460  0.57250  1.0000
  O   O77       1.0  0.35430  0.74410  0.62850  1.0000
  O   O78       1.0  0.64570  0.24410  0.87150  1.0000
  O   O79       1.0  0.64570  0.25590  0.37150  1.0000
  O   O80       1.0  0.35430  0.75590  0.12850  1.0000
  C   C29       1.0  0.40400  0.87770  0.25170  1.0000
  C   C30       1.0  0.59600  0.37770  0.24830  1.0000
  C   C31       1.0  0.59600  0.12230  0.74830  1.0000
  C   C32       1.0  0.40400  0.62230  0.75170  1.0000
  H   H13       1.0  0.47001  0.85380  0.25500  1.0000
  H   H14       1.0  0.52999  0.35380  0.24500  1.0000
  H   H15       1.0  0.52999  0.14620  0.74500  1.0000
  H   H16       1.0  0.47001  0.64620  0.75500  1.0000
  O   O81       1.0  0.13940  0.91860  0.84050  1.0000
  O   O82       1.0  0.86060  0.41860  0.65950  1.0000
  O   O83       1.0  0.86060  0.08140  0.15950  1.0000
  O   O84       1.0  0.13940  0.58140  0.34050  1.0000
  C   C33       1.0  0.97470  0.84940  0.09100  1.0000
  C   C34       1.0  0.02530  0.34940  0.40900  1.0000
  C   C35       1.0  0.02530  0.15060  0.90900  1.0000
  C   C36       1.0  0.97470  0.65060  0.59100  1.0000
  O   O85       1.0  0.00060  0.92650  0.77080  1.0000
  O   O86       1.0  0.99940  0.42650  0.72920  1.0000
  O   O87       1.0  0.99940  0.07350  0.22920  1.0000
  O   O88       1.0  0.00060  0.57350  0.27080  1.0000
  C   C37       1.0  0.94850  0.90410  0.11890  1.0000
  C   C38       1.0  0.05150  0.40410  0.38110  1.0000
  C   C39       1.0  0.05150  0.09590  0.88110  1.0000
  C   C40       1.0  0.94850  0.59590  0.61890  1.0000
  H   H17       1.0  0.87487  0.91286  0.12620  1.0000
  H   H18       1.0  0.12513  0.41286  0.37380  1.0000
  H   H19       1.0  0.12513  0.08714  0.87380  1.0000
  H   H20       1.0  0.87487  0.58714  0.62620  1.0000
  O   O89       1.0  0.32380  0.66060  0.98120  1.0000
  O   O90       1.0  0.67620  0.16060  0.51880  1.0000
  O   O91       1.0  0.67620  0.33940  0.01880  1.0000
  O   O92       1.0  0.32380  0.83940  0.48120  1.0000
  C   C41       1.0  0.08450  0.83590  0.08060  1.0000
  C   C42       1.0  0.91550  0.33590  0.41940  1.0000
  C   C43       1.0  0.91550  0.16410  0.91940  1.0000
  C   C44       1.0  0.08450  0.66410  0.58060  1.0000
  H   H21       1.0  0.10169  0.79956  0.06177  1.0000
  H   H22       1.0  0.89831  0.29956  0.43823  1.0000
  H   H23       1.0  0.89831  0.20044  0.93823  1.0000
  H   H24       1.0  0.10169  0.70044  0.56177  1.0000
  O   O93       1.0  0.21110  0.69260  0.03630  1.0000
  O   O94       1.0  0.78890  0.19260  0.46370  1.0000
  O   O95       1.0  0.78890  0.30740  0.96370  1.0000
  O   O96       1.0  0.21110  0.80740  0.53630  1.0000
  C   C45       1.0  0.16790  0.87640  0.09810  1.0000
  C   C46       1.0  0.83210  0.37640  0.40190  1.0000
  C   C47       1.0  0.83210  0.12360  0.90190  1.0000
  C   C48       1.0  0.16790  0.62360  0.59810  1.0000
  H   H25       1.0  0.24180  0.86727  0.09161  1.0000
  H   H26       1.0  0.75820  0.36727  0.40839  1.0000
  H   H27       1.0  0.75820  0.13273  0.90839  1.0000
  H   H28       1.0  0.24180  0.63273  0.59161  1.0000
  O   O97       1.0  0.63530  0.73080  0.89500  1.0000
  O   O98       1.0  0.36470  0.23080  0.60500  1.0000
  O   O99       1.0  0.36470  0.26920  0.10500  1.0000
  O   O100      1.0  0.63530  0.76920  0.39500  1.0000
  C   C49       1.0  0.14150  0.93060  0.12540  1.0000
  C   C50       1.0  0.85850  0.43060  0.37460  1.0000
  C   C51       1.0  0.85850  0.06940  0.87460  1.0000
  C   C52       1.0  0.14150  0.56940  0.62540  1.0000
  O   O101      1.0  0.76650  0.70740  0.94900  1.0000
  O   O102      1.0  0.23350  0.20740  0.55100  1.0000
  O   O103      1.0  0.23350  0.29260  0.05100  1.0000
  O   O104      1.0  0.76650  0.79260  0.44900  1.0000
  C   C53       1.0  0.03090  0.94430  0.13540  1.0000
  C   C54       1.0  0.96910  0.44430  0.36460  1.0000
  C   C55       1.0  0.96910  0.05570  0.86460  1.0000
  C   C56       1.0  0.03090  0.55570  0.63540  1.0000
  H   H29       1.0  0.01362  0.98138  0.15347  1.0000
  H   H30       1.0  0.98638  0.48138  0.34653  1.0000
  H   H31       1.0  0.98638  0.01862  0.84653  1.0000
  H   H32       1.0  0.01362  0.51862  0.65347  1.0000
  O   O105      1.0  0.65590  0.68680  0.73690  1.0000
  O   O106      1.0  0.34410  0.18680  0.76310  1.0000
  O   O107      1.0  0.34410  0.31320  0.26310  1.0000
  O   O108      1.0  0.65590  0.81320  0.23690  1.0000
  C   C57       1.0  0.38690  0.75870  0.67050  1.0000
  C   C58       1.0  0.61310  0.25870  0.82950  1.0000
  C   C59       1.0  0.61310  0.24130  0.32950  1.0000
  C   C60       1.0  0.38690  0.74130  0.17050  1.0000
  O   O109      1.0  0.79500  0.64700  0.69710  1.0000
  O   O110      1.0  0.20500  0.14700  0.80290  1.0000
  O   O111      1.0  0.20500  0.35300  0.30290  1.0000
  O   O112      1.0  0.79500  0.85300  0.19710  1.0000
  C   C61       1.0  0.30110  0.78480  0.70290  1.0000
  C   C62       1.0  0.69890  0.28480  0.79710  1.0000
  C   C63       1.0  0.69890  0.21520  0.29710  1.0000
  C   C64       1.0  0.30110  0.71520  0.20290  1.0000
  C   C65       1.0  0.32530  0.78780  0.75110  1.0000
  C   C66       1.0  0.67470  0.28780  0.74890  1.0000
  C   C67       1.0  0.67470  0.21220  0.24890  1.0000
  C   C68       1.0  0.32530  0.71220  0.25110  1.0000
  H   H33       1.0  0.39198  0.76998  0.76275  1.0000
  H   H34       1.0  0.60802  0.26998  0.73725  1.0000
  H   H35       1.0  0.60802  0.23002  0.23725  1.0000
  H   H36       1.0  0.39198  0.73002  0.26275  1.0000
  C   C69       1.0  0.25350  0.81640  0.78230  1.0000
  C   C70       1.0  0.74650  0.31640  0.71770  1.0000
  C   C71       1.0  0.74650  0.18360  0.21770  1.0000
  C   C72       1.0  0.25350  0.68360  0.28230  1.0000
  H   H37       1.0  0.27058  0.81862  0.81461  1.0000
  H   H38       1.0  0.72942  0.31862  0.68539  1.0000
  H   H39       1.0  0.72942  0.18138  0.18539  1.0000
  H   H40       1.0  0.27058  0.68138  0.31461  1.0000
  C   C73       1.0  0.15460  0.84180  0.76370  1.0000
  C   C74       1.0  0.84540  0.34180  0.73630  1.0000
  C   C75       1.0  0.84540  0.15820  0.23630  1.0000
  C   C76       1.0  0.15460  0.65820  0.26370  1.0000
  C   C77       1.0  0.12630  0.83710  0.71650  1.0000
  C   C78       1.0  0.87370  0.33710  0.78350  1.0000
  C   C79       1.0  0.87370  0.16290  0.28350  1.0000
  C   C80       1.0  0.12630  0.66290  0.21650  1.0000
  H   H41       1.0  0.05857  0.85387  0.70526  1.0000
  H   H42       1.0  0.94143  0.35387  0.79474  1.0000
  H   H43       1.0  0.94143  0.14613  0.29474  1.0000
  H   H44       1.0  0.05857  0.64613  0.20526  1.0000
  C   C81       1.0  0.19970  0.80690  0.68530  1.0000
  C   C82       1.0  0.80030  0.30690  0.81470  1.0000
  C   C83       1.0  0.80030  0.19310  0.31470  1.0000
  C   C84       1.0  0.19970  0.69310  0.18530  1.0000
  H   H45       1.0  0.18035  0.80197  0.65337  1.0000
  H   H46       1.0  0.81965  0.30197  0.84663  1.0000
  H   H47       1.0  0.81965  0.19803  0.34663  1.0000
  H   H48       1.0  0.18035  0.69803  0.15337  1.0000
  C   C85       1.0  0.73430  0.73100  0.91040  1.0000
  C   C86       1.0  0.26570  0.23100  0.58960  1.0000
  C   C87       1.0  0.26570  0.26900  0.08960  1.0000
  C   C88       1.0  0.73430  0.76900  0.41040  1.0000
  C   C89       1.0  0.82170  0.76290  0.88030  1.0000
  C   C90       1.0  0.17830  0.26290  0.61970  1.0000
  C   C91       1.0  0.17830  0.23710  0.11970  1.0000
  C   C92       1.0  0.82170  0.73710  0.38030  1.0000
  C   C93       1.0  0.92430  0.77760  0.90000  1.0000
  C   C94       1.0  0.07570  0.27760  0.60000  1.0000
  C   C95       1.0  0.07570  0.22240  0.10000  1.0000
  C   C96       1.0  0.92430  0.72240  0.40000  1.0000
  H   H49       1.0  0.94153  0.76417  0.93089  1.0000
  H   H50       1.0  0.05847  0.26417  0.56911  1.0000
  H   H51       1.0  0.05847  0.23583  0.06911  1.0000
  H   H52       1.0  0.94153  0.73583  0.43089  1.0000
  C   C97       1.0  0.00150  0.81170  0.87510  1.0000
  C   C98       1.0  0.99850  0.31170  0.62490  1.0000
  C   C99       1.0  0.99850  0.18830  0.12490  1.0000
  C   C100      1.0  0.00150  0.68830  0.37510  1.0000
  H   H53       1.0  0.07129  0.82080  0.88865  1.0000
  H   H54       1.0  0.92871  0.32080  0.61135  1.0000
  H   H55       1.0  0.92871  0.17920  0.11135  1.0000
  H   H56       1.0  0.07129  0.67920  0.38865  1.0000
  C   C101      1.0  0.97600  0.83220  0.83080  1.0000
  C   C102      1.0  0.02400  0.33220  0.66920  1.0000
  C   C103      1.0  0.02400  0.16780  0.16920  1.0000
  C   C104      1.0  0.97600  0.66780  0.33080  1.0000
  C   C105      1.0  0.87570  0.81560  0.80740  1.0000
  C   C106      1.0  0.12430  0.31560  0.69260  1.0000
  C   C107      1.0  0.12430  0.18440  0.19260  1.0000
  C   C108      1.0  0.87570  0.68440  0.30740  1.0000
  H   H57       1.0  0.86208  0.82701  0.77587  1.0000
  H   H58       1.0  0.13792  0.32701  0.72413  1.0000
  H   H59       1.0  0.13792  0.17299  0.22413  1.0000
  H   H60       1.0  0.86208  0.67299  0.27587  1.0000
  C   C109      1.0  0.79610  0.78060  0.83370  1.0000
  C   C110      1.0  0.20390  0.28060  0.66630  1.0000
  C   C111      1.0  0.20390  0.21940  0.16630  1.0000
  C   C112      1.0  0.79610  0.71940  0.33370  1.0000
  H   H61       1.0  0.72728  0.76967  0.81996  1.0000
  H   H62       1.0  0.27272  0.26967  0.68004  1.0000
  H   H63       1.0  0.27272  0.23033  0.18004  1.0000
  H   H64       1.0  0.72728  0.73033  0.31996  1.0000
  C   C113      1.0  0.74160  0.65140  0.73500  1.0000
  C   C114      1.0  0.25840  0.15140  0.76500  1.0000
  C   C115      1.0  0.25840  0.34860  0.26500  1.0000
  C   C116      1.0  0.74160  0.84860  0.23500  1.0000
  C   C117      1.0  0.77640  0.61090  0.77740  1.0000
  C   C118      1.0  0.22360  0.11090  0.72260  1.0000
  C   C119      1.0  0.22360  0.38910  0.22260  1.0000
  C   C120      1.0  0.77640  0.88910  0.27740  1.0000
  C   C121      1.0  0.71900  0.61790  0.81880  1.0000
  C   C122      1.0  0.28100  0.11790  0.68120  1.0000
  C   C123      1.0  0.28100  0.38210  0.18120  1.0000
  C   C124      1.0  0.71900  0.88210  0.31880  1.0000
  H   H65       1.0  0.65906  0.64711  0.81950  1.0000
  H   H66       1.0  0.34094  0.14711  0.68050  1.0000
  H   H67       1.0  0.34094  0.35289  0.18050  1.0000
  H   H68       1.0  0.65906  0.85289  0.31950  1.0000
  C   C125      1.0  0.74840  0.58270  0.85930  1.0000
  C   C126      1.0  0.25160  0.08270  0.64070  1.0000
  C   C127      1.0  0.25160  0.41730  0.14070  1.0000
  C   C128      1.0  0.74840  0.91730  0.35930  1.0000
  H   H69       1.0  0.71100  0.58908  0.88738  1.0000
  H   H70       1.0  0.28900  0.08908  0.61262  1.0000
  H   H71       1.0  0.28900  0.41092  0.11262  1.0000
  H   H72       1.0  0.71100  0.91092  0.38738  1.0000
  C   C129      1.0  0.83560  0.53740  0.85670  1.0000
  C   C130      1.0  0.16440  0.03740  0.64330  1.0000
  C   C131      1.0  0.16440  0.46260  0.14330  1.0000
  C   C132      1.0  0.83560  0.96260  0.35670  1.0000
  C   C133      1.0  0.89310  0.52920  0.81500  1.0000
  C   C134      1.0  0.10690  0.02920  0.68500  1.0000
  C   C135      1.0  0.10690  0.47080  0.18500  1.0000
  C   C136      1.0  0.89310  0.97080  0.31500  1.0000
  H   H73       1.0  0.95092  0.49853  0.81375  1.0000
  H   H74       1.0  0.04908  0.99853  0.68625  1.0000
  H   H75       1.0  0.04908  0.50147  0.18625  1.0000
  H   H76       1.0  0.95092  0.00147  0.31375  1.0000
  C   C137      1.0  0.86460  0.56640  0.77510  1.0000
  C   C138      1.0  0.13540  0.06640  0.72490  1.0000
  C   C139      1.0  0.13540  0.43360  0.22490  1.0000
  C   C140      1.0  0.86460  0.93360  0.27510  1.0000
  H   H77       1.0  0.90388  0.56173  0.74735  1.0000
  H   H78       1.0  0.09612  0.06173  0.75265  1.0000
  H   H79       1.0  0.09612  0.43827  0.25265  1.0000
  H   H80       1.0  0.90388  0.93827  0.24735  1.0000
  C   C141      1.0  0.22750  0.65900  0.00000  1.0000
  C   C142      1.0  0.77250  0.15900  0.50000  1.0000
  C   C143      1.0  0.77250  0.34100  0.00000  1.0000
  C   C144      1.0  0.22750  0.84100  0.50000  1.0000
  C   C145      1.0  0.13860  0.61760  0.97790  1.0000
  C   C146      1.0  0.86140  0.11760  0.52210  1.0000
  C   C147      1.0  0.86140  0.38240  0.02210  1.0000
  C   C148      1.0  0.13860  0.88240  0.47790  1.0000
  C   C149      1.0  0.02860  0.62450  0.99060  1.0000
  C   C150      1.0  0.97140  0.12450  0.50940  1.0000
  C   C151      1.0  0.97140  0.37550  0.00940  1.0000
  C   C152      1.0  0.02860  0.87550  0.49060  1.0000
  H   H81       1.0  0.01026  0.65572  0.01337  1.0000
  H   H82       1.0  0.98974  0.15572  0.48663  1.0000
  H   H83       1.0  0.98974  0.34428  0.98663  1.0000
  H   H84       1.0  0.01026  0.84428  0.51337  1.0000
  C   C153      1.0  0.94640  0.58600  0.97020  1.0000
  C   C154      1.0  0.05360  0.08600  0.52980  1.0000
  C   C155      1.0  0.05360  0.41400  0.02980  1.0000
  C   C156      1.0  0.94640  0.91400  0.47020  1.0000
  H   H85       1.0  0.87240  0.59145  0.97836  1.0000
  H   H86       1.0  0.12760  0.09145  0.52164  1.0000
  H   H87       1.0  0.12760  0.40855  0.02164  1.0000
  H   H88       1.0  0.87240  0.90855  0.47836  1.0000
  C   C157      1.0  0.97580  0.53950  0.93750  1.0000
  C   C158      1.0  0.02420  0.03950  0.56250  1.0000
  C   C159      1.0  0.02420  0.46050  0.06250  1.0000
  C   C160      1.0  0.97580  0.96050  0.43750  1.0000
  C   C161      1.0  0.08510  0.52920  0.92450  1.0000
  C   C162      1.0  0.91490  0.02920  0.57550  1.0000
  C   C163      1.0  0.91490  0.47080  0.07550  1.0000
  C   C164      1.0  0.08510  0.97080  0.42450  1.0000
  H   H89       1.0  0.10297  0.49719  0.90215  1.0000
  H   H90       1.0  0.89703  0.99719  0.59785  1.0000
  H   H91       1.0  0.89703  0.50281  0.09785  1.0000
  H   H92       1.0  0.10297  0.00281  0.40215  1.0000
  C   C165      1.0  0.16650  0.56850  0.94590  1.0000
  C   C166      1.0  0.83350  0.06850  0.55410  1.0000
  C   C167      1.0  0.83350  0.43150  0.05410  1.0000
  C   C168      1.0  0.16650  0.93150  0.44590  1.0000
  H   H93       1.0  0.24083  0.56181  0.93876  1.0000
  H   H94       1.0  0.75917  0.06181  0.56124  1.0000
  H   H95       1.0  0.75917  0.43819  0.06124  1.0000
  H   H96       1.0  0.24083  0.93819  0.43876  1.0000
