data_image0
_chemical_formula_structural       U8O14C4H2O2C6O2C2H2C2H2C10H2C4H2C2H2C2H2C2H2C2H2C2H2C2H2C6H2C2H2C2H2C2O6S6O20C2H2C2H2C4H2C2H2C4H2O10C4H2C2H2O2C6H2C2H2C2H2C2
_chemical_formula_sum              "U8 O56 C84 H48 S6"
_cell_length_a       10.2086
_cell_length_b       12.0001
_cell_length_c       28.0552
_cell_angle_alpha    92.453
_cell_angle_beta     100.048
_cell_angle_gamma    97.476

_space_group_name_H-M_alt    "P 1"
_space_group_IT_number       1

loop_
  _space_group_symop_operation_xyz
  'x, y, z'

loop_
  _atom_site_type_symbol
  _atom_site_label
  _atom_site_symmetry_multiplicity
  _atom_site_fract_x
  _atom_site_fract_y
  _atom_site_fract_z
  _atom_site_occupancy
  U   U1        1.0  0.38124  0.57313  0.10670  1.0000
  U   U2        1.0  0.61876  0.42687  0.89330  1.0000
  U   U3        1.0  0.49243  0.64703  0.98765  1.0000
  U   U4        1.0  0.50757  0.35297  0.01235  1.0000
  U   U5        1.0  0.38741  0.38475  0.37897  1.0000
  U   U6        1.0  0.61259  0.61525  0.62103  1.0000
  U   U7        1.0  0.48464  0.35397  0.51533  1.0000
  U   U8        1.0  0.51536  0.64603  0.48467  1.0000
  O   O1        1.0  0.85230  0.05160  0.09028  1.0000
  O   O2        1.0  0.14770  0.94840  0.90972  1.0000
  O   O3        1.0  0.53600  0.65830  0.13129  1.0000
  O   O4        1.0  0.46400  0.34170  0.86871  1.0000
  O   O5        1.0  0.97540  0.21510  0.05703  1.0000
  O   O6        1.0  0.02460  0.78490  0.94297  1.0000
  O   O7        1.0  0.46980  0.41240  0.14159  1.0000
  O   O8        1.0  0.53020  0.58760  0.85841  1.0000
  O   O9        1.0  0.64380  0.33370  0.50094  1.0000
  O   O10       1.0  0.35620  0.66630  0.49906  1.0000
  O   O11       1.0  0.86440  0.78280  0.33243  1.0000
  O   O12       1.0  0.13560  0.21720  0.66757  1.0000
  O   O13       1.0  0.42850  0.83780  0.00077  1.0000
  O   O14       1.0  0.57150  0.16220  0.99923  1.0000
  C   C1        1.0  0.47190  0.31560  0.12340  1.0000
  C   C2        1.0  0.52810  0.68440  0.87660  1.0000
  C   C3        1.0  0.59210  0.79670  0.25910  1.0000
  C   C4        1.0  0.40790  0.20330  0.74090  1.0000
  H   H1        1.0  0.60060  0.77560  0.22690  1.0000
  H   H2        1.0  0.39940  0.22440  0.77310  1.0000
  O   O15       1.0  0.99660  0.65520  0.38226  1.0000
  O   O16       1.0  0.00340  0.34480  0.61774  1.0000
  C   C5        1.0  0.06990  0.71660  0.30210  1.0000
  C   C6        1.0  0.93010  0.28340  0.69790  1.0000
  C   C7        1.0  0.51800  0.75170  0.33390  1.0000
  C   C8        1.0  0.48200  0.24830  0.66610  1.0000
  C   C9        1.0  0.35150  0.81170  0.02990  1.0000
  C   C10       1.0  0.64850  0.18830  0.97010  1.0000
  O   O17       1.0  0.54630  0.34020  0.37953  1.0000
  O   O18       1.0  0.45370  0.65980  0.62047  1.0000
  C   C11       1.0  0.28650  0.94230  0.44260  1.0000
  C   C12       1.0  0.71350  0.05770  0.55740  1.0000
  H   H3        1.0  0.35890  0.93320  0.46780  1.0000
  H   H4        1.0  0.64110  0.06680  0.53220  1.0000
  C   C13       1.0  0.05830  0.78370  0.26310  1.0000
  C   C14       1.0  0.94170  0.21630  0.73690  1.0000
  H   H5        1.0  0.00590  0.84370  0.26200  1.0000
  H   H6        1.0  0.99410  0.15630  0.73800  1.0000
  C   C15       1.0  0.25780  0.88860  0.04300  1.0000
  C   C16       1.0  0.74220  0.11140  0.95700  1.0000
  C   C17       1.0  0.19710  0.67000  0.22650  1.0000
  C   C18       1.0  0.80290  0.33000  0.77350  1.0000
  C   C19       1.0  0.26370  0.04950  0.42940  1.0000
  C   C20       1.0  0.73630  0.95050  0.57060  1.0000
  C   C21       1.0  0.52910  0.23090  0.15580  1.0000
  C   C22       1.0  0.47090  0.76910  0.84420  1.0000
  C   C23       1.0  0.15910  0.06500  0.39260  1.0000
  C   C24       1.0  0.84090  0.93500  0.60740  1.0000
  H   H7        1.0  0.14590  0.13880  0.38360  1.0000
  H   H8        1.0  0.85410  0.86120  0.61640  1.0000
  C   C25       1.0  0.09780  0.86550  0.38270  1.0000
  C   C26       1.0  0.90220  0.13450  0.61730  1.0000
  C   C27       1.0  0.11540  0.13790  0.23000  1.0000
  C   C28       1.0  0.88460  0.86210  0.77000  1.0000
  H   H9        1.0  0.10350  0.09480  0.25700  1.0000
  H   H10       1.0  0.89650  0.90520  0.74300  1.0000
  C   C29       1.0  0.22590  0.29930  0.19730  1.0000
  C   C30       1.0  0.77410  0.70070  0.80270  1.0000
  H   H11       1.0  0.28750  0.36710  0.20200  1.0000
  H   H12       1.0  0.71250  0.63290  0.79800  1.0000
  C   C31       1.0  0.56590  0.13620  0.13490  1.0000
  C   C32       1.0  0.43410  0.86380  0.86510  1.0000
  H   H13       1.0  0.54940  0.12330  0.10060  1.0000
  H   H14       1.0  0.45060  0.87670  0.89940  1.0000
  C   C33       1.0  0.27110  0.99770  0.03030  1.0000
  C   C34       1.0  0.72890  0.00230  0.96970  1.0000
  H   H15       1.0  0.34000  0.02430  0.01310  1.0000
  H   H16       1.0  0.66000  0.97570  0.98690  1.0000
  C   C35       1.0  0.55240  0.25180  0.20630  1.0000
  C   C36       1.0  0.44760  0.74820  0.79370  1.0000
  H   H17       1.0  0.52600  0.31660  0.22050  1.0000
  H   H18       1.0  0.47400  0.68340  0.77950  1.0000
  C   C37       1.0  0.18450  0.07000  0.04250  1.0000
  C   C38       1.0  0.81550  0.93000  0.95750  1.0000
  H   H19       1.0  0.19500  0.14640  0.03440  1.0000
  H   H20       1.0  0.80500  0.85360  0.96560  1.0000
  C   C39       1.0  0.61530  0.17530  0.23510  1.0000
  C   C40       1.0  0.38470  0.82470  0.76490  1.0000
  H   H21       1.0  0.63290  0.18760  0.26950  1.0000
  H   H22       1.0  0.36710  0.81240  0.73050  1.0000
  C   C41       1.0  0.06420  0.16560  0.14540  1.0000
  C   C42       1.0  0.93580  0.83440  0.85460  1.0000
  C   C43       1.0  0.65160  0.08200  0.21340  1.0000
  C   C44       1.0  0.34840  0.91800  0.78660  1.0000
  C   C45       1.0  0.53340  0.72020  0.28740  1.0000
  C   C46       1.0  0.46660  0.27980  0.71260  1.0000
  H   H23       1.0  0.50320  0.64480  0.27470  1.0000
  H   H24       1.0  0.49680  0.35520  0.72530  1.0000
  C   C47       1.0  0.14140  0.62680  0.30440  1.0000
  C   C48       1.0  0.85860  0.37320  0.69560  1.0000
  H   H25       1.0  0.14760  0.58230  0.33180  1.0000
  H   H26       1.0  0.85240  0.41770  0.66820  1.0000
  C   C49       1.0  0.20330  0.84950  0.41890  1.0000
  C   C50       1.0  0.79670  0.15050  0.58110  1.0000
  H   H27       1.0  0.21820  0.77560  0.42730  1.0000
  H   H28       1.0  0.78180  0.22440  0.57270  1.0000
  C   C51       1.0  0.08270  0.02900  0.06650  1.0000
  C   C52       1.0  0.91730  0.97100  0.93350  1.0000
  O   O19       1.0  0.35050  0.71510  0.04844  1.0000
  O   O20       1.0  0.64950  0.28490  0.95156  1.0000
  O   O21       1.0  0.44990  0.51640  0.04074  1.0000
  O   O22       1.0  0.55010  0.48360  0.95926  1.0000
  O   O23       1.0  0.44970  0.46850  0.45343  1.0000
  O   O24       1.0  0.55030  0.53150  0.54657  1.0000
  S   S1        1.0  0.97650  0.11842  0.08628  1.0000
  S   S2        1.0  0.02350  0.88158  0.91372  1.0000
  S   S3        1.0  0.99079  0.74774  0.35144  1.0000
  S   S4        1.0  0.00921  0.25226  0.64856  1.0000
  S   S5        1.0  0.74710  0.99300  0.24973  1.0000
  S   S6        1.0  0.25290  0.00700  0.75027  1.0000
  O   O25       1.0  0.33330  0.61210  0.94995  1.0000
  O   O26       1.0  0.66670  0.38790  0.05005  1.0000
  O   O27       1.0  0.33600  0.56230  0.18907  1.0000
  O   O28       1.0  0.66400  0.43770  0.81093  1.0000
  O   O29       1.0  0.25560  0.69820  0.14845  1.0000
  O   O30       1.0  0.74440  0.30180  0.85155  1.0000
  O   O31       1.0  0.42610  0.28380  0.07976  1.0000
  O   O32       1.0  0.57390  0.71620  0.92024  1.0000
  O   O33       1.0  0.65260  0.69490  0.02330  1.0000
  O   O34       1.0  0.34740  0.30510  0.97670  1.0000
  O   O35       1.0  0.27180  0.22270  0.32244  1.0000
  O   O36       1.0  0.72820  0.77730  0.67756  1.0000
  O   O37       1.0  0.22130  0.49200  0.08507  1.0000
  O   O38       1.0  0.77870  0.50800  0.91493  1.0000
  O   O39       1.0  0.35520  0.37370  0.29060  1.0000
  O   O40       1.0  0.64480  0.62630  0.70940  1.0000
  O   O41       1.0  0.22460  0.42360  0.37580  1.0000
  O   O42       1.0  0.77540  0.57640  0.62420  1.0000
  O   O43       1.0  0.46800  0.56330  0.35321  1.0000
  O   O44       1.0  0.53200  0.43670  0.64679  1.0000
  C   C53       1.0  0.20430  0.60280  0.26580  1.0000
  C   C54       1.0  0.79570  0.39720  0.73420  1.0000
  H   H29       1.0  0.25250  0.54010  0.26630  1.0000
  H   H30       1.0  0.74750  0.45990  0.73370  1.0000
  C   C55       1.0  0.06180  0.91630  0.07710  1.0000
  C   C56       1.0  0.93820  0.08370  0.92290  1.0000
  H   H31       1.0  0.98770  0.88780  0.09140  1.0000
  H   H32       1.0  0.01230  0.11220  0.90860  1.0000
  C   C57       1.0  0.26660  0.64310  0.18600  1.0000
  C   C58       1.0  0.73340  0.35690  0.81400  1.0000
  C   C59       1.0  0.07440  0.97230  0.36910  1.0000
  C   C60       1.0  0.92560  0.02770  0.63090  1.0000
  H   H33       1.0  0.00140  0.98120  0.34410  1.0000
  H   H34       1.0  0.99860  0.01880  0.65590  1.0000
  C   C61       1.0  0.15490  0.26300  0.15120  1.0000
  C   C62       1.0  0.84510  0.73700  0.84880  1.0000
  H   H35       1.0  0.16870  0.30470  0.12400  1.0000
  H   H36       1.0  0.83130  0.69530  0.87600  1.0000
  C   C63       1.0  0.20660  0.23630  0.23650  1.0000
  C   C64       1.0  0.79340  0.76370  0.76350  1.0000
  C   C65       1.0  0.15150  0.84770  0.06620  1.0000
  C   C66       1.0  0.84850  0.15230  0.93380  1.0000
  H   H37       1.0  0.14170  0.77140  0.07440  1.0000
  H   H38       1.0  0.85830  0.22860  0.92560  1.0000
  O   O45       1.0  0.80360  0.92170  0.21800  1.0000
  O   O46       1.0  0.19640  0.07830  0.78200  1.0000
  O   O47       1.0  0.41530  0.14450  0.49807  1.0000
  O   O48       1.0  0.58470  0.85550  0.50193  1.0000
  O   O49       1.0  0.44110  0.69870  0.40610  1.0000
  O   O50       1.0  0.55890  0.30130  0.59390  1.0000
  O   O51       1.0  0.32440  0.35920  0.53129  1.0000
  O   O52       1.0  0.67560  0.64080  0.46871  1.0000
  O   O53       1.0  0.35220  0.24580  0.43663  1.0000
  O   O54       1.0  0.64780  0.75420  0.56337  1.0000
  C   C67       1.0  0.35000  0.14990  0.45630  1.0000
  C   C68       1.0  0.65000  0.85010  0.54370  1.0000
  C   C69       1.0  0.12580  0.76050  0.22550  1.0000
  C   C70       1.0  0.87420  0.23950  0.77450  1.0000
  H   H39       1.0  0.12280  0.80730  0.19890  1.0000
  H   H40       1.0  0.87720  0.19270  0.80110  1.0000
  C   C71       1.0  0.04200  0.10280  0.18450  1.0000
  C   C72       1.0  0.95800  0.89720  0.81550  1.0000
  H   H41       1.0  0.97740  0.03690  0.18000  1.0000
  H   H42       1.0  0.02260  0.96310  0.82000  1.0000
  O   O55       1.0  0.83470  0.06440  0.28690  1.0000
  O   O56       1.0  0.16530  0.93560  0.71310  1.0000
  C   C73       1.0  0.28320  0.27810  0.28600  1.0000
  C   C74       1.0  0.71680  0.72190  0.71400  1.0000
  C   C75       1.0  0.47090  0.66380  0.36680  1.0000
  C   C76       1.0  0.52910  0.33620  0.63320  1.0000
  C   C77       1.0  0.61960  0.93940  0.32460  1.0000
  C   C78       1.0  0.38040  0.06060  0.67540  1.0000
  H   H43       1.0  0.64960  0.01490  0.33720  1.0000
  H   H44       1.0  0.35040  0.98510  0.66280  1.0000
  C   C79       1.0  0.62710  0.05980  0.16420  1.0000
  C   C80       1.0  0.37290  0.94020  0.83580  1.0000
  H   H45       1.0  0.65120  0.99360  0.15020  1.0000
  H   H46       1.0  0.34880  0.00640  0.84980  1.0000
  C   C81       1.0  0.55610  0.86230  0.35170  1.0000
  C   C82       1.0  0.44390  0.13770  0.64830  1.0000
  H   H47       1.0  0.53900  0.88590  0.38250  1.0000
  H   H48       1.0  0.46100  0.11410  0.61750  1.0000
  C   C83       1.0  0.63800  0.90470  0.27940  1.0000
  C   C84       1.0  0.36200  0.09530  0.72060  1.0000
