data_image0
_chemical_formula_structural       Mo2Cu6O2S6Br4N6C2H2C2H2C4H2C2H2C2H2C2H2C4H2C2H2C4H2C2H2C2H2C2H2
_chemical_formula_sum              "Mo2 Cu6 O2 S6 Br4 N6 C30 H24"
_cell_length_a       9.824
_cell_length_b       12.937
_cell_length_c       17.374
_cell_angle_alpha    97.81
_cell_angle_beta     101.39
_cell_angle_gamma    108.52

_space_group_name_H-M_alt    "P 1"
_space_group_IT_number       1

loop_
  _space_group_symop_operation_xyz
  'x, y, z'

loop_
  _atom_site_type_symbol
  _atom_site_label
  _atom_site_symmetry_multiplicity
  _atom_site_fract_x
  _atom_site_fract_y
  _atom_site_fract_z
  _atom_site_occupancy
  Mo  Mo1       1.0  0.25887  0.22028  0.19622  1.0000
  Mo  Mo2       1.0  0.74113  0.77972  0.80378  1.0000
  Cu  Cu1       1.0  0.03335  0.26534  0.23443  1.0000
  Cu  Cu2       1.0  0.96665  0.73466  0.76557  1.0000
  Cu  Cu3       1.0  0.41780  0.43376  0.21827  1.0000
  Cu  Cu4       1.0  0.58220  0.56624  0.78173  1.0000
  Cu  Cu5       1.0  0.37507  0.23458  0.35271  1.0000
  Cu  Cu6       1.0  0.62493  0.76542  0.64729  1.0000
  O   O1        1.0  0.23660  0.11880  0.11600  1.0000
  O   O2        1.0  0.76340  0.88120  0.88400  1.0000
  S   S1        1.0  0.13176  0.14230  0.28067  1.0000
  S   S2        1.0  0.86824  0.85770  0.71933  1.0000
  S   S3        1.0  0.17501  0.35520  0.15799  1.0000
  S   S4        1.0  0.82499  0.64480  0.84201  1.0000
  S   S5        1.0  0.49939  0.30492  0.26422  1.0000
  S   S6        1.0  0.50061  0.69508  0.73578  1.0000
  Br  Br1       1.0  0.57230  0.60785  0.22898  1.0000
  Br  Br2       1.0  0.42770  0.39215  0.77102  1.0000
  Br  Br3       1.0  0.49648  0.14059  0.43405  1.0000
  Br  Br4       1.0  0.50352  0.85941  0.56595  1.0000
  N   N1        1.0  0.83200  0.16960  0.14670  1.0000
  N   N2        1.0  0.16800  0.83040  0.85330  1.0000
  N   N3        1.0  0.65790  0.64690  0.56250  1.0000
  N   N4        1.0  0.34210  0.35310  0.43750  1.0000
  N   N5        1.0  0.95680  0.34990  0.31070  1.0000
  N   N6        1.0  0.04320  0.65010  0.68930  1.0000
  C   C1        1.0  0.83170  0.09740  0.08370  1.0000
  C   C2        1.0  0.16830  0.90260  0.91630  1.0000
  H   H1        1.0  0.92160  0.09140  0.07870  1.0000
  H   H2        1.0  0.07840  0.90860  0.92130  1.0000
  C   C3        1.0  0.70510  0.03180  0.02640  1.0000
  C   C4        1.0  0.29490  0.96820  0.97360  1.0000
  H   H3        1.0  0.71160  0.98320  0.98380  1.0000
  H   H4        1.0  0.28840  0.01680  0.01620  1.0000
  C   C5        1.0  0.56830  0.03590  0.03000  1.0000
  C   C6        1.0  0.43170  0.96410  0.97000  1.0000
  C   C7        1.0  0.57040  0.11040  0.09400  1.0000
  C   C8        1.0  0.42960  0.88960  0.90600  1.0000
  H   H5        1.0  0.48180  0.11770  0.10020  1.0000
  H   H6        1.0  0.51820  0.88230  0.89980  1.0000
  C   C9        1.0  0.70210  0.17580  0.15000  1.0000
  C   C10       1.0  0.29790  0.82420  0.85000  1.0000
  H   H7        1.0  0.69840  0.22670  0.19210  1.0000
  H   H8        1.0  0.30160  0.77330  0.80790  1.0000
  C   C11       1.0  0.69480  0.67860  0.49850  1.0000
  C   C12       1.0  0.30520  0.32140  0.50150  1.0000
  H   H9        1.0  0.68450  0.74440  0.48730  1.0000
  H   H10       1.0  0.31550  0.25560  0.51270  1.0000
  C   C13       1.0  0.74770  0.62040  0.44740  1.0000
  C   C14       1.0  0.25230  0.37960  0.55260  1.0000
  H   H11       1.0  0.77220  0.64750  0.40310  1.0000
  H   H12       1.0  0.22780  0.35250  0.59690  1.0000
  C   C15       1.0  0.76450  0.52410  0.46060  1.0000
  C   C16       1.0  0.23550  0.47590  0.53940  1.0000
  C   C17       1.0  0.72530  0.49190  0.52370  1.0000
  C   C18       1.0  0.27470  0.50810  0.47630  1.0000
  H   H13       1.0  0.73410  0.42600  0.53560  1.0000
  H   H14       1.0  0.26590  0.57400  0.46440  1.0000
  C   C19       1.0  0.67110  0.55330  0.57320  1.0000
  C   C20       1.0  0.32890  0.44670  0.42680  1.0000
  H   H15       1.0  0.64270  0.52560  0.61650  1.0000
  H   H16       1.0  0.35730  0.47440  0.38350  1.0000
  C   C21       1.0  0.83010  0.46270  0.40790  1.0000
  C   C22       1.0  0.16990  0.53730  0.59210  1.0000
  C   C23       1.0  0.84090  0.36160  0.41780  1.0000
  C   C24       1.0  0.15910  0.63840  0.58220  1.0000
  H   H17       1.0  0.80500  0.32760  0.45720  1.0000
  H   H18       1.0  0.19500  0.67240  0.54280  1.0000
  C   C25       1.0  0.87870  0.50310  0.34520  1.0000
  C   C26       1.0  0.12130  0.49690  0.65480  1.0000
  H   H19       1.0  0.86880  0.56890  0.33380  1.0000
  H   H20       1.0  0.13120  0.43110  0.66620  1.0000
  C   C27       1.0  0.94230  0.44580  0.29920  1.0000
  C   C28       1.0  0.05770  0.55420  0.70080  1.0000
  H   H21       1.0  0.97680  0.47580  0.25810  1.0000
  H   H22       1.0  0.02320  0.52420  0.74190  1.0000
  C   C29       1.0  0.90680  0.31120  0.36740  1.0000
  C   C30       1.0  0.09320  0.68880  0.63260  1.0000
  H   H23       1.0  0.91500  0.24370  0.37580  1.0000
  H   H24       1.0  0.08500  0.75630  0.62420  1.0000
