data_image0
_chemical_formula_structural       Cd2Br2O8C8H2C2
_chemical_formula_sum              "Cd2 Br2 O8 C10 H2"
_cell_length_a       7.5167
_cell_length_b       9.5952
_cell_length_c       10.7007
_cell_angle_alpha    72.981
_cell_angle_beta     80.959
_cell_angle_gamma    67.154

_space_group_name_H-M_alt    "P 1"
_space_group_IT_number       1

loop_
  _space_group_symop_operation_xyz
  'x, y, z'

loop_
  _atom_site_type_symbol
  _atom_site_label
  _atom_site_symmetry_multiplicity
  _atom_site_fract_x
  _atom_site_fract_y
  _atom_site_fract_z
  _atom_site_occupancy
  Cd  Cd1       1.0  0.24324  0.00540  0.89822  1.0000
  Cd  Cd2       1.0  0.75676  0.99460  0.10178  1.0000
  Br  Br1       1.0  0.25486  0.21571  0.69050  1.0000
  Br  Br2       1.0  0.74514  0.78429  0.30950  1.0000
  O   O1        1.0  0.09280  0.83600  0.02590  1.0000
  O   O2        1.0  0.90720  0.16400  0.97410  1.0000
  O   O3        1.0  0.13390  0.84000  0.81650  1.0000
  O   O4        1.0  0.86610  0.16000  0.18350  1.0000
  O   O5        1.0  0.70010  0.92220  0.93180  1.0000
  O   O6        1.0  0.29990  0.07780  0.06820  1.0000
  O   O7        1.0  0.51520  0.78810  0.93440  1.0000
  O   O8        1.0  0.48480  0.21190  0.06560  1.0000
  C   C1        1.0  0.08630  0.78400  0.93010  1.0000
  C   C2        1.0  0.91370  0.21600  0.06990  1.0000
  C   C3        1.0  0.03370  0.64040  0.96410  1.0000
  C   C4        1.0  0.96630  0.35960  0.03590  1.0000
  C   C5        1.0  0.84380  0.64390  0.97580  1.0000
  C   C6        1.0  0.15620  0.35610  0.02420  1.0000
  C   C7        1.0  0.18630  0.49760  0.98890  1.0000
  C   C8        1.0  0.81370  0.50240  0.01110  1.0000
  H   H1        1.0  0.31190  0.49620  0.98180  1.0000
  H   H2        1.0  0.68810  0.50380  0.01820  1.0000
  C   C9        1.0  0.67300  0.79620  0.94600  1.0000
  C   C10       1.0  0.32700  0.20380  0.05400  1.0000
