data_image0
_chemical_formula_structural       Mn4N64C16H16C8
_chemical_formula_sum              "Mn4 N64 C24 H16"
_cell_length_a       9.541
_cell_length_b       8.8198
_cell_length_c       22.949
_cell_angle_alpha    90
_cell_angle_beta     90
_cell_angle_gamma    90

_space_group_name_H-M_alt    "P 1"
_space_group_IT_number       1

loop_
  _space_group_symop_operation_xyz
  'x, y, z'

loop_
  _atom_site_type_symbol
  _atom_site_label
  _atom_site_symmetry_multiplicity
  _atom_site_fract_x
  _atom_site_fract_y
  _atom_site_fract_z
  _atom_site_occupancy
  Mn  Mn1       1.0  0.50000  0.05360  0.25000  1.0000
  Mn  Mn2       1.0  0.00000  0.44640  0.75000  1.0000
  Mn  Mn3       1.0  0.50000  0.94640  0.75000  1.0000
  Mn  Mn4       1.0  0.00000  0.55360  0.25000  1.0000
  N   N1        1.0  0.61566  0.07290  0.33657  1.0000
  N   N2        1.0  0.88434  0.42710  0.83657  1.0000
  N   N3        1.0  0.38434  0.07290  0.16343  1.0000
  N   N4        1.0  0.11566  0.42710  0.66343  1.0000
  N   N5        1.0  0.38434  0.92710  0.66343  1.0000
  N   N6        1.0  0.11566  0.57290  0.16343  1.0000
  N   N7        1.0  0.61566  0.92710  0.83657  1.0000
  N   N8        1.0  0.88434  0.57290  0.33657  1.0000
  N   N9        1.0  0.56991  0.03096  0.38999  1.0000
  N   N10       1.0  0.93009  0.46904  0.88999  1.0000
  N   N11       1.0  0.43009  0.03096  0.11001  1.0000
  N   N12       1.0  0.06991  0.46904  0.61001  1.0000
  N   N13       1.0  0.43009  0.96904  0.61001  1.0000
  N   N14       1.0  0.06991  0.53096  0.11001  1.0000
  N   N15       1.0  0.56991  0.96904  0.88999  1.0000
  N   N16       1.0  0.93009  0.53096  0.38999  1.0000
  N   N17       1.0  0.67027  0.05272  0.42794  1.0000
  N   N18       1.0  0.82973  0.44728  0.92794  1.0000
  N   N19       1.0  0.32973  0.05272  0.07206  1.0000
  N   N20       1.0  0.17027  0.44728  0.57206  1.0000
  N   N21       1.0  0.32973  0.94728  0.57206  1.0000
  N   N22       1.0  0.17027  0.55272  0.07206  1.0000
  N   N23       1.0  0.67027  0.94728  0.92794  1.0000
  N   N24       1.0  0.82973  0.55272  0.42794  1.0000
  N   N25       1.0  0.78406  0.11067  0.40097  1.0000
  N   N26       1.0  0.71594  0.38933  0.90097  1.0000
  N   N27       1.0  0.21594  0.11067  0.09903  1.0000
  N   N28       1.0  0.28406  0.38933  0.59903  1.0000
  N   N29       1.0  0.21594  0.88933  0.59903  1.0000
  N   N30       1.0  0.28406  0.61067  0.09903  1.0000
  N   N31       1.0  0.78406  0.88933  0.90097  1.0000
  N   N32       1.0  0.71594  0.61067  0.40097  1.0000
  N   N33       1.0  0.84084  0.37891  0.22255  1.0000
  N   N34       1.0  0.65916  0.12109  0.72255  1.0000
  N   N35       1.0  0.15916  0.37891  0.27745  1.0000
  N   N36       1.0  0.34084  0.12109  0.77745  1.0000
  N   N37       1.0  0.15916  0.62109  0.77745  1.0000
  N   N38       1.0  0.34084  0.87891  0.27745  1.0000
  N   N39       1.0  0.84084  0.62109  0.72255  1.0000
  N   N40       1.0  0.65916  0.87891  0.22255  1.0000
  N   N41       1.0  0.74908  0.42023  0.18026  1.0000
  N   N42       1.0  0.75092  0.07977  0.68026  1.0000
  N   N43       1.0  0.25092  0.42023  0.31974  1.0000
  N   N44       1.0  0.24908  0.07977  0.81974  1.0000
  N   N45       1.0  0.25092  0.57977  0.81974  1.0000
  N   N46       1.0  0.24908  0.92023  0.31974  1.0000
  N   N47       1.0  0.74908  0.57977  0.68026  1.0000
  N   N48       1.0  0.75092  0.92023  0.18026  1.0000
  N   N49       1.0  0.63918  0.33287  0.18309  1.0000
  N   N50       1.0  0.86082  0.16713  0.68309  1.0000
  N   N51       1.0  0.36082  0.33287  0.31691  1.0000
  N   N52       1.0  0.13918  0.16713  0.81691  1.0000
  N   N53       1.0  0.36082  0.66713  0.81691  1.0000
  N   N54       1.0  0.13918  0.83287  0.31691  1.0000
  N   N55       1.0  0.63918  0.66713  0.68309  1.0000
  N   N56       1.0  0.86082  0.83287  0.18309  1.0000
  N   N57       1.0  0.65523  0.23135  0.22677  1.0000
  N   N58       1.0  0.84477  0.26865  0.72677  1.0000
  N   N59       1.0  0.34477  0.23135  0.27323  1.0000
  N   N60       1.0  0.15523  0.26865  0.77323  1.0000
  N   N61       1.0  0.34477  0.76865  0.77323  1.0000
  N   N62       1.0  0.15523  0.73135  0.27323  1.0000
  N   N63       1.0  0.65523  0.76865  0.72677  1.0000
  N   N64       1.0  0.84477  0.73135  0.22677  1.0000
  C   C1        1.0  0.74725  0.12127  0.34490  1.0000
  C   C2        1.0  0.75275  0.37873  0.84490  1.0000
  C   C3        1.0  0.25275  0.12127  0.15510  1.0000
  C   C4        1.0  0.24725  0.37873  0.65510  1.0000
  C   C5        1.0  0.25275  0.87873  0.65510  1.0000
  C   C6        1.0  0.24725  0.62127  0.15510  1.0000
  C   C7        1.0  0.74725  0.87873  0.84490  1.0000
  C   C8        1.0  0.75275  0.62127  0.34490  1.0000
  C   C9        1.0  0.84637  0.17340  0.29842  1.0000
  C   C10       1.0  0.65363  0.32660  0.79842  1.0000
  C   C11       1.0  0.15363  0.17340  0.20158  1.0000
  C   C12       1.0  0.34637  0.32660  0.70158  1.0000
  C   C13       1.0  0.15363  0.82660  0.70158  1.0000
  C   C14       1.0  0.34637  0.67340  0.20158  1.0000
  C   C15       1.0  0.84637  0.82660  0.79842  1.0000
  C   C16       1.0  0.65363  0.67340  0.29842  1.0000
  H   H1        1.0  0.89320  0.08350  0.28150  1.0000
  H   H2        1.0  0.60680  0.41650  0.78150  1.0000
  H   H3        1.0  0.10680  0.08350  0.21850  1.0000
  H   H4        1.0  0.39320  0.41650  0.71850  1.0000
  H   H5        1.0  0.10680  0.91650  0.71850  1.0000
  H   H6        1.0  0.39320  0.58350  0.21850  1.0000
  H   H7        1.0  0.89320  0.91650  0.78150  1.0000
  H   H8        1.0  0.60680  0.58350  0.28150  1.0000
  H   H9        1.0  0.91970  0.23700  0.31670  1.0000
  H   H10       1.0  0.58030  0.26300  0.81670  1.0000
  H   H11       1.0  0.08030  0.23700  0.18330  1.0000
  H   H12       1.0  0.41970  0.26300  0.68330  1.0000
  H   H13       1.0  0.08030  0.76300  0.68330  1.0000
  H   H14       1.0  0.41970  0.73700  0.18330  1.0000
  H   H15       1.0  0.91970  0.76300  0.81670  1.0000
  H   H16       1.0  0.58030  0.73700  0.31670  1.0000
  C   C17       1.0  0.77990  0.26198  0.25005  1.0000
  C   C18       1.0  0.72010  0.23802  0.75005  1.0000
  C   C19       1.0  0.22010  0.26198  0.24995  1.0000
  C   C20       1.0  0.27990  0.23802  0.74995  1.0000
  C   C21       1.0  0.22010  0.73802  0.74995  1.0000
  C   C22       1.0  0.27990  0.76198  0.24995  1.0000
  C   C23       1.0  0.77990  0.73802  0.75005  1.0000
  C   C24       1.0  0.72010  0.76198  0.25005  1.0000
