data_image0
_chemical_formula_structural       Cu8O16C6H2C6H2C8O8C6H2C4O8C6H2C4O4H4
_chemical_formula_sum              "Cu8 O36 C40 H12"
_cell_length_a       10.575
_cell_length_b       11.66
_cell_length_c       15.767
_cell_angle_alpha    106.08
_cell_angle_beta     90.73
_cell_angle_gamma    94.05

_space_group_name_H-M_alt    "P 1"
_space_group_IT_number       1

loop_
  _space_group_symop_operation_xyz
  'x, y, z'

loop_
  _atom_site_type_symbol
  _atom_site_label
  _atom_site_symmetry_multiplicity
  _atom_site_fract_x
  _atom_site_fract_y
  _atom_site_fract_z
  _atom_site_occupancy
  Cu  Cu1       1.0  0.13781  0.49601  0.49972  1.0000
  Cu  Cu2       1.0  0.86219  0.50399  0.50028  1.0000
  Cu  Cu3       1.0  0.86124  0.47480  0.99825  1.0000
  Cu  Cu4       1.0  0.13876  0.52520  0.00175  1.0000
  Cu  Cu5       1.0  0.98683  0.35601  0.31431  1.0000
  Cu  Cu6       1.0  0.01317  0.64399  0.68569  1.0000
  Cu  Cu7       1.0  0.00736  0.64248  0.18503  1.0000
  Cu  Cu8       1.0  0.99264  0.35752  0.81497  1.0000
  O   O1        1.0  0.26980  0.51940  0.08500  1.0000
  O   O2        1.0  0.73020  0.48060  0.91500  1.0000
  O   O3        1.0  0.18400  0.60240  0.21590  1.0000
  O   O4        1.0  0.81600  0.39760  0.78410  1.0000
  O   O5        1.0  0.26450  0.51420  0.41630  1.0000
  O   O6        1.0  0.73550  0.48580  0.58370  1.0000
  O   O7        1.0  0.17320  0.38600  0.29280  1.0000
  O   O8        1.0  0.82680  0.61400  0.70720  1.0000
  O   O9        1.0  0.81040  0.39270  0.28120  1.0000
  O   O10       1.0  0.18960  0.60730  0.71880  1.0000
  O   O11       1.0  0.72420  0.46610  0.41290  1.0000
  O   O12       1.0  0.27580  0.53390  0.58710  1.0000
  O   O13       1.0  0.73200  0.47690  0.08540  1.0000
  O   O14       1.0  0.26800  0.52310  0.91460  1.0000
  O   O15       1.0  0.81830  0.60330  0.21110  1.0000
  O   O16       1.0  0.18170  0.39670  0.78890  1.0000
  C   C1        1.0  0.38220  0.51610  0.21170  1.0000
  C   C2        1.0  0.61780  0.48390  0.78830  1.0000
  C   C3        1.0  0.37890  0.47800  0.28820  1.0000
  C   C4        1.0  0.62110  0.52200  0.71180  1.0000
  C   C5        1.0  0.49230  0.45620  0.32530  1.0000
  C   C6        1.0  0.50770  0.54380  0.67470  1.0000
  H   H1        1.0  0.49010  0.43210  0.37670  1.0000
  H   H2        1.0  0.50990  0.56790  0.62330  1.0000
  C   C7        1.0  0.60870  0.46980  0.28720  1.0000
  C   C8        1.0  0.39130  0.53020  0.71280  1.0000
  C   C9        1.0  0.61180  0.50820  0.21060  1.0000
  C   C10       1.0  0.38820  0.49180  0.78940  1.0000
  C   C11       1.0  0.49870  0.52850  0.17350  1.0000
  C   C12       1.0  0.50130  0.47150  0.82650  1.0000
  H   H3        1.0  0.50070  0.55120  0.12140  1.0000
  H   H4        1.0  0.49930  0.44880  0.87860  1.0000
  C   C13       1.0  0.26690  0.54760  0.16770  1.0000
  C   C14       1.0  0.73310  0.45240  0.83230  1.0000
  C   C15       1.0  0.25870  0.45780  0.33480  1.0000
  C   C16       1.0  0.74130  0.54220  0.66520  1.0000
  C   C17       1.0  0.72590  0.44140  0.32990  1.0000
  C   C18       1.0  0.27410  0.55860  0.67010  1.0000
  C   C19       1.0  0.73370  0.53140  0.16700  1.0000
  C   C20       1.0  0.26630  0.46860  0.83300  1.0000
  O   O17       1.0  0.97150  0.21090  0.21740  1.0000
  O   O18       1.0  0.02850  0.78910  0.78260  1.0000
  O   O19       1.0  0.03960  0.31520  0.12600  1.0000
  O   O20       1.0  0.96040  0.68480  0.87400  1.0000
  O   O21       1.0  0.86450  0.26910  0.96900  1.0000
  O   O22       1.0  0.13550  0.73090  0.03100  1.0000
  O   O23       1.0  0.04950  0.25110  0.90320  1.0000
  O   O24       1.0  0.95050  0.74890  0.09680  1.0000
  C   C21       1.0  0.99530  0.10580  0.06740  1.0000
  C   C22       1.0  0.00470  0.89420  0.93260  1.0000
  C   C23       1.0  0.98580  0.10880  0.97890  1.0000
  C   C24       1.0  0.01420  0.89120  0.02110  1.0000
  C   C25       1.0  0.00900  0.99850  0.08730  1.0000
  C   C26       1.0  0.99100  0.00150  0.91270  1.0000
  H   H5        1.0  0.01490  0.99820  0.14620  1.0000
  H   H6        1.0  0.98510  0.00180  0.85380  1.0000
  C   C27       1.0  0.00250  0.22100  0.14060  1.0000
  C   C28       1.0  0.99750  0.77900  0.85940  1.0000
  C   C29       1.0  0.96500  0.21960  0.95120  1.0000
  C   C30       1.0  0.03500  0.78040  0.04880  1.0000
  O   O25       1.0  0.12800  0.29260  0.47630  1.0000
  O   O26       1.0  0.87200  0.70740  0.52370  1.0000
  O   O27       1.0  0.94140  0.24420  0.40420  1.0000
  O   O28       1.0  0.05860  0.75580  0.59580  1.0000
  O   O29       1.0  0.00230  0.78630  0.28070  1.0000
  O   O30       1.0  0.99770  0.21370  0.71930  1.0000
  O   O31       1.0  0.05300  0.69230  0.37980  1.0000
  O   O32       1.0  0.94700  0.30770  0.62020  1.0000
  C   C31       1.0  0.01170  0.11110  0.48030  1.0000
  C   C32       1.0  0.98830  0.88890  0.51970  1.0000
  C   C33       1.0  0.00780  0.89360  0.43210  1.0000
  C   C34       1.0  0.99220  0.10640  0.56790  1.0000
  C   C35       1.0  0.01780  0.00400  0.41460  1.0000
  C   C36       1.0  0.98220  0.99600  0.58540  1.0000
  H   H7        1.0  0.02890  0.00650  0.35670  1.0000
  H   H8        1.0  0.97110  0.99350  0.64330  1.0000
  C   C37       1.0  0.02940  0.22600  0.45380  1.0000
  C   C38       1.0  0.97060  0.77400  0.54620  1.0000
  C   C39       1.0  0.02220  0.78120  0.36070  1.0000
  C   C40       1.0  0.97780  0.21880  0.63930  1.0000
  O   O33       1.0  0.00330  0.50630  0.08270  1.0000
  O   O34       1.0  0.99670  0.49370  0.91730  1.0000
  O   O35       1.0  0.99680  0.49360  0.41640  1.0000
  O   O36       1.0  0.00320  0.50640  0.58360  1.0000
  H   H9        1.0  0.98990  0.47650  0.12900  1.0000
  H   H10       1.0  0.01010  0.52350  0.87100  1.0000
  H   H11       1.0  0.01310  0.53220  0.37500  1.0000
  H   H12       1.0  0.98690  0.46780  0.62500  1.0000
