data_image0
_chemical_formula_structural       Cd4C8H4C12H4C8H4C12H4C12H4C4H4C8H4C12H4C8H4C8H4C12H4C8H4C4H12C4H8C8H4C4H4C8H4C4H4C8H12C4H8C8H4C4H4C8H4C4H4C4H12C4H8C8H4C4H4C8H4C4H4C8H12C4H8C8H4C4H4C8H4C4H4C8H8C4H8C4H8C4H8C4H12C4H8C4H8C4H8C4H8C4H12C4H8C4H8C4H8C4H8C4H12C4H8C4H8C4H8C4H8C4H12O56C4O8
_chemical_formula_sum              "Cd4 C336 H368 O64"
_cell_length_a       23.617
_cell_length_b       16.814
_cell_length_c       26.617
_cell_angle_alpha    90
_cell_angle_beta     106.73
_cell_angle_gamma    90

_space_group_name_H-M_alt    "P 1"
_space_group_IT_number       1

loop_
  _space_group_symop_operation_xyz
  'x, y, z'

loop_
  _atom_site_type_symbol
  _atom_site_label
  _atom_site_symmetry_multiplicity
  _atom_site_fract_x
  _atom_site_fract_y
  _atom_site_fract_z
  _atom_site_occupancy
  Cd  Cd1       1.0  0.14504  0.20935  0.60720  1.0000
  Cd  Cd2       1.0  0.35496  0.70935  0.89280  1.0000
  Cd  Cd3       1.0  0.85496  0.79065  0.39280  1.0000
  Cd  Cd4       1.0  0.64504  0.29065  0.10720  1.0000
  C   C1        1.0  0.73760  0.03320  0.66630  1.0000
  C   C2        1.0  0.76240  0.53320  0.83370  1.0000
  C   C3        1.0  0.26240  0.96680  0.33370  1.0000
  C   C4        1.0  0.23760  0.46680  0.16630  1.0000
  C   C5        1.0  0.73910  0.03170  0.71750  1.0000
  C   C6        1.0  0.76090  0.53170  0.78250  1.0000
  C   C7        1.0  0.26090  0.96830  0.28250  1.0000
  C   C8        1.0  0.23910  0.46830  0.21750  1.0000
  H   H1        1.0  0.77510  0.02900  0.74350  1.0000
  H   H2        1.0  0.72490  0.52900  0.75650  1.0000
  H   H3        1.0  0.22490  0.97100  0.25650  1.0000
  H   H4        1.0  0.27510  0.47100  0.24350  1.0000
  C   C9        1.0  0.68660  0.03440  0.73100  1.0000
  C   C10       1.0  0.81340  0.53440  0.76900  1.0000
  C   C11       1.0  0.31340  0.96560  0.26900  1.0000
  C   C12       1.0  0.18660  0.46560  0.23100  1.0000
  C   C13       1.0  0.63310  0.03790  0.69280  1.0000
  C   C14       1.0  0.86690  0.53790  0.80720  1.0000
  C   C15       1.0  0.36690  0.96210  0.30720  1.0000
  C   C16       1.0  0.13310  0.46210  0.19280  1.0000
  C   C17       1.0  0.63430  0.03620  0.64130  1.0000
  C   C18       1.0  0.86570  0.53620  0.85870  1.0000
  C   C19       1.0  0.36570  0.96380  0.35870  1.0000
  C   C20       1.0  0.13430  0.46380  0.14130  1.0000
  H   H5        1.0  0.59820  0.03760  0.61540  1.0000
  H   H6        1.0  0.90180  0.53760  0.88460  1.0000
  H   H7        1.0  0.40180  0.96240  0.38460  1.0000
  H   H8        1.0  0.09820  0.46240  0.11540  1.0000
  C   C21       1.0  0.68400  0.03260  0.62540  1.0000
  C   C22       1.0  0.81600  0.53260  0.87460  1.0000
  C   C23       1.0  0.31600  0.96740  0.37460  1.0000
  C   C24       1.0  0.18400  0.46740  0.12540  1.0000
  C   C25       1.0  0.68450  0.02680  0.56870  1.0000
  C   C26       1.0  0.81550  0.52680  0.93130  1.0000
  C   C27       1.0  0.31550  0.97320  0.43130  1.0000
  C   C28       1.0  0.18450  0.47320  0.06870  1.0000
  H   H9        1.0  0.71230  0.98400  0.56770  1.0000
  H   H10       1.0  0.78770  0.48400  0.93230  1.0000
  H   H11       1.0  0.28770  0.01600  0.43230  1.0000
  H   H12       1.0  0.21230  0.51600  0.06770  1.0000
  C   C29       1.0  0.70830  0.10190  0.54780  1.0000
  C   C30       1.0  0.79170  0.60190  0.95220  1.0000
  C   C31       1.0  0.29170  0.89810  0.45220  1.0000
  C   C32       1.0  0.20830  0.39810  0.04780  1.0000
  C   C33       1.0  0.73640  0.09830  0.51010  1.0000
  C   C34       1.0  0.76360  0.59830  0.98990  1.0000
  C   C35       1.0  0.26360  0.90170  0.48990  1.0000
  C   C36       1.0  0.23640  0.40170  0.01010  1.0000
  C   C37       1.0  0.75790  0.16390  0.49120  1.0000
  C   C38       1.0  0.74210  0.66390  0.00880  1.0000
  C   C39       1.0  0.24210  0.83610  0.50880  1.0000
  C   C40       1.0  0.25790  0.33610  0.99120  1.0000
  H   H13       1.0  0.77600  0.15920  0.46460  1.0000
  H   H14       1.0  0.72400  0.65920  0.03540  1.0000
  H   H15       1.0  0.22400  0.84080  0.53540  1.0000
  H   H16       1.0  0.27600  0.34080  0.96460  1.0000
  C   C41       1.0  0.75210  0.23670  0.51250  1.0000
  C   C42       1.0  0.74790  0.73670  0.98750  1.0000
  C   C43       1.0  0.24790  0.76330  0.48750  1.0000
  C   C44       1.0  0.25210  0.26330  0.01250  1.0000
  C   C45       1.0  0.72320  0.24650  0.55060  1.0000
  C   C46       1.0  0.77680  0.74650  0.94940  1.0000
  C   C47       1.0  0.27680  0.75350  0.44940  1.0000
  C   C48       1.0  0.22320  0.25350  0.05060  1.0000
  C   C49       1.0  0.70140  0.17770  0.56760  1.0000
  C   C50       1.0  0.79860  0.67770  0.93240  1.0000
  C   C51       1.0  0.29860  0.82230  0.43240  1.0000
  C   C52       1.0  0.20140  0.32230  0.06760  1.0000
  H   H17       1.0  0.68150  0.18200  0.59300  1.0000
  H   H18       1.0  0.81850  0.68200  0.90700  1.0000
  H   H19       1.0  0.31850  0.81800  0.40700  1.0000
  H   H20       1.0  0.18150  0.31800  0.09300  1.0000
  C   C53       1.0  0.71350  0.32770  0.56990  1.0000
  C   C54       1.0  0.78650  0.82770  0.93010  1.0000
  C   C55       1.0  0.28650  0.67230  0.43010  1.0000
  C   C56       1.0  0.21350  0.17230  0.06990  1.0000
  H   H21       1.0  0.75000  0.35700  0.57220  1.0000
  H   H22       1.0  0.75000  0.85700  0.92780  1.0000
  H   H23       1.0  0.25000  0.64300  0.42780  1.0000
  H   H24       1.0  0.25000  0.14300  0.07220  1.0000
  C   C57       1.0  0.70790  0.32750  0.62500  1.0000
  C   C58       1.0  0.79210  0.82750  0.87500  1.0000
  C   C59       1.0  0.29210  0.67250  0.37500  1.0000
  C   C60       1.0  0.20790  0.17250  0.12500  1.0000
  C   C61       1.0  0.65450  0.33490  0.63540  1.0000
  C   C62       1.0  0.84550  0.83490  0.86460  1.0000
  C   C63       1.0  0.34550  0.66510  0.36460  1.0000
  C   C64       1.0  0.15450  0.16510  0.13540  1.0000
  H   H25       1.0  0.62050  0.33950  0.60730  1.0000
  H   H26       1.0  0.87950  0.83950  0.89270  1.0000
  H   H27       1.0  0.37950  0.66050  0.39270  1.0000
  H   H28       1.0  0.12050  0.16050  0.10730  1.0000
  C   C65       1.0  0.64820  0.33570  0.68660  1.0000
  C   C66       1.0  0.85180  0.83570  0.81340  1.0000
  C   C67       1.0  0.35180  0.66430  0.31340  1.0000
  C   C68       1.0  0.14820  0.16430  0.18660  1.0000
  C   C69       1.0  0.69920  0.32590  0.72720  1.0000
  C   C70       1.0  0.80080  0.82590  0.77280  1.0000
  C   C71       1.0  0.30080  0.67410  0.27280  1.0000
  C   C72       1.0  0.19920  0.17410  0.22720  1.0000
  C   C73       1.0  0.75420  0.31730  0.71930  1.0000
  C   C74       1.0  0.74580  0.81730  0.78070  1.0000
  C   C75       1.0  0.24580  0.68270  0.28070  1.0000
  C   C76       1.0  0.25420  0.18270  0.21930  1.0000
  H   H29       1.0  0.78790  0.31110  0.74750  1.0000
  H   H30       1.0  0.71210  0.81110  0.75250  1.0000
  H   H31       1.0  0.21210  0.68890  0.25250  1.0000
  H   H32       1.0  0.28790  0.18890  0.24750  1.0000
  C   C77       1.0  0.75810  0.31820  0.66880  1.0000
  C   C78       1.0  0.74190  0.81820  0.83120  1.0000
  C   C79       1.0  0.24190  0.68180  0.33120  1.0000
  C   C80       1.0  0.25810  0.18180  0.16880  1.0000
  C   C81       1.0  0.58970  0.34540  0.69970  1.0000
  C   C82       1.0  0.91030  0.84540  0.80030  1.0000
  C   C83       1.0  0.41030  0.65460  0.30030  1.0000
  C   C84       1.0  0.08970  0.15460  0.19970  1.0000
  H   H33       1.0  0.59740  0.38430  0.72830  1.0000
  H   H34       1.0  0.90260  0.88430  0.77170  1.0000
  H   H35       1.0  0.40260  0.61570  0.27170  1.0000
  H   H36       1.0  0.09740  0.11570  0.22830  1.0000
  C   C85       1.0  0.56990  0.27050  0.72130  1.0000
  C   C86       1.0  0.93010  0.77050  0.77870  1.0000
  C   C87       1.0  0.43010  0.72950  0.27870  1.0000
  C   C88       1.0  0.06990  0.22950  0.22130  1.0000
  C   C89       1.0  0.58210  0.19510  0.70780  1.0000
  C   C90       1.0  0.91790  0.69510  0.79220  1.0000
  C   C91       1.0  0.41790  0.80490  0.29220  1.0000
  C   C92       1.0  0.08210  0.30490  0.20780  1.0000
  H   H37       1.0  0.60380  0.19010  0.68390  1.0000
  H   H38       1.0  0.89620  0.69010  0.81610  1.0000
  H   H39       1.0  0.39620  0.80990  0.31610  1.0000
  H   H40       1.0  0.10380  0.30990  0.18390  1.0000
  C   C93       1.0  0.56420  0.12490  0.72750  1.0000
  C   C94       1.0  0.93580  0.62490  0.77250  1.0000
  C   C95       1.0  0.43580  0.87510  0.27250  1.0000
  C   C96       1.0  0.06420  0.37510  0.22750  1.0000
  C   C97       1.0  0.53200  0.13490  0.76260  1.0000
  C   C98       1.0  0.96800  0.63490  0.73740  1.0000
  C   C99       1.0  0.46800  0.86510  0.23740  1.0000
  C   C100      1.0  0.03200  0.36510  0.26260  1.0000
  C   C101      1.0  0.51790  0.20780  0.77660  1.0000
  C   C102      1.0  0.98210  0.70780  0.72340  1.0000
  C   C103      1.0  0.48210  0.79220  0.22340  1.0000
  C   C104      1.0  0.01790  0.29220  0.27660  1.0000
  H   H41       1.0  0.49550  0.21230  0.80010  1.0000
  H   H42       1.0  0.00450  0.71230  0.69990  1.0000
  H   H43       1.0  0.50450  0.78770  0.19990  1.0000
  H   H44       1.0  0.99550  0.28770  0.30010  1.0000
  C   C105      1.0  0.53640  0.27620  0.75640  1.0000
  C   C106      1.0  0.96360  0.77620  0.74360  1.0000
  C   C107      1.0  0.46360  0.72380  0.24360  1.0000
  C   C108      1.0  0.03640  0.22380  0.25640  1.0000
  C   C109      1.0  0.57650  0.04220  0.70940  1.0000
  C   C110      1.0  0.92350  0.54220  0.79060  1.0000
  C   C111      1.0  0.42350  0.95780  0.29060  1.0000
  C   C112      1.0  0.07650  0.45780  0.20940  1.0000
  H   H45       1.0  0.58280  0.00740  0.74010  1.0000
  H   H46       1.0  0.91720  0.50740  0.75990  1.0000
  H   H47       1.0  0.41720  0.99260  0.25990  1.0000
  H   H48       1.0  0.08280  0.49260  0.24010  1.0000
  C   C113      1.0  0.73920  0.03570  0.82290  1.0000
  C   C114      1.0  0.76080  0.53570  0.67710  1.0000
  C   C115      1.0  0.26080  0.96430  0.17710  1.0000
  C   C116      1.0  0.23920  0.46430  0.32290  1.0000
  H   H49       1.0  0.73110  0.03720  0.85620  1.0000
  H   H50       1.0  0.76890  0.53720  0.64380  1.0000
  H   H51       1.0  0.26890  0.96280  0.14380  1.0000
  H   H52       1.0  0.23110  0.46280  0.35620  1.0000
  H   H53       1.0  0.76190  0.08160  0.81940  1.0000
  H   H54       1.0  0.73810  0.58160  0.68060  1.0000
  H   H55       1.0  0.23810  0.91840  0.18060  1.0000
  H   H56       1.0  0.26190  0.41840  0.31940  1.0000
  H   H57       1.0  0.76120  0.98840  0.82070  1.0000
  H   H58       1.0  0.73880  0.48840  0.67930  1.0000
  H   H59       1.0  0.23880  0.01160  0.17930  1.0000
  H   H60       1.0  0.26120  0.51160  0.32070  1.0000
  C   C117      1.0  0.84180  0.03920  0.68680  1.0000
  C   C118      1.0  0.65820  0.53920  0.81320  1.0000
  C   C119      1.0  0.15820  0.96080  0.31320  1.0000
  C   C120      1.0  0.34180  0.46080  0.18680  1.0000
  H   H61       1.0  0.85310  0.98750  0.70280  1.0000
  H   H62       1.0  0.64690  0.48750  0.79720  1.0000
  H   H63       1.0  0.14690  0.01250  0.29720  1.0000
  H   H64       1.0  0.35310  0.51250  0.20280  1.0000
  H   H65       1.0  0.83870  0.07580  0.71400  1.0000
  H   H66       1.0  0.66130  0.57580  0.78600  1.0000
  H   H67       1.0  0.16130  0.92420  0.28600  1.0000
  H   H68       1.0  0.33870  0.42420  0.21400  1.0000
  C   C121      1.0  0.88810  0.06810  0.66260  1.0000
  C   C122      1.0  0.61190  0.56810  0.83740  1.0000
  C   C123      1.0  0.11190  0.93190  0.33740  1.0000
  C   C124      1.0  0.38810  0.43190  0.16260  1.0000
  C   C125      1.0  0.87630  0.11560  0.61960  1.0000
  C   C126      1.0  0.62370  0.61560  0.88040  1.0000
  C   C127      1.0  0.12370  0.88440  0.38040  1.0000
  C   C128      1.0  0.37630  0.38440  0.11960  1.0000
  H   H69       1.0  0.83700  0.12570  0.60140  1.0000
  H   H70       1.0  0.66300  0.62570  0.89860  1.0000
  H   H71       1.0  0.16300  0.87430  0.39860  1.0000
  H   H72       1.0  0.33700  0.37430  0.10140  1.0000
  C   C129      1.0  0.92110  0.15000  0.60130  1.0000
  C   C130      1.0  0.57890  0.65000  0.89870  1.0000
  C   C131      1.0  0.07890  0.85000  0.39870  1.0000
  C   C132      1.0  0.42110  0.35000  0.10130  1.0000
  H   H73       1.0  0.91180  0.18380  0.57250  1.0000
  H   H74       1.0  0.58820  0.68380  0.92750  1.0000
  H   H75       1.0  0.08820  0.81620  0.42750  1.0000
  H   H76       1.0  0.41180  0.31620  0.07250  1.0000
  C   C133      1.0  0.97800  0.13260  0.62700  1.0000
  C   C134      1.0  0.52200  0.63260  0.87300  1.0000
  C   C135      1.0  0.02200  0.86740  0.37300  1.0000
  C   C136      1.0  0.47800  0.36740  0.12700  1.0000
  C   C137      1.0  0.99080  0.08940  0.67080  1.0000
  C   C138      1.0  0.50920  0.58940  0.82920  1.0000
  C   C139      1.0  0.00920  0.91060  0.32920  1.0000
  C   C140      1.0  0.49080  0.41060  0.17080  1.0000
  H   H77       1.0  0.02990  0.08300  0.69060  1.0000
  H   H78       1.0  0.47010  0.58300  0.80940  1.0000
  H   H79       1.0  0.97010  0.91700  0.30940  1.0000
  H   H80       1.0  0.52990  0.41700  0.19060  1.0000
  C   C141      1.0  0.94520  0.05300  0.68750  1.0000
  C   C142      1.0  0.55480  0.55300  0.81250  1.0000
  C   C143      1.0  0.05480  0.94700  0.31250  1.0000
  C   C144      1.0  0.44520  0.44700  0.18750  1.0000
  H   H81       1.0  0.95480  0.01840  0.71600  1.0000
  H   H82       1.0  0.54520  0.51840  0.78400  1.0000
  H   H83       1.0  0.04520  0.98160  0.28400  1.0000
  H   H84       1.0  0.45480  0.48160  0.21600  1.0000
  C   C145      1.0  0.02690  0.17270  0.60870  1.0000
  C   C146      1.0  0.47310  0.67270  0.89130  1.0000
  C   C147      1.0  0.97310  0.82730  0.39130  1.0000
  C   C148      1.0  0.52690  0.32730  0.10870  1.0000
  C   C149      1.0  0.77470  0.01110  0.45510  1.0000
  C   C150      1.0  0.72530  0.51110  0.04490  1.0000
  C   C151      1.0  0.22530  0.98890  0.54490  1.0000
  C   C152      1.0  0.27470  0.48890  0.95510  1.0000
  H   H85       1.0  0.77470  0.95580  0.44600  1.0000
  H   H86       1.0  0.72530  0.45580  0.05400  1.0000
  H   H87       1.0  0.22530  0.04420  0.55400  1.0000
  H   H88       1.0  0.27470  0.54420  0.94600  1.0000
  H   H89       1.0  0.81460  0.02870  0.47050  1.0000
  H   H90       1.0  0.68540  0.52870  0.02950  1.0000
  H   H91       1.0  0.18540  0.97130  0.52950  1.0000
  H   H92       1.0  0.31460  0.47130  0.97050  1.0000
  H   H93       1.0  0.75690  0.04170  0.42410  1.0000
  H   H94       1.0  0.74310  0.54170  0.07590  1.0000
  H   H95       1.0  0.24310  0.95830  0.57590  1.0000
  H   H96       1.0  0.25690  0.45830  0.92410  1.0000
  C   C153      1.0  0.79860  0.30220  0.45580  1.0000
  C   C154      1.0  0.70140  0.80220  0.04420  1.0000
  C   C155      1.0  0.20140  0.69780  0.54420  1.0000
  C   C156      1.0  0.29860  0.19780  0.95580  1.0000
  H   H97       1.0  0.77180  0.27690  0.42550  1.0000
  H   H98       1.0  0.72820  0.77690  0.07450  1.0000
  H   H99       1.0  0.22820  0.72310  0.57450  1.0000
  H   H100      1.0  0.27180  0.22310  0.92550  1.0000
  H   H101      1.0  0.83430  0.27050  0.46690  1.0000
  H   H102      1.0  0.66570  0.77050  0.03310  1.0000
  H   H103      1.0  0.16570  0.72950  0.53310  1.0000
  H   H104      1.0  0.33430  0.22950  0.96690  1.0000
  C   C157      1.0  0.81340  0.38450  0.44170  1.0000
  C   C158      1.0  0.68660  0.88450  0.05830  1.0000
  C   C159      1.0  0.18660  0.61550  0.55830  1.0000
  C   C160      1.0  0.31340  0.11550  0.94170  1.0000
  C   C161      1.0  0.86260  0.40120  0.42910  1.0000
  C   C162      1.0  0.63740  0.90120  0.07090  1.0000
  C   C163      1.0  0.13740  0.59880  0.57090  1.0000
  C   C164      1.0  0.36260  0.09880  0.92910  1.0000
  H   H105      1.0  0.88860  0.35980  0.42860  1.0000
  H   H106      1.0  0.61140  0.85980  0.07140  1.0000
  H   H107      1.0  0.11140  0.64020  0.57140  1.0000
  H   H108      1.0  0.38860  0.14020  0.92860  1.0000
  C   C165      1.0  0.87700  0.47550  0.41690  1.0000
  C   C166      1.0  0.62300  0.97550  0.08310  1.0000
  C   C167      1.0  0.12300  0.52450  0.58310  1.0000
  C   C168      1.0  0.37700  0.02450  0.91690  1.0000
  H   H109      1.0  0.91260  0.48310  0.40920  1.0000
  H   H110      1.0  0.58740  0.98310  0.09080  1.0000
  H   H111      1.0  0.08740  0.51690  0.59080  1.0000
  H   H112      1.0  0.41260  0.01690  0.90920  1.0000
  C   C169      1.0  0.84200  0.53740  0.41570  1.0000
  C   C170      1.0  0.65800  0.03740  0.08430  1.0000
  C   C171      1.0  0.15800  0.46260  0.58430  1.0000
  C   C172      1.0  0.34200  0.96260  0.91570  1.0000
  C   C173      1.0  0.79200  0.52440  0.42970  1.0000
  C   C174      1.0  0.70800  0.02440  0.07030  1.0000
  C   C175      1.0  0.20800  0.47560  0.57030  1.0000
  C   C176      1.0  0.29200  0.97560  0.92970  1.0000
  H   H113      1.0  0.76660  0.56670  0.42960  1.0000
  H   H114      1.0  0.73340  0.06670  0.07040  1.0000
  H   H115      1.0  0.23340  0.43330  0.57040  1.0000
  H   H116      1.0  0.26660  0.93330  0.92960  1.0000
  C   C177      1.0  0.77770  0.44890  0.44410  1.0000
  C   C178      1.0  0.72230  0.94890  0.05590  1.0000
  C   C179      1.0  0.22230  0.55110  0.55590  1.0000
  C   C180      1.0  0.27770  0.05110  0.94410  1.0000
  H   H117      1.0  0.74420  0.44180  0.45540  1.0000
  H   H118      1.0  0.75580  0.94180  0.04460  1.0000
  H   H119      1.0  0.25580  0.55820  0.54460  1.0000
  H   H120      1.0  0.24420  0.05820  0.95540  1.0000
  C   C181      1.0  0.86340  0.30650  0.70060  1.0000
  C   C182      1.0  0.63660  0.80650  0.79940  1.0000
  C   C183      1.0  0.13660  0.69350  0.29940  1.0000
  C   C184      1.0  0.36340  0.19350  0.20060  1.0000
  H   H121      1.0  0.89690  0.30180  0.68720  1.0000
  H   H122      1.0  0.60310  0.80180  0.81280  1.0000
  H   H123      1.0  0.10310  0.69820  0.31280  1.0000
  H   H124      1.0  0.39690  0.19820  0.18720  1.0000
  H   H125      1.0  0.86130  0.26070  0.72150  1.0000
  H   H126      1.0  0.63870  0.76070  0.77850  1.0000
  H   H127      1.0  0.13870  0.73930  0.27850  1.0000
  H   H128      1.0  0.36130  0.23930  0.22150  1.0000
  H   H129      1.0  0.86740  0.35350  0.72180  1.0000
  H   H130      1.0  0.63260  0.85350  0.77820  1.0000
  H   H131      1.0  0.13260  0.64650  0.27820  1.0000
  H   H132      1.0  0.36740  0.14650  0.22180  1.0000
  C   C185      1.0  0.73170  0.28890  0.81730  1.0000
  C   C186      1.0  0.76830  0.78890  0.68270  1.0000
  C   C187      1.0  0.26830  0.71110  0.18270  1.0000
  C   C188      1.0  0.23170  0.21110  0.31730  1.0000
  H   H133      1.0  0.76960  0.31600  0.82660  1.0000
  H   H134      1.0  0.73040  0.81600  0.67340  1.0000
  H   H135      1.0  0.23040  0.68400  0.17340  1.0000
  H   H136      1.0  0.26960  0.18400  0.32660  1.0000
  H   H137      1.0  0.73760  0.23540  0.80610  1.0000
  H   H138      1.0  0.76240  0.73540  0.69390  1.0000
  H   H139      1.0  0.26240  0.76460  0.19390  1.0000
  H   H140      1.0  0.23760  0.26460  0.30610  1.0000
  C   C189      1.0  0.70910  0.28540  0.86330  1.0000
  C   C190      1.0  0.79090  0.78540  0.63670  1.0000
  C   C191      1.0  0.29090  0.71460  0.13670  1.0000
  C   C192      1.0  0.20910  0.21460  0.36330  1.0000
  C   C193      1.0  0.73290  0.32300  0.90460  1.0000
  C   C194      1.0  0.76710  0.82300  0.59540  1.0000
  C   C195      1.0  0.26710  0.67700  0.09540  1.0000
  C   C196      1.0  0.23290  0.17700  0.40460  1.0000
  H   H141      1.0  0.76710  0.35190  0.90670  1.0000
  H   H142      1.0  0.73290  0.85190  0.59330  1.0000
  H   H143      1.0  0.23290  0.64810  0.09330  1.0000
  H   H144      1.0  0.26710  0.14810  0.40670  1.0000
  C   C197      1.0  0.71010  0.32360  0.94790  1.0000
  C   C198      1.0  0.78990  0.82360  0.55210  1.0000
  C   C199      1.0  0.28990  0.67640  0.05210  1.0000
  C   C200      1.0  0.21010  0.17640  0.44790  1.0000
  H   H145      1.0  0.72940  0.35520  0.97630  1.0000
  H   H146      1.0  0.77060  0.85520  0.52370  1.0000
  H   H147      1.0  0.27060  0.64480  0.02370  1.0000
  H   H148      1.0  0.22940  0.14480  0.47630  1.0000
  C   C201      1.0  0.66560  0.28480  0.95150  1.0000
  C   C202      1.0  0.83440  0.78480  0.54850  1.0000
  C   C203      1.0  0.33440  0.71520  0.04850  1.0000
  C   C204      1.0  0.16560  0.21520  0.45150  1.0000
  C   C205      1.0  0.64650  0.22380  0.91250  1.0000
  C   C206      1.0  0.85350  0.72380  0.58750  1.0000
  C   C207      1.0  0.35350  0.77620  0.08750  1.0000
  C   C208      1.0  0.14650  0.27620  0.41250  1.0000
  H   H149      1.0  0.62110  0.18380  0.91680  1.0000
  H   H150      1.0  0.87890  0.68380  0.58320  1.0000
  H   H151      1.0  0.37890  0.81620  0.08320  1.0000
  H   H152      1.0  0.12110  0.31620  0.41680  1.0000
  C   C209      1.0  0.66750  0.22550  0.86590  1.0000
  C   C210      1.0  0.83250  0.72550  0.63410  1.0000
  C   C211      1.0  0.33250  0.77450  0.13410  1.0000
  C   C212      1.0  0.16750  0.27450  0.36590  1.0000
  H   H153      1.0  0.65420  0.18870  0.83900  1.0000
  H   H154      1.0  0.84580  0.68870  0.66100  1.0000
  H   H155      1.0  0.34580  0.81130  0.16100  1.0000
  H   H156      1.0  0.15420  0.31130  0.33900  1.0000
  C   C213      1.0  0.64280  0.28100  0.99680  1.0000
  C   C214      1.0  0.85720  0.78100  0.50320  1.0000
  C   C215      1.0  0.35720  0.71900  0.00320  1.0000
  C   C216      1.0  0.14280  0.21900  0.49680  1.0000
  C   C217      1.0  0.48360  0.35750  0.80010  1.0000
  C   C218      1.0  0.01640  0.85750  0.69990  1.0000
  C   C219      1.0  0.51640  0.64250  0.19990  1.0000
  C   C220      1.0  0.98360  0.14250  0.30010  1.0000
  H   H157      1.0  0.47780  0.41260  0.80660  1.0000
  H   H158      1.0  0.02220  0.91260  0.69340  1.0000
  H   H159      1.0  0.52220  0.58740  0.19340  1.0000
  H   H160      1.0  0.97780  0.08740  0.30660  1.0000
  H   H161      1.0  0.49930  0.33030  0.83290  1.0000
  H   H162      1.0  0.00070  0.83030  0.66710  1.0000
  H   H163      1.0  0.50070  0.66970  0.16710  1.0000
  H   H164      1.0  0.99930  0.16970  0.33290  1.0000
  H   H165      1.0  0.44640  0.33410  0.78140  1.0000
  H   H166      1.0  0.05360  0.83410  0.71860  1.0000
  H   H167      1.0  0.55360  0.66590  0.21860  1.0000
  H   H168      1.0  0.94640  0.16590  0.28140  1.0000
  C   C221      1.0  0.47550  0.06780  0.81290  1.0000
  C   C222      1.0  0.02450  0.56780  0.68710  1.0000
  C   C223      1.0  0.52450  0.93220  0.18710  1.0000
  C   C224      1.0  0.97550  0.43220  0.31290  1.0000
  H   H169      1.0  0.48870  0.10780  0.84000  1.0000
  H   H170      1.0  0.01130  0.60780  0.66000  1.0000
  H   H171      1.0  0.51130  0.89220  0.16000  1.0000
  H   H172      1.0  0.98870  0.39220  0.34000  1.0000
  H   H173      1.0  0.47530  0.01700  0.83010  1.0000
  H   H174      1.0  0.02470  0.51700  0.66990  1.0000
  H   H175      1.0  0.52470  0.98300  0.16990  1.0000
  H   H176      1.0  0.97530  0.48300  0.33010  1.0000
  C   C225      1.0  0.41510  0.08680  0.78150  1.0000
  C   C226      1.0  0.08490  0.58680  0.71850  1.0000
  C   C227      1.0  0.58490  0.91320  0.21850  1.0000
  C   C228      1.0  0.91510  0.41320  0.28150  1.0000
  C   C229      1.0  0.38250  0.14630  0.79480  1.0000
  C   C230      1.0  0.11750  0.64630  0.70520  1.0000
  C   C231      1.0  0.61750  0.85370  0.20520  1.0000
  C   C232      1.0  0.88250  0.35370  0.29480  1.0000
  H   H177      1.0  0.39910  0.17500  0.82540  1.0000
  H   H178      1.0  0.10090  0.67500  0.67460  1.0000
  H   H179      1.0  0.60090  0.82500  0.17460  1.0000
  H   H180      1.0  0.89910  0.32500  0.32540  1.0000
  C   C233      1.0  0.32490  0.16600  0.76400  1.0000
  C   C234      1.0  0.17510  0.66600  0.73600  1.0000
  C   C235      1.0  0.67510  0.83400  0.23600  1.0000
  C   C236      1.0  0.82490  0.33400  0.26400  1.0000
  H   H181      1.0  0.30360  0.20700  0.77350  1.0000
  H   H182      1.0  0.19640  0.70700  0.72650  1.0000
  H   H183      1.0  0.69640  0.79300  0.22650  1.0000
  H   H184      1.0  0.80360  0.29300  0.27350  1.0000
  C   C237      1.0  0.30110  0.12080  0.71840  1.0000
  C   C238      1.0  0.19890  0.62080  0.78160  1.0000
  C   C239      1.0  0.69890  0.87920  0.28160  1.0000
  C   C240      1.0  0.80110  0.37920  0.21840  1.0000
  C   C241      1.0  0.33190  0.06210  0.70690  1.0000
  C   C242      1.0  0.16810  0.56210  0.79310  1.0000
  C   C243      1.0  0.66810  0.93790  0.29310  1.0000
  C   C244      1.0  0.83190  0.43790  0.20690  1.0000
  H   H185      1.0  0.31520  0.03080  0.67750  1.0000
  H   H186      1.0  0.18480  0.53080  0.82250  1.0000
  H   H187      1.0  0.68480  0.96920  0.32250  1.0000
  H   H188      1.0  0.81520  0.46920  0.17750  1.0000
  C   C245      1.0  0.38860  0.04630  0.73760  1.0000
  C   C246      1.0  0.11140  0.54630  0.76240  1.0000
  C   C247      1.0  0.61140  0.95370  0.26240  1.0000
  C   C248      1.0  0.88860  0.45370  0.23760  1.0000
  H   H189      1.0  0.40950  0.00550  0.72740  1.0000
  H   H190      1.0  0.09050  0.50550  0.77260  1.0000
  H   H191      1.0  0.59050  0.99450  0.27260  1.0000
  H   H192      1.0  0.90950  0.49450  0.22740  1.0000
  C   C249      1.0  0.24400  0.15110  0.68550  1.0000
  C   C250      1.0  0.25600  0.65110  0.81450  1.0000
  C   C251      1.0  0.75600  0.84890  0.31450  1.0000
  C   C252      1.0  0.74400  0.34890  0.18550  1.0000
  C   C253      1.0  0.62550  0.00220  0.53020  1.0000
  C   C254      1.0  0.87450  0.50220  0.96980  1.0000
  C   C255      1.0  0.37450  0.99780  0.46980  1.0000
  C   C256      1.0  0.12550  0.49780  0.03020  1.0000
  H   H193      1.0  0.59480  0.03730  0.53490  1.0000
  H   H194      1.0  0.90520  0.53730  0.96510  1.0000
  H   H195      1.0  0.40520  0.96270  0.46510  1.0000
  H   H196      1.0  0.09480  0.46270  0.03490  1.0000
  H   H197      1.0  0.62800  0.00990  0.49470  1.0000
  H   H198      1.0  0.87200  0.50990  0.00530  1.0000
  H   H199      1.0  0.37200  0.99010  0.50530  1.0000
  H   H200      1.0  0.12800  0.49010  0.99470  1.0000
  C   C257      1.0  0.60710  0.91730  0.53550  1.0000
  C   C258      1.0  0.89290  0.41730  0.96450  1.0000
  C   C259      1.0  0.39290  0.08270  0.46450  1.0000
  C   C260      1.0  0.10710  0.58270  0.03550  1.0000
  H   H201      1.0  0.63680  0.88230  0.52880  1.0000
  H   H202      1.0  0.86320  0.38230  0.97120  1.0000
  H   H203      1.0  0.36320  0.11770  0.47120  1.0000
  H   H204      1.0  0.13680  0.61770  0.02880  1.0000
  H   H205      1.0  0.60720  0.90890  0.57160  1.0000
  H   H206      1.0  0.89280  0.40890  0.92840  1.0000
  H   H207      1.0  0.39280  0.09110  0.42840  1.0000
  H   H208      1.0  0.10720  0.59110  0.07160  1.0000
  C   C261      1.0  0.54950  0.89340  0.50140  1.0000
  C   C262      1.0  0.95050  0.39340  0.99860  1.0000
  C   C263      1.0  0.45050  0.10660  0.49860  1.0000
  C   C264      1.0  0.04950  0.60660  0.00140  1.0000
  H   H209      1.0  0.54750  0.90810  0.46570  1.0000
  H   H210      1.0  0.95250  0.40810  0.03430  1.0000
  H   H211      1.0  0.45250  0.09190  0.53430  1.0000
  H   H212      1.0  0.04750  0.59190  0.96570  1.0000
  H   H213      1.0  0.51930  0.92340  0.51130  1.0000
  H   H214      1.0  0.98070  0.42340  0.98870  1.0000
  H   H215      1.0  0.48070  0.07660  0.48870  1.0000
  H   H216      1.0  0.01930  0.57660  0.01130  1.0000
  C   C265      1.0  0.53530  0.80720  0.50230  1.0000
  C   C266      1.0  0.96470  0.30720  0.99770  1.0000
  C   C267      1.0  0.46470  0.19280  0.49770  1.0000
  C   C268      1.0  0.03530  0.69280  0.00230  1.0000
  H   H217      1.0  0.53730  0.79210  0.53790  1.0000
  H   H218      1.0  0.96270  0.29210  0.96210  1.0000
  H   H219      1.0  0.46270  0.20790  0.46210  1.0000
  H   H220      1.0  0.03730  0.70790  0.03790  1.0000
  H   H221      1.0  0.56510  0.77690  0.49200  1.0000
  H   H222      1.0  0.93490  0.27690  0.00800  1.0000
  H   H223      1.0  0.43490  0.22310  0.50800  1.0000
  H   H224      1.0  0.06510  0.72310  0.99200  1.0000
  C   C269      1.0  0.47430  0.78510  0.46610  1.0000
  C   C270      1.0  0.02570  0.28510  0.03390  1.0000
  C   C271      1.0  0.52570  0.21490  0.53390  1.0000
  C   C272      1.0  0.97430  0.71490  0.96610  1.0000
  H   H225      1.0  0.46750  0.72930  0.46930  1.0000
  H   H226      1.0  0.03250  0.22930  0.03070  1.0000
  H   H227      1.0  0.53250  0.27070  0.53070  1.0000
  H   H228      1.0  0.96750  0.77070  0.96930  1.0000
  H   H229      1.0  0.47260  0.79710  0.43050  1.0000
  H   H230      1.0  0.02740  0.29710  0.06950  1.0000
  H   H231      1.0  0.52740  0.20290  0.56950  1.0000
  H   H232      1.0  0.97260  0.70290  0.93050  1.0000
  H   H233      1.0  0.44450  0.81500  0.47590  1.0000
  H   H234      1.0  0.05550  0.31500  0.02410  1.0000
  H   H235      1.0  0.55550  0.18500  0.52410  1.0000
  H   H236      1.0  0.94450  0.68500  0.97590  1.0000
  C   C273      1.0  0.66550  0.37280  0.53000  1.0000
  C   C274      1.0  0.83450  0.87280  0.97000  1.0000
  C   C275      1.0  0.33450  0.62720  0.47000  1.0000
  C   C276      1.0  0.16550  0.12720  0.03000  1.0000
  H   H237      1.0  0.62720  0.35230  0.53040  1.0000
  H   H238      1.0  0.87280  0.85230  0.96960  1.0000
  H   H239      1.0  0.37280  0.64770  0.46960  1.0000
  H   H240      1.0  0.12720  0.14770  0.03040  1.0000
  H   H241      1.0  0.66960  0.36340  0.49520  1.0000
  H   H242      1.0  0.83040  0.86340  0.00480  1.0000
  H   H243      1.0  0.33040  0.63660  0.50480  1.0000
  H   H244      1.0  0.16960  0.13660  0.99520  1.0000
  C   C277      1.0  0.66730  0.46250  0.54030  1.0000
  C   C278      1.0  0.83270  0.96250  0.95970  1.0000
  C   C279      1.0  0.33270  0.53750  0.45970  1.0000
  C   C280      1.0  0.16730  0.03750  0.04030  1.0000
  H   H245      1.0  0.65660  0.47260  0.57220  1.0000
  H   H246      1.0  0.84340  0.97260  0.92780  1.0000
  H   H247      1.0  0.34340  0.52740  0.42780  1.0000
  H   H248      1.0  0.15660  0.02740  0.07220  1.0000
  H   H249      1.0  0.70740  0.48150  0.54550  1.0000
  H   H250      1.0  0.79260  0.98150  0.95450  1.0000
  H   H251      1.0  0.29260  0.51850  0.45450  1.0000
  H   H252      1.0  0.20740  0.01850  0.04550  1.0000
  C   C281      1.0  0.62640  0.50820  0.49610  1.0000
  C   C282      1.0  0.87360  0.00820  0.00390  1.0000
  C   C283      1.0  0.37360  0.49180  0.50390  1.0000
  C   C284      1.0  0.12640  0.99180  0.99610  1.0000
  H   H253      1.0  0.64120  0.50100  0.46600  1.0000
  H   H254      1.0  0.85880  0.00100  0.03400  1.0000
  H   H255      1.0  0.35880  0.49900  0.53400  1.0000
  H   H256      1.0  0.14120  0.99900  0.96600  1.0000
  H   H257      1.0  0.58860  0.48100  0.48780  1.0000
  H   H258      1.0  0.91140  0.98100  0.01220  1.0000
  H   H259      1.0  0.41140  0.51900  0.51220  1.0000
  H   H260      1.0  0.08860  0.01900  0.98780  1.0000
  C   C285      1.0  0.61310  0.59450  0.49790  1.0000
  C   C286      1.0  0.88690  0.09450  0.00210  1.0000
  C   C287      1.0  0.38690  0.40550  0.50210  1.0000
  C   C288      1.0  0.11310  0.90550  0.99790  1.0000
  H   H261      1.0  0.58690  0.61250  0.46460  1.0000
  H   H262      1.0  0.91310  0.11250  0.03540  1.0000
  H   H263      1.0  0.41310  0.38750  0.53540  1.0000
  H   H264      1.0  0.08690  0.88750  0.96460  1.0000
  H   H265      1.0  0.59490  0.60590  0.52550  1.0000
  H   H266      1.0  0.90510  0.10590  0.97450  1.0000
  H   H267      1.0  0.40510  0.39410  0.47450  1.0000
  H   H268      1.0  0.09490  0.89410  0.02550  1.0000
  C   C289      1.0  0.67060  0.63180  0.50860  1.0000
  C   C290      1.0  0.82940  0.13180  0.99140  1.0000
  C   C291      1.0  0.32940  0.36820  0.49140  1.0000
  C   C292      1.0  0.17060  0.86820  0.00860  1.0000
  H   H269      1.0  0.66620  0.68860  0.50920  1.0000
  H   H270      1.0  0.83380  0.18860  0.99080  1.0000
  H   H271      1.0  0.33380  0.31140  0.49080  1.0000
  H   H272      1.0  0.16620  0.81140  0.00920  1.0000
  H   H273      1.0  0.68850  0.61750  0.48180  1.0000
  H   H274      1.0  0.81150  0.11750  0.01820  1.0000
  H   H275      1.0  0.31150  0.38250  0.51820  1.0000
  H   H276      1.0  0.18850  0.88250  0.98180  1.0000
  H   H277      1.0  0.69530  0.61420  0.54210  1.0000
  H   H278      1.0  0.80470  0.11420  0.95790  1.0000
  H   H279      1.0  0.30470  0.38580  0.45790  1.0000
  H   H280      1.0  0.19530  0.88580  0.04210  1.0000
  C   C293      1.0  0.53980  0.38060  0.65540  1.0000
  C   C294      1.0  0.96020  0.88060  0.84460  1.0000
  C   C295      1.0  0.46020  0.61940  0.34460  1.0000
  C   C296      1.0  0.03980  0.11940  0.15540  1.0000
  H   H281      1.0  0.53070  0.34250  0.62680  1.0000
  H   H282      1.0  0.96930  0.84250  0.87320  1.0000
  H   H283      1.0  0.46930  0.65750  0.37320  1.0000
  H   H284      1.0  0.03070  0.15750  0.12680  1.0000
  H   H285      1.0  0.50510  0.38420  0.66790  1.0000
  H   H286      1.0  0.99490  0.88420  0.83210  1.0000
  H   H287      1.0  0.49490  0.61580  0.33210  1.0000
  H   H288      1.0  0.00510  0.11580  0.16790  1.0000
  C   C297      1.0  0.54790  0.46050  0.63270  1.0000
  C   C298      1.0  0.95210  0.96050  0.86730  1.0000
  C   C299      1.0  0.45210  0.53950  0.36730  1.0000
  C   C300      1.0  0.04790  0.03950  0.13270  1.0000
  H   H289      1.0  0.58210  0.45740  0.61960  1.0000
  H   H290      1.0  0.91790  0.95740  0.88040  1.0000
  H   H291      1.0  0.41790  0.54260  0.38040  1.0000
  H   H292      1.0  0.08210  0.04260  0.11960  1.0000
  H   H293      1.0  0.51370  0.47040  0.60280  1.0000
  H   H294      1.0  0.98630  0.97040  0.89720  1.0000
  H   H295      1.0  0.48630  0.52960  0.39720  1.0000
  H   H296      1.0  0.01370  0.02960  0.10280  1.0000
  C   C301      1.0  0.55560  0.52930  0.66820  1.0000
  C   C302      1.0  0.94440  0.02930  0.83180  1.0000
  C   C303      1.0  0.44440  0.47070  0.33180  1.0000
  C   C304      1.0  0.05560  0.97070  0.16820  1.0000
  H   H297      1.0  0.59450  0.52710  0.69350  1.0000
  H   H298      1.0  0.90550  0.02710  0.80650  1.0000
  H   H299      1.0  0.40550  0.47290  0.30650  1.0000
  H   H300      1.0  0.09450  0.97290  0.19350  1.0000
  H   H301      1.0  0.52630  0.52740  0.68720  1.0000
  H   H302      1.0  0.97370  0.02740  0.81280  1.0000
  H   H303      1.0  0.47370  0.47260  0.31280  1.0000
  H   H304      1.0  0.02630  0.97260  0.18720  1.0000
  C   C305      1.0  0.54920  0.60680  0.63740  1.0000
  C   C306      1.0  0.95080  0.10680  0.86260  1.0000
  C   C307      1.0  0.45080  0.39320  0.36260  1.0000
  C   C308      1.0  0.04920  0.89320  0.13740  1.0000
  H   H305      1.0  0.56160  0.60010  0.60590  1.0000
  H   H306      1.0  0.93840  0.10010  0.89410  1.0000
  H   H307      1.0  0.43840  0.39990  0.39410  1.0000
  H   H308      1.0  0.06160  0.89990  0.10590  1.0000
  H   H309      1.0  0.50860  0.62530  0.62750  1.0000
  H   H310      1.0  0.99140  0.12530  0.87250  1.0000
  H   H311      1.0  0.49140  0.37470  0.37250  1.0000
  H   H312      1.0  0.00860  0.87470  0.12750  1.0000
  C   C309      1.0  0.58900  0.66350  0.67460  1.0000
  C   C310      1.0  0.91100  0.16350  0.82540  1.0000
  C   C311      1.0  0.41100  0.33650  0.32540  1.0000
  C   C312      1.0  0.08900  0.83650  0.17460  1.0000
  H   H313      1.0  0.58640  0.71510  0.65860  1.0000
  H   H314      1.0  0.91360  0.21510  0.84140  1.0000
  H   H315      1.0  0.41360  0.28490  0.34140  1.0000
  H   H316      1.0  0.08640  0.78490  0.15860  1.0000
  H   H317      1.0  0.62910  0.64480  0.68290  1.0000
  H   H318      1.0  0.87090  0.14480  0.81710  1.0000
  H   H319      1.0  0.37090  0.35520  0.31710  1.0000
  H   H320      1.0  0.12910  0.85520  0.18290  1.0000
  H   H321      1.0  0.57720  0.66700  0.70620  1.0000
  H   H322      1.0  0.92280  0.16700  0.79380  1.0000
  H   H323      1.0  0.42280  0.33300  0.29380  1.0000
  H   H324      1.0  0.07720  0.83300  0.20620  1.0000
  C   C313      1.0  0.52120  0.01050  0.66850  1.0000
  C   C314      1.0  0.97880  0.51050  0.83150  1.0000
  C   C315      1.0  0.47880  0.98950  0.33150  1.0000
  C   C316      1.0  0.02120  0.48950  0.16850  1.0000
  H   H325      1.0  0.48660  0.02480  0.67920  1.0000
  H   H326      1.0  0.01340  0.52480  0.82080  1.0000
  H   H327      1.0  0.51340  0.97520  0.32080  1.0000
  H   H328      1.0  0.98660  0.47520  0.17920  1.0000
  H   H329      1.0  0.51790  0.03630  0.63520  1.0000
  H   H330      1.0  0.98210  0.53630  0.86480  1.0000
  H   H331      1.0  0.48210  0.96370  0.36480  1.0000
  H   H332      1.0  0.01790  0.46370  0.13520  1.0000
  C   C317      1.0  0.52140  0.92090  0.66070  1.0000
  C   C318      1.0  0.97860  0.42090  0.83930  1.0000
  C   C319      1.0  0.47860  0.07910  0.33930  1.0000
  C   C320      1.0  0.02140  0.57910  0.16070  1.0000
  H   H333      1.0  0.52980  0.89490  0.69460  1.0000
  H   H334      1.0  0.97020  0.39490  0.80540  1.0000
  H   H335      1.0  0.47020  0.10510  0.30540  1.0000
  H   H336      1.0  0.02980  0.60510  0.19460  1.0000
  H   H337      1.0  0.55270  0.90700  0.64530  1.0000
  H   H338      1.0  0.94730  0.40700  0.85470  1.0000
  H   H339      1.0  0.44730  0.09300  0.35470  1.0000
  H   H340      1.0  0.05270  0.59300  0.14530  1.0000
  C   C321      1.0  0.46030  0.88940  0.62400  1.0000
  C   C322      1.0  0.03970  0.38940  0.87600  1.0000
  C   C323      1.0  0.53970  0.11060  0.37600  1.0000
  C   C324      1.0  0.96030  0.61060  0.12400  1.0000
  H   H341      1.0  0.42880  0.91460  0.63490  1.0000
  H   H342      1.0  0.07120  0.41460  0.86510  1.0000
  H   H343      1.0  0.57120  0.08540  0.36510  1.0000
  H   H344      1.0  0.92880  0.58540  0.13490  1.0000
  H   H345      1.0  0.45660  0.90690  0.58840  1.0000
  H   H346      1.0  0.04340  0.40690  0.91160  1.0000
  H   H347      1.0  0.54340  0.09310  0.41160  1.0000
  H   H348      1.0  0.95660  0.59310  0.08840  1.0000
  C   C325      1.0  0.45140  0.81090  0.62290  1.0000
  C   C326      1.0  0.04860  0.31090  0.87710  1.0000
  C   C327      1.0  0.54860  0.18910  0.37710  1.0000
  C   C328      1.0  0.95140  0.68910  0.12290  1.0000
  H   H349      1.0  0.45440  0.79200  0.65800  1.0000
  H   H350      1.0  0.04560  0.29200  0.84200  1.0000
  H   H351      1.0  0.54560  0.20800  0.34200  1.0000
  H   H352      1.0  0.95440  0.70800  0.15800  1.0000
  H   H353      1.0  0.48160  0.78440  0.61080  1.0000
  H   H354      1.0  0.01840  0.28440  0.88920  1.0000
  H   H355      1.0  0.51840  0.21560  0.38920  1.0000
  H   H356      1.0  0.98160  0.71560  0.11080  1.0000
  C   C329      1.0  0.38900  0.79060  0.58540  1.0000
  C   C330      1.0  0.11100  0.29060  0.91460  1.0000
  C   C331      1.0  0.61100  0.20940  0.41460  1.0000
  C   C332      1.0  0.88900  0.70940  0.08540  1.0000
  H   H357      1.0  0.38190  0.73450  0.58670  1.0000
  H   H358      1.0  0.11810  0.23450  0.91330  1.0000
  H   H359      1.0  0.61810  0.26550  0.41330  1.0000
  H   H360      1.0  0.88190  0.76550  0.08670  1.0000
  H   H361      1.0  0.38720  0.80560  0.55020  1.0000
  H   H362      1.0  0.11280  0.30560  0.94980  1.0000
  H   H363      1.0  0.61280  0.19440  0.44980  1.0000
  H   H364      1.0  0.88720  0.69440  0.05020  1.0000
  H   H365      1.0  0.35940  0.81920  0.59630  1.0000
  H   H366      1.0  0.14060  0.31920  0.90370  1.0000
  H   H367      1.0  0.64060  0.18080  0.40370  1.0000
  H   H368      1.0  0.85940  0.68080  0.09630  1.0000
  O   O1        1.0  0.68540  0.03540  0.78210  1.0000
  O   O2        1.0  0.81460  0.53540  0.71790  1.0000
  O   O3        1.0  0.31460  0.96460  0.21790  1.0000
  O   O4        1.0  0.18540  0.46460  0.28210  1.0000
  O   O5        1.0  0.78655  0.03330  0.64793  1.0000
  O   O6        1.0  0.71345  0.53330  0.85207  1.0000
  O   O7        1.0  0.21345  0.96670  0.35207  1.0000
  O   O8        1.0  0.28655  0.46670  0.14793  1.0000
  O   O9        1.0  0.01440  0.20000  0.56650  1.0000
  O   O10       1.0  0.48560  0.70000  0.93350  1.0000
  O   O11       1.0  0.98560  0.80000  0.43350  1.0000
  O   O12       1.0  0.51440  0.30000  0.06650  1.0000
  O   O13       1.0  0.07610  0.15740  0.63530  1.0000
  O   O14       1.0  0.42390  0.65740  0.86470  1.0000
  O   O15       1.0  0.92390  0.84260  0.36470  1.0000
  O   O16       1.0  0.57610  0.34260  0.13530  1.0000
  O   O17       1.0  0.74170  0.02150  0.49170  1.0000
  O   O18       1.0  0.75830  0.52150  0.00830  1.0000
  O   O19       1.0  0.25830  0.97850  0.50830  1.0000
  O   O20       1.0  0.24170  0.47850  0.99170  1.0000
  O   O21       1.0  0.77260  0.30670  0.49580  1.0000
  O   O22       1.0  0.72740  0.80670  0.00420  1.0000
  O   O23       1.0  0.22740  0.69330  0.50420  1.0000
  O   O24       1.0  0.27260  0.19330  0.99580  1.0000
  O   O25       1.0  0.81050  0.31190  0.65780  1.0000
  O   O26       1.0  0.68950  0.81190  0.84220  1.0000
  O   O27       1.0  0.18950  0.68810  0.34220  1.0000
  O   O28       1.0  0.31050  0.18810  0.15780  1.0000
  O   O29       1.0  0.69220  0.32890  0.77690  1.0000
  O   O30       1.0  0.80780  0.82890  0.72310  1.0000
  O   O31       1.0  0.30780  0.67110  0.22310  1.0000
  O   O32       1.0  0.19220  0.17110  0.27690  1.0000
  O   O33       1.0  0.66830  0.31920  0.03550  1.0000
  O   O34       1.0  0.83170  0.81920  0.46450  1.0000
  O   O35       1.0  0.33170  0.68080  0.96450  1.0000
  O   O36       1.0  0.16830  0.18080  0.53550  1.0000
  O   O37       1.0  0.59960  0.23730  0.99540  1.0000
  O   O38       1.0  0.90040  0.73730  0.50460  1.0000
  O   O39       1.0  0.40040  0.76270  0.00460  1.0000
  O   O40       1.0  0.09960  0.26270  0.49540  1.0000
  O   O41       1.0  0.52350  0.35080  0.77000  1.0000
  O   O42       1.0  0.97650  0.85080  0.73000  1.0000
  O   O43       1.0  0.47650  0.64920  0.23000  1.0000
  O   O44       1.0  0.02350  0.14920  0.27000  1.0000
  O   O45       1.0  0.51642  0.06420  0.78310  1.0000
  O   O46       1.0  0.98358  0.56420  0.71690  1.0000
  O   O47       1.0  0.48358  0.93580  0.21690  1.0000
  O   O48       1.0  0.01642  0.43580  0.28310  1.0000
  O   O49       1.0  0.21850  0.20960  0.69200  1.0000
  O   O50       1.0  0.28150  0.70960  0.80800  1.0000
  O   O51       1.0  0.78150  0.79040  0.30800  1.0000
  O   O52       1.0  0.71850  0.29040  0.19200  1.0000
  O   O53       1.0  0.21890  0.11020  0.64590  1.0000
  O   O54       1.0  0.28110  0.61020  0.85410  1.0000
  O   O55       1.0  0.78110  0.88980  0.35410  1.0000
  O   O56       1.0  0.71890  0.38980  0.14590  1.0000
  C   C333      1.0  0.85760  0.62010  0.40180  1.0000
  C   C334      1.0  0.64240  0.12010  0.09820  1.0000
  C   C335      1.0  0.14240  0.37990  0.59820  1.0000
  C   C336      1.0  0.35760  0.87990  0.90180  1.0000
  O   O57       1.0  0.81900  0.66710  0.38990  1.0000
  O   O58       1.0  0.68100  0.16710  0.11010  1.0000
  O   O59       1.0  0.18100  0.33290  0.61010  1.0000
  O   O60       1.0  0.31900  0.83290  0.88990  1.0000
  O   O61       1.0  0.90880  0.63540  0.40900  1.0000
  O   O62       1.0  0.59120  0.13540  0.09100  1.0000
  O   O63       1.0  0.09120  0.36460  0.59100  1.0000
  O   O64       1.0  0.40880  0.86460  0.90900  1.0000
