data_image0
_chemical_formula_structural       In48N96C48H48C192O192N96C96O192C144H48
_chemical_formula_sum              "In48 N192 C480 H96 O384"
_cell_length_a       30.984
_cell_length_b       30.984
_cell_length_c       30.984
_cell_angle_alpha    90
_cell_angle_beta     90
_cell_angle_gamma    90

_space_group_name_H-M_alt    "P 1"
_space_group_IT_number       1

loop_
  _space_group_symop_operation_xyz
  'x, y, z'

loop_
  _atom_site_type_symbol
  _atom_site_label
  _atom_site_symmetry_multiplicity
  _atom_site_fract_x
  _atom_site_fract_y
  _atom_site_fract_z
  _atom_site_occupancy
  In  In1       1.0  0.10440  0.39560  0.25000  1.0000
  In  In2       1.0  0.89560  0.60440  0.25000  1.0000
  In  In3       1.0  0.89560  0.39560  0.75000  1.0000
  In  In4       1.0  0.10440  0.60440  0.75000  1.0000
  In  In5       1.0  0.25000  0.10440  0.39560  1.0000
  In  In6       1.0  0.25000  0.89560  0.60440  1.0000
  In  In7       1.0  0.75000  0.89560  0.39560  1.0000
  In  In8       1.0  0.75000  0.10440  0.60440  1.0000
  In  In9       1.0  0.39560  0.25000  0.10440  1.0000
  In  In10      1.0  0.60440  0.25000  0.89560  1.0000
  In  In11      1.0  0.39560  0.75000  0.89560  1.0000
  In  In12      1.0  0.60440  0.75000  0.10440  1.0000
  In  In13      1.0  0.39560  0.10440  0.75000  1.0000
  In  In14      1.0  0.60440  0.89560  0.75000  1.0000
  In  In15      1.0  0.39560  0.89560  0.25000  1.0000
  In  In16      1.0  0.60440  0.10440  0.25000  1.0000
  In  In17      1.0  0.10440  0.25000  0.60440  1.0000
  In  In18      1.0  0.89560  0.25000  0.39560  1.0000
  In  In19      1.0  0.89560  0.75000  0.60440  1.0000
  In  In20      1.0  0.10440  0.75000  0.39560  1.0000
  In  In21      1.0  0.25000  0.39560  0.89560  1.0000
  In  In22      1.0  0.25000  0.60440  0.10440  1.0000
  In  In23      1.0  0.75000  0.39560  0.10440  1.0000
  In  In24      1.0  0.75000  0.60440  0.89560  1.0000
  In  In25      1.0  0.89560  0.60440  0.75000  1.0000
  In  In26      1.0  0.10440  0.39560  0.75000  1.0000
  In  In27      1.0  0.10440  0.60440  0.25000  1.0000
  In  In28      1.0  0.89560  0.39560  0.25000  1.0000
  In  In29      1.0  0.75000  0.89560  0.60440  1.0000
  In  In30      1.0  0.75000  0.10440  0.39560  1.0000
  In  In31      1.0  0.25000  0.10440  0.60440  1.0000
  In  In32      1.0  0.25000  0.89560  0.39560  1.0000
  In  In33      1.0  0.60440  0.75000  0.89560  1.0000
  In  In34      1.0  0.39560  0.75000  0.10440  1.0000
  In  In35      1.0  0.60440  0.25000  0.10440  1.0000
  In  In36      1.0  0.39560  0.25000  0.89560  1.0000
  In  In37      1.0  0.60440  0.89560  0.25000  1.0000
  In  In38      1.0  0.39560  0.10440  0.25000  1.0000
  In  In39      1.0  0.60440  0.10440  0.75000  1.0000
  In  In40      1.0  0.39560  0.89560  0.75000  1.0000
  In  In41      1.0  0.89560  0.75000  0.39560  1.0000
  In  In42      1.0  0.10440  0.75000  0.60440  1.0000
  In  In43      1.0  0.10440  0.25000  0.39560  1.0000
  In  In44      1.0  0.89560  0.25000  0.60440  1.0000
  In  In45      1.0  0.75000  0.60440  0.10440  1.0000
  In  In46      1.0  0.75000  0.39560  0.89560  1.0000
  In  In47      1.0  0.25000  0.60440  0.89560  1.0000
  In  In48      1.0  0.25000  0.39560  0.10440  1.0000
  N   N1        1.0  0.15239  0.37804  0.20259  1.0000
  N   N2        1.0  0.84761  0.62196  0.20259  1.0000
  N   N3        1.0  0.84761  0.37804  0.79741  1.0000
  N   N4        1.0  0.15239  0.62196  0.79741  1.0000
  N   N5        1.0  0.20259  0.15239  0.37804  1.0000
  N   N6        1.0  0.20259  0.84761  0.62196  1.0000
  N   N7        1.0  0.79741  0.84761  0.37804  1.0000
  N   N8        1.0  0.79741  0.15239  0.62196  1.0000
  N   N9        1.0  0.37804  0.20259  0.15239  1.0000
  N   N10       1.0  0.62196  0.20259  0.84761  1.0000
  N   N11       1.0  0.37804  0.79741  0.84761  1.0000
  N   N12       1.0  0.62196  0.79741  0.15239  1.0000
  N   N13       1.0  0.37804  0.15239  0.79741  1.0000
  N   N14       1.0  0.62196  0.84761  0.79741  1.0000
  N   N15       1.0  0.37804  0.84761  0.20259  1.0000
  N   N16       1.0  0.62196  0.15239  0.20259  1.0000
  N   N17       1.0  0.15239  0.20259  0.62196  1.0000
  N   N18       1.0  0.84761  0.20259  0.37804  1.0000
  N   N19       1.0  0.84761  0.79741  0.62196  1.0000
  N   N20       1.0  0.15239  0.79741  0.37804  1.0000
  N   N21       1.0  0.20259  0.37804  0.84761  1.0000
  N   N22       1.0  0.20259  0.62196  0.15239  1.0000
  N   N23       1.0  0.79741  0.37804  0.15239  1.0000
  N   N24       1.0  0.79741  0.62196  0.84761  1.0000
  N   N25       1.0  0.65239  0.87804  0.70259  1.0000
  N   N26       1.0  0.34761  0.12196  0.70259  1.0000
  N   N27       1.0  0.34761  0.87804  0.29741  1.0000
  N   N28       1.0  0.65239  0.12196  0.29741  1.0000
  N   N29       1.0  0.70259  0.65239  0.87804  1.0000
  N   N30       1.0  0.70259  0.34761  0.12196  1.0000
  N   N31       1.0  0.29741  0.34761  0.87804  1.0000
  N   N32       1.0  0.29741  0.65239  0.12196  1.0000
  N   N33       1.0  0.87804  0.70259  0.65239  1.0000
  N   N34       1.0  0.12196  0.70259  0.34761  1.0000
  N   N35       1.0  0.87804  0.29741  0.34761  1.0000
  N   N36       1.0  0.12196  0.29741  0.65239  1.0000
  N   N37       1.0  0.87804  0.65239  0.29741  1.0000
  N   N38       1.0  0.12196  0.34761  0.29741  1.0000
  N   N39       1.0  0.87804  0.34761  0.70259  1.0000
  N   N40       1.0  0.12196  0.65239  0.70259  1.0000
  N   N41       1.0  0.65239  0.70259  0.12196  1.0000
  N   N42       1.0  0.34761  0.70259  0.87804  1.0000
  N   N43       1.0  0.34761  0.29741  0.12196  1.0000
  N   N44       1.0  0.65239  0.29741  0.87804  1.0000
  N   N45       1.0  0.70259  0.87804  0.34761  1.0000
  N   N46       1.0  0.70259  0.12196  0.65239  1.0000
  N   N47       1.0  0.29741  0.87804  0.65239  1.0000
  N   N48       1.0  0.29741  0.12196  0.34761  1.0000
  N   N49       1.0  0.84761  0.62196  0.79741  1.0000
  N   N50       1.0  0.15239  0.37804  0.79741  1.0000
  N   N51       1.0  0.15239  0.62196  0.20259  1.0000
  N   N52       1.0  0.84761  0.37804  0.20259  1.0000
  N   N53       1.0  0.79741  0.84761  0.62196  1.0000
  N   N54       1.0  0.79741  0.15239  0.37804  1.0000
  N   N55       1.0  0.20259  0.15239  0.62196  1.0000
  N   N56       1.0  0.20259  0.84761  0.37804  1.0000
  N   N57       1.0  0.62196  0.79741  0.84761  1.0000
  N   N58       1.0  0.37804  0.79741  0.15239  1.0000
  N   N59       1.0  0.62196  0.20259  0.15239  1.0000
  N   N60       1.0  0.37804  0.20259  0.84761  1.0000
  N   N61       1.0  0.62196  0.84761  0.20259  1.0000
  N   N62       1.0  0.37804  0.15239  0.20259  1.0000
  N   N63       1.0  0.62196  0.15239  0.79741  1.0000
  N   N64       1.0  0.37804  0.84761  0.79741  1.0000
  N   N65       1.0  0.84761  0.79741  0.37804  1.0000
  N   N66       1.0  0.15239  0.79741  0.62196  1.0000
  N   N67       1.0  0.15239  0.20259  0.37804  1.0000
  N   N68       1.0  0.84761  0.20259  0.62196  1.0000
  N   N69       1.0  0.79741  0.62196  0.15239  1.0000
  N   N70       1.0  0.79741  0.37804  0.84761  1.0000
  N   N71       1.0  0.20259  0.62196  0.84761  1.0000
  N   N72       1.0  0.20259  0.37804  0.15239  1.0000
  N   N73       1.0  0.34761  0.12196  0.29741  1.0000
  N   N74       1.0  0.65239  0.87804  0.29741  1.0000
  N   N75       1.0  0.65239  0.12196  0.70259  1.0000
  N   N76       1.0  0.34761  0.87804  0.70259  1.0000
  N   N77       1.0  0.29741  0.34761  0.12196  1.0000
  N   N78       1.0  0.29741  0.65239  0.87804  1.0000
  N   N79       1.0  0.70259  0.65239  0.12196  1.0000
  N   N80       1.0  0.70259  0.34761  0.87804  1.0000
  N   N81       1.0  0.12196  0.29741  0.34761  1.0000
  N   N82       1.0  0.87804  0.29741  0.65239  1.0000
  N   N83       1.0  0.12196  0.70259  0.65239  1.0000
  N   N84       1.0  0.87804  0.70259  0.34761  1.0000
  N   N85       1.0  0.12196  0.34761  0.70259  1.0000
  N   N86       1.0  0.87804  0.65239  0.70259  1.0000
  N   N87       1.0  0.12196  0.65239  0.29741  1.0000
  N   N88       1.0  0.87804  0.34761  0.29741  1.0000
  N   N89       1.0  0.34761  0.29741  0.87804  1.0000
  N   N90       1.0  0.65239  0.29741  0.12196  1.0000
  N   N91       1.0  0.65239  0.70259  0.87804  1.0000
  N   N92       1.0  0.34761  0.70259  0.12196  1.0000
  N   N93       1.0  0.29741  0.12196  0.65239  1.0000
  N   N94       1.0  0.29741  0.87804  0.34761  1.0000
  N   N95       1.0  0.70259  0.12196  0.34761  1.0000
  N   N96       1.0  0.70259  0.87804  0.65239  1.0000
  C   C1        1.0  0.18692  0.39721  0.18692  1.0000
  C   C2        1.0  0.81308  0.60279  0.18692  1.0000
  C   C3        1.0  0.81308  0.39721  0.81308  1.0000
  C   C4        1.0  0.18692  0.60279  0.81308  1.0000
  C   C5        1.0  0.18692  0.18692  0.39721  1.0000
  C   C6        1.0  0.18692  0.81308  0.60279  1.0000
  C   C7        1.0  0.81308  0.81308  0.39721  1.0000
  C   C8        1.0  0.81308  0.18692  0.60279  1.0000
  C   C9        1.0  0.39721  0.18692  0.18692  1.0000
  C   C10       1.0  0.60279  0.18692  0.81308  1.0000
  C   C11       1.0  0.39721  0.81308  0.81308  1.0000
  C   C12       1.0  0.60279  0.81308  0.18692  1.0000
  C   C13       1.0  0.39721  0.18692  0.81308  1.0000
  C   C14       1.0  0.60279  0.81308  0.81308  1.0000
  C   C15       1.0  0.39721  0.81308  0.18692  1.0000
  C   C16       1.0  0.60279  0.18692  0.18692  1.0000
  C   C17       1.0  0.18692  0.18692  0.60279  1.0000
  C   C18       1.0  0.81308  0.18692  0.39721  1.0000
  C   C19       1.0  0.81308  0.81308  0.60279  1.0000
  C   C20       1.0  0.18692  0.81308  0.39721  1.0000
  C   C21       1.0  0.18692  0.39721  0.81308  1.0000
  C   C22       1.0  0.18692  0.60279  0.18692  1.0000
  C   C23       1.0  0.81308  0.39721  0.18692  1.0000
  C   C24       1.0  0.81308  0.60279  0.81308  1.0000
  C   C25       1.0  0.68692  0.89721  0.68692  1.0000
  C   C26       1.0  0.31308  0.10279  0.68692  1.0000
  C   C27       1.0  0.31308  0.89721  0.31308  1.0000
  C   C28       1.0  0.68692  0.10279  0.31308  1.0000
  C   C29       1.0  0.68692  0.68692  0.89721  1.0000
  C   C30       1.0  0.68692  0.31308  0.10279  1.0000
  C   C31       1.0  0.31308  0.31308  0.89721  1.0000
  C   C32       1.0  0.31308  0.68692  0.10279  1.0000
  C   C33       1.0  0.89721  0.68692  0.68692  1.0000
  C   C34       1.0  0.10279  0.68692  0.31308  1.0000
  C   C35       1.0  0.89721  0.31308  0.31308  1.0000
  C   C36       1.0  0.10279  0.31308  0.68692  1.0000
  C   C37       1.0  0.89721  0.68692  0.31308  1.0000
  C   C38       1.0  0.10279  0.31308  0.31308  1.0000
  C   C39       1.0  0.89721  0.31308  0.68692  1.0000
  C   C40       1.0  0.10279  0.68692  0.68692  1.0000
  C   C41       1.0  0.68692  0.68692  0.10279  1.0000
  C   C42       1.0  0.31308  0.68692  0.89721  1.0000
  C   C43       1.0  0.31308  0.31308  0.10279  1.0000
  C   C44       1.0  0.68692  0.31308  0.89721  1.0000
  C   C45       1.0  0.68692  0.89721  0.31308  1.0000
  C   C46       1.0  0.68692  0.10279  0.68692  1.0000
  C   C47       1.0  0.31308  0.89721  0.68692  1.0000
  C   C48       1.0  0.31308  0.10279  0.31308  1.0000
  H   H1        1.0  0.19900  0.42180  0.19900  1.0000
  H   H2        1.0  0.80100  0.57820  0.19900  1.0000
  H   H3        1.0  0.80100  0.42180  0.80100  1.0000
  H   H4        1.0  0.19900  0.57820  0.80100  1.0000
  H   H5        1.0  0.19900  0.19900  0.42180  1.0000
  H   H6        1.0  0.19900  0.80100  0.57820  1.0000
  H   H7        1.0  0.80100  0.80100  0.42180  1.0000
  H   H8        1.0  0.80100  0.19900  0.57820  1.0000
  H   H9        1.0  0.42180  0.19900  0.19900  1.0000
  H   H10       1.0  0.57820  0.19900  0.80100  1.0000
  H   H11       1.0  0.42180  0.80100  0.80100  1.0000
  H   H12       1.0  0.57820  0.80100  0.19900  1.0000
  H   H13       1.0  0.42180  0.19900  0.80100  1.0000
  H   H14       1.0  0.57820  0.80100  0.80100  1.0000
  H   H15       1.0  0.42180  0.80100  0.19900  1.0000
  H   H16       1.0  0.57820  0.19900  0.19900  1.0000
  H   H17       1.0  0.19900  0.19900  0.57820  1.0000
  H   H18       1.0  0.80100  0.19900  0.42180  1.0000
  H   H19       1.0  0.80100  0.80100  0.57820  1.0000
  H   H20       1.0  0.19900  0.80100  0.42180  1.0000
  H   H21       1.0  0.19900  0.42180  0.80100  1.0000
  H   H22       1.0  0.19900  0.57820  0.19900  1.0000
  H   H23       1.0  0.80100  0.42180  0.19900  1.0000
  H   H24       1.0  0.80100  0.57820  0.80100  1.0000
  H   H25       1.0  0.69900  0.92180  0.69900  1.0000
  H   H26       1.0  0.30100  0.07820  0.69900  1.0000
  H   H27       1.0  0.30100  0.92180  0.30100  1.0000
  H   H28       1.0  0.69900  0.07820  0.30100  1.0000
  H   H29       1.0  0.69900  0.69900  0.92180  1.0000
  H   H30       1.0  0.69900  0.30100  0.07820  1.0000
  H   H31       1.0  0.30100  0.30100  0.92180  1.0000
  H   H32       1.0  0.30100  0.69900  0.07820  1.0000
  H   H33       1.0  0.92180  0.69900  0.69900  1.0000
  H   H34       1.0  0.07820  0.69900  0.30100  1.0000
  H   H35       1.0  0.92180  0.30100  0.30100  1.0000
  H   H36       1.0  0.07820  0.30100  0.69900  1.0000
  H   H37       1.0  0.92180  0.69900  0.30100  1.0000
  H   H38       1.0  0.07820  0.30100  0.30100  1.0000
  H   H39       1.0  0.92180  0.30100  0.69900  1.0000
  H   H40       1.0  0.07820  0.69900  0.69900  1.0000
  H   H41       1.0  0.69900  0.69900  0.07820  1.0000
  H   H42       1.0  0.30100  0.69900  0.92180  1.0000
  H   H43       1.0  0.30100  0.30100  0.07820  1.0000
  H   H44       1.0  0.69900  0.30100  0.92180  1.0000
  H   H45       1.0  0.69900  0.92180  0.30100  1.0000
  H   H46       1.0  0.69900  0.07820  0.69900  1.0000
  H   H47       1.0  0.30100  0.92180  0.69900  1.0000
  H   H48       1.0  0.30100  0.07820  0.30100  1.0000
  C   C49       1.0  0.14508  0.34317  0.17605  1.0000
  C   C50       1.0  0.85492  0.65683  0.17605  1.0000
  C   C51       1.0  0.85492  0.34317  0.82395  1.0000
  C   C52       1.0  0.14508  0.65683  0.82395  1.0000
  C   C53       1.0  0.17605  0.14508  0.34317  1.0000
  C   C54       1.0  0.17605  0.85492  0.65683  1.0000
  C   C55       1.0  0.82395  0.85492  0.34317  1.0000
  C   C56       1.0  0.82395  0.14508  0.65683  1.0000
  C   C57       1.0  0.34317  0.17605  0.14508  1.0000
  C   C58       1.0  0.65683  0.17605  0.85492  1.0000
  C   C59       1.0  0.34317  0.82395  0.85492  1.0000
  C   C60       1.0  0.65683  0.82395  0.14508  1.0000
  C   C61       1.0  0.34317  0.14508  0.82395  1.0000
  C   C62       1.0  0.65683  0.85492  0.82395  1.0000
  C   C63       1.0  0.34317  0.85492  0.17605  1.0000
  C   C64       1.0  0.65683  0.14508  0.17605  1.0000
  C   C65       1.0  0.14508  0.17605  0.65683  1.0000
  C   C66       1.0  0.85492  0.17605  0.34317  1.0000
  C   C67       1.0  0.85492  0.82395  0.65683  1.0000
  C   C68       1.0  0.14508  0.82395  0.34317  1.0000
  C   C69       1.0  0.17605  0.34317  0.85492  1.0000
  C   C70       1.0  0.17605  0.65683  0.14508  1.0000
  C   C71       1.0  0.82395  0.34317  0.14508  1.0000
  C   C72       1.0  0.82395  0.65683  0.85492  1.0000
  C   C73       1.0  0.64508  0.84317  0.67605  1.0000
  C   C74       1.0  0.35492  0.15683  0.67605  1.0000
  C   C75       1.0  0.35492  0.84317  0.32395  1.0000
  C   C76       1.0  0.64508  0.15683  0.32395  1.0000
  C   C77       1.0  0.67605  0.64508  0.84317  1.0000
  C   C78       1.0  0.67605  0.35492  0.15683  1.0000
  C   C79       1.0  0.32395  0.35492  0.84317  1.0000
  C   C80       1.0  0.32395  0.64508  0.15683  1.0000
  C   C81       1.0  0.84317  0.67605  0.64508  1.0000
  C   C82       1.0  0.15683  0.67605  0.35492  1.0000
  C   C83       1.0  0.84317  0.32395  0.35492  1.0000
  C   C84       1.0  0.15683  0.32395  0.64508  1.0000
  C   C85       1.0  0.84317  0.64508  0.32395  1.0000
  C   C86       1.0  0.15683  0.35492  0.32395  1.0000
  C   C87       1.0  0.84317  0.35492  0.67605  1.0000
  C   C88       1.0  0.15683  0.64508  0.67605  1.0000
  C   C89       1.0  0.64508  0.67605  0.15683  1.0000
  C   C90       1.0  0.35492  0.67605  0.84317  1.0000
  C   C91       1.0  0.35492  0.32395  0.15683  1.0000
  C   C92       1.0  0.64508  0.32395  0.84317  1.0000
  C   C93       1.0  0.67605  0.84317  0.35492  1.0000
  C   C94       1.0  0.67605  0.15683  0.64508  1.0000
  C   C95       1.0  0.32395  0.84317  0.64508  1.0000
  C   C96       1.0  0.32395  0.15683  0.35492  1.0000
  C   C97       1.0  0.85492  0.65683  0.82395  1.0000
  C   C98       1.0  0.14508  0.34317  0.82395  1.0000
  C   C99       1.0  0.14508  0.65683  0.17605  1.0000
  C   C100      1.0  0.85492  0.34317  0.17605  1.0000
  C   C101      1.0  0.82395  0.85492  0.65683  1.0000
  C   C102      1.0  0.82395  0.14508  0.34317  1.0000
  C   C103      1.0  0.17605  0.14508  0.65683  1.0000
  C   C104      1.0  0.17605  0.85492  0.34317  1.0000
  C   C105      1.0  0.65683  0.82395  0.85492  1.0000
  C   C106      1.0  0.34317  0.82395  0.14508  1.0000
  C   C107      1.0  0.65683  0.17605  0.14508  1.0000
  C   C108      1.0  0.34317  0.17605  0.85492  1.0000
  C   C109      1.0  0.65683  0.85492  0.17605  1.0000
  C   C110      1.0  0.34317  0.14508  0.17605  1.0000
  C   C111      1.0  0.65683  0.14508  0.82395  1.0000
  C   C112      1.0  0.34317  0.85492  0.82395  1.0000
  C   C113      1.0  0.85492  0.82395  0.34317  1.0000
  C   C114      1.0  0.14508  0.82395  0.65683  1.0000
  C   C115      1.0  0.14508  0.17605  0.34317  1.0000
  C   C116      1.0  0.85492  0.17605  0.65683  1.0000
  C   C117      1.0  0.82395  0.65683  0.14508  1.0000
  C   C118      1.0  0.82395  0.34317  0.85492  1.0000
  C   C119      1.0  0.17605  0.65683  0.85492  1.0000
  C   C120      1.0  0.17605  0.34317  0.14508  1.0000
  C   C121      1.0  0.35492  0.15683  0.32395  1.0000
  C   C122      1.0  0.64508  0.84317  0.32395  1.0000
  C   C123      1.0  0.64508  0.15683  0.67605  1.0000
  C   C124      1.0  0.35492  0.84317  0.67605  1.0000
  C   C125      1.0  0.32395  0.35492  0.15683  1.0000
  C   C126      1.0  0.32395  0.64508  0.84317  1.0000
  C   C127      1.0  0.67605  0.64508  0.15683  1.0000
  C   C128      1.0  0.67605  0.35492  0.84317  1.0000
  C   C129      1.0  0.15683  0.32395  0.35492  1.0000
  C   C130      1.0  0.84317  0.32395  0.64508  1.0000
  C   C131      1.0  0.15683  0.67605  0.64508  1.0000
  C   C132      1.0  0.84317  0.67605  0.35492  1.0000
  C   C133      1.0  0.15683  0.35492  0.67605  1.0000
  C   C134      1.0  0.84317  0.64508  0.67605  1.0000
  C   C135      1.0  0.15683  0.64508  0.32395  1.0000
  C   C136      1.0  0.84317  0.35492  0.32395  1.0000
  C   C137      1.0  0.35492  0.32395  0.84317  1.0000
  C   C138      1.0  0.64508  0.32395  0.15683  1.0000
  C   C139      1.0  0.64508  0.67605  0.84317  1.0000
  C   C140      1.0  0.35492  0.67605  0.15683  1.0000
  C   C141      1.0  0.32395  0.15683  0.64508  1.0000
  C   C142      1.0  0.32395  0.84317  0.35492  1.0000
  C   C143      1.0  0.67605  0.15683  0.35492  1.0000
  C   C144      1.0  0.67605  0.84317  0.64508  1.0000
  C   C145      1.0  0.10766  0.31515  0.18482  1.0000
  C   C146      1.0  0.89234  0.68485  0.18482  1.0000
  C   C147      1.0  0.89234  0.31515  0.81518  1.0000
  C   C148      1.0  0.10766  0.68485  0.81518  1.0000
  C   C149      1.0  0.18482  0.10766  0.31515  1.0000
  C   C150      1.0  0.18482  0.89234  0.68485  1.0000
  C   C151      1.0  0.81518  0.89234  0.31515  1.0000
  C   C152      1.0  0.81518  0.10766  0.68485  1.0000
  C   C153      1.0  0.31515  0.18482  0.10766  1.0000
  C   C154      1.0  0.68485  0.18482  0.89234  1.0000
  C   C155      1.0  0.31515  0.81518  0.89234  1.0000
  C   C156      1.0  0.68485  0.81518  0.10766  1.0000
  C   C157      1.0  0.31515  0.10766  0.81518  1.0000
  C   C158      1.0  0.68485  0.89234  0.81518  1.0000
  C   C159      1.0  0.31515  0.89234  0.18482  1.0000
  C   C160      1.0  0.68485  0.10766  0.18482  1.0000
  C   C161      1.0  0.10766  0.18482  0.68485  1.0000
  C   C162      1.0  0.89234  0.18482  0.31515  1.0000
  C   C163      1.0  0.89234  0.81518  0.68485  1.0000
  C   C164      1.0  0.10766  0.81518  0.31515  1.0000
  C   C165      1.0  0.18482  0.31515  0.89234  1.0000
  C   C166      1.0  0.18482  0.68485  0.10766  1.0000
  C   C167      1.0  0.81518  0.31515  0.10766  1.0000
  C   C168      1.0  0.81518  0.68485  0.89234  1.0000
  C   C169      1.0  0.60766  0.81515  0.68482  1.0000
  C   C170      1.0  0.39234  0.18485  0.68482  1.0000
  C   C171      1.0  0.39234  0.81515  0.31518  1.0000
  C   C172      1.0  0.60766  0.18485  0.31518  1.0000
  C   C173      1.0  0.68482  0.60766  0.81515  1.0000
  C   C174      1.0  0.68482  0.39234  0.18485  1.0000
  C   C175      1.0  0.31518  0.39234  0.81515  1.0000
  C   C176      1.0  0.31518  0.60766  0.18485  1.0000
  C   C177      1.0  0.81515  0.68482  0.60766  1.0000
  C   C178      1.0  0.18485  0.68482  0.39234  1.0000
  C   C179      1.0  0.81515  0.31518  0.39234  1.0000
  C   C180      1.0  0.18485  0.31518  0.60766  1.0000
  C   C181      1.0  0.81515  0.60766  0.31518  1.0000
  C   C182      1.0  0.18485  0.39234  0.31518  1.0000
  C   C183      1.0  0.81515  0.39234  0.68482  1.0000
  C   C184      1.0  0.18485  0.60766  0.68482  1.0000
  C   C185      1.0  0.60766  0.68482  0.18485  1.0000
  C   C186      1.0  0.39234  0.68482  0.81515  1.0000
  C   C187      1.0  0.39234  0.31518  0.18485  1.0000
  C   C188      1.0  0.60766  0.31518  0.81515  1.0000
  C   C189      1.0  0.68482  0.81515  0.39234  1.0000
  C   C190      1.0  0.68482  0.18485  0.60766  1.0000
  C   C191      1.0  0.31518  0.81515  0.60766  1.0000
  C   C192      1.0  0.31518  0.18485  0.39234  1.0000
  C   C193      1.0  0.89234  0.68485  0.81518  1.0000
  C   C194      1.0  0.10766  0.31515  0.81518  1.0000
  C   C195      1.0  0.10766  0.68485  0.18482  1.0000
  C   C196      1.0  0.89234  0.31515  0.18482  1.0000
  C   C197      1.0  0.81518  0.89234  0.68485  1.0000
  C   C198      1.0  0.81518  0.10766  0.31515  1.0000
  C   C199      1.0  0.18482  0.10766  0.68485  1.0000
  C   C200      1.0  0.18482  0.89234  0.31515  1.0000
  C   C201      1.0  0.68485  0.81518  0.89234  1.0000
  C   C202      1.0  0.31515  0.81518  0.10766  1.0000
  C   C203      1.0  0.68485  0.18482  0.10766  1.0000
  C   C204      1.0  0.31515  0.18482  0.89234  1.0000
  C   C205      1.0  0.68485  0.89234  0.18482  1.0000
  C   C206      1.0  0.31515  0.10766  0.18482  1.0000
  C   C207      1.0  0.68485  0.10766  0.81518  1.0000
  C   C208      1.0  0.31515  0.89234  0.81518  1.0000
  C   C209      1.0  0.89234  0.81518  0.31515  1.0000
  C   C210      1.0  0.10766  0.81518  0.68485  1.0000
  C   C211      1.0  0.10766  0.18482  0.31515  1.0000
  C   C212      1.0  0.89234  0.18482  0.68485  1.0000
  C   C213      1.0  0.81518  0.68485  0.10766  1.0000
  C   C214      1.0  0.81518  0.31515  0.89234  1.0000
  C   C215      1.0  0.18482  0.68485  0.89234  1.0000
  C   C216      1.0  0.18482  0.31515  0.10766  1.0000
  C   C217      1.0  0.39234  0.18485  0.31518  1.0000
  C   C218      1.0  0.60766  0.81515  0.31518  1.0000
  C   C219      1.0  0.60766  0.18485  0.68482  1.0000
  C   C220      1.0  0.39234  0.81515  0.68482  1.0000
  C   C221      1.0  0.31518  0.39234  0.18485  1.0000
  C   C222      1.0  0.31518  0.60766  0.81515  1.0000
  C   C223      1.0  0.68482  0.60766  0.18485  1.0000
  C   C224      1.0  0.68482  0.39234  0.81515  1.0000
  C   C225      1.0  0.18485  0.31518  0.39234  1.0000
  C   C226      1.0  0.81515  0.31518  0.60766  1.0000
  C   C227      1.0  0.18485  0.68482  0.60766  1.0000
  C   C228      1.0  0.81515  0.68482  0.39234  1.0000
  C   C229      1.0  0.18485  0.39234  0.68482  1.0000
  C   C230      1.0  0.81515  0.60766  0.68482  1.0000
  C   C231      1.0  0.18485  0.60766  0.31518  1.0000
  C   C232      1.0  0.81515  0.39234  0.31518  1.0000
  C   C233      1.0  0.39234  0.31518  0.81515  1.0000
  C   C234      1.0  0.60766  0.31518  0.18485  1.0000
  C   C235      1.0  0.60766  0.68482  0.81515  1.0000
  C   C236      1.0  0.39234  0.68482  0.18485  1.0000
  C   C237      1.0  0.31518  0.18485  0.60766  1.0000
  C   C238      1.0  0.31518  0.81515  0.39234  1.0000
  C   C239      1.0  0.68482  0.18485  0.39234  1.0000
  C   C240      1.0  0.68482  0.81515  0.60766  1.0000
  O   O1        1.0  0.08258  0.32539  0.21453  1.0000
  O   O2        1.0  0.91742  0.67461  0.21453  1.0000
  O   O3        1.0  0.91742  0.32539  0.78547  1.0000
  O   O4        1.0  0.08258  0.67461  0.78547  1.0000
  O   O5        1.0  0.21453  0.08258  0.32539  1.0000
  O   O6        1.0  0.21453  0.91742  0.67461  1.0000
  O   O7        1.0  0.78547  0.91742  0.32539  1.0000
  O   O8        1.0  0.78547  0.08258  0.67461  1.0000
  O   O9        1.0  0.32539  0.21453  0.08258  1.0000
  O   O10       1.0  0.67461  0.21453  0.91742  1.0000
  O   O11       1.0  0.32539  0.78547  0.91742  1.0000
  O   O12       1.0  0.67461  0.78547  0.08258  1.0000
  O   O13       1.0  0.32539  0.08258  0.78547  1.0000
  O   O14       1.0  0.67461  0.91742  0.78547  1.0000
  O   O15       1.0  0.32539  0.91742  0.21453  1.0000
  O   O16       1.0  0.67461  0.08258  0.21453  1.0000
  O   O17       1.0  0.08258  0.21453  0.67461  1.0000
  O   O18       1.0  0.91742  0.21453  0.32539  1.0000
  O   O19       1.0  0.91742  0.78547  0.67461  1.0000
  O   O20       1.0  0.08258  0.78547  0.32539  1.0000
  O   O21       1.0  0.21453  0.32539  0.91742  1.0000
  O   O22       1.0  0.21453  0.67461  0.08258  1.0000
  O   O23       1.0  0.78547  0.32539  0.08258  1.0000
  O   O24       1.0  0.78547  0.67461  0.91742  1.0000
  O   O25       1.0  0.58258  0.82539  0.71453  1.0000
  O   O26       1.0  0.41742  0.17461  0.71453  1.0000
  O   O27       1.0  0.41742  0.82539  0.28547  1.0000
  O   O28       1.0  0.58258  0.17461  0.28547  1.0000
  O   O29       1.0  0.71453  0.58258  0.82539  1.0000
  O   O30       1.0  0.71453  0.41742  0.17461  1.0000
  O   O31       1.0  0.28547  0.41742  0.82539  1.0000
  O   O32       1.0  0.28547  0.58258  0.17461  1.0000
  O   O33       1.0  0.82539  0.71453  0.58258  1.0000
  O   O34       1.0  0.17461  0.71453  0.41742  1.0000
  O   O35       1.0  0.82539  0.28547  0.41742  1.0000
  O   O36       1.0  0.17461  0.28547  0.58258  1.0000
  O   O37       1.0  0.82539  0.58258  0.28547  1.0000
  O   O38       1.0  0.17461  0.41742  0.28547  1.0000
  O   O39       1.0  0.82539  0.41742  0.71453  1.0000
  O   O40       1.0  0.17461  0.58258  0.71453  1.0000
  O   O41       1.0  0.58258  0.71453  0.17461  1.0000
  O   O42       1.0  0.41742  0.71453  0.82539  1.0000
  O   O43       1.0  0.41742  0.28547  0.17461  1.0000
  O   O44       1.0  0.58258  0.28547  0.82539  1.0000
  O   O45       1.0  0.71453  0.82539  0.41742  1.0000
  O   O46       1.0  0.71453  0.17461  0.58258  1.0000
  O   O47       1.0  0.28547  0.82539  0.58258  1.0000
  O   O48       1.0  0.28547  0.17461  0.41742  1.0000
  O   O49       1.0  0.91742  0.67461  0.78547  1.0000
  O   O50       1.0  0.08258  0.32539  0.78547  1.0000
  O   O51       1.0  0.08258  0.67461  0.21453  1.0000
  O   O52       1.0  0.91742  0.32539  0.21453  1.0000
  O   O53       1.0  0.78547  0.91742  0.67461  1.0000
  O   O54       1.0  0.78547  0.08258  0.32539  1.0000
  O   O55       1.0  0.21453  0.08258  0.67461  1.0000
  O   O56       1.0  0.21453  0.91742  0.32539  1.0000
  O   O57       1.0  0.67461  0.78547  0.91742  1.0000
  O   O58       1.0  0.32539  0.78547  0.08258  1.0000
  O   O59       1.0  0.67461  0.21453  0.08258  1.0000
  O   O60       1.0  0.32539  0.21453  0.91742  1.0000
  O   O61       1.0  0.67461  0.91742  0.21453  1.0000
  O   O62       1.0  0.32539  0.08258  0.21453  1.0000
  O   O63       1.0  0.67461  0.08258  0.78547  1.0000
  O   O64       1.0  0.32539  0.91742  0.78547  1.0000
  O   O65       1.0  0.91742  0.78547  0.32539  1.0000
  O   O66       1.0  0.08258  0.78547  0.67461  1.0000
  O   O67       1.0  0.08258  0.21453  0.32539  1.0000
  O   O68       1.0  0.91742  0.21453  0.67461  1.0000
  O   O69       1.0  0.78547  0.67461  0.08258  1.0000
  O   O70       1.0  0.78547  0.32539  0.91742  1.0000
  O   O71       1.0  0.21453  0.67461  0.91742  1.0000
  O   O72       1.0  0.21453  0.32539  0.08258  1.0000
  O   O73       1.0  0.41742  0.17461  0.28547  1.0000
  O   O74       1.0  0.58258  0.82539  0.28547  1.0000
  O   O75       1.0  0.58258  0.17461  0.71453  1.0000
  O   O76       1.0  0.41742  0.82539  0.71453  1.0000
  O   O77       1.0  0.28547  0.41742  0.17461  1.0000
  O   O78       1.0  0.28547  0.58258  0.82539  1.0000
  O   O79       1.0  0.71453  0.58258  0.17461  1.0000
  O   O80       1.0  0.71453  0.41742  0.82539  1.0000
  O   O81       1.0  0.17461  0.28547  0.41742  1.0000
  O   O82       1.0  0.82539  0.28547  0.58258  1.0000
  O   O83       1.0  0.17461  0.71453  0.58258  1.0000
  O   O84       1.0  0.82539  0.71453  0.41742  1.0000
  O   O85       1.0  0.17461  0.41742  0.71453  1.0000
  O   O86       1.0  0.82539  0.58258  0.71453  1.0000
  O   O87       1.0  0.17461  0.58258  0.28547  1.0000
  O   O88       1.0  0.82539  0.41742  0.28547  1.0000
  O   O89       1.0  0.41742  0.28547  0.82539  1.0000
  O   O90       1.0  0.58258  0.28547  0.17461  1.0000
  O   O91       1.0  0.58258  0.71453  0.82539  1.0000
  O   O92       1.0  0.41742  0.71453  0.17461  1.0000
  O   O93       1.0  0.28547  0.17461  0.58258  1.0000
  O   O94       1.0  0.28547  0.82539  0.41742  1.0000
  O   O95       1.0  0.71453  0.17461  0.41742  1.0000
  O   O96       1.0  0.71453  0.82539  0.58258  1.0000
  O   O97       1.0  0.10230  0.28211  0.16034  1.0000
  O   O98       1.0  0.89770  0.71789  0.16034  1.0000
  O   O99       1.0  0.89770  0.28211  0.83966  1.0000
  O   O100      1.0  0.10230  0.71789  0.83966  1.0000
  O   O101      1.0  0.16034  0.10230  0.28211  1.0000
  O   O102      1.0  0.16034  0.89770  0.71789  1.0000
  O   O103      1.0  0.83966  0.89770  0.28211  1.0000
  O   O104      1.0  0.83966  0.10230  0.71789  1.0000
  O   O105      1.0  0.28211  0.16034  0.10230  1.0000
  O   O106      1.0  0.71789  0.16034  0.89770  1.0000
  O   O107      1.0  0.28211  0.83966  0.89770  1.0000
  O   O108      1.0  0.71789  0.83966  0.10230  1.0000
  O   O109      1.0  0.28211  0.10230  0.83966  1.0000
  O   O110      1.0  0.71789  0.89770  0.83966  1.0000
  O   O111      1.0  0.28211  0.89770  0.16034  1.0000
  O   O112      1.0  0.71789  0.10230  0.16034  1.0000
  O   O113      1.0  0.10230  0.16034  0.71789  1.0000
  O   O114      1.0  0.89770  0.16034  0.28211  1.0000
  O   O115      1.0  0.89770  0.83966  0.71789  1.0000
  O   O116      1.0  0.10230  0.83966  0.28211  1.0000
  O   O117      1.0  0.16034  0.28211  0.89770  1.0000
  O   O118      1.0  0.16034  0.71789  0.10230  1.0000
  O   O119      1.0  0.83966  0.28211  0.10230  1.0000
  O   O120      1.0  0.83966  0.71789  0.89770  1.0000
  O   O121      1.0  0.60230  0.78211  0.66034  1.0000
  O   O122      1.0  0.39770  0.21789  0.66034  1.0000
  O   O123      1.0  0.39770  0.78211  0.33966  1.0000
  O   O124      1.0  0.60230  0.21789  0.33966  1.0000
  O   O125      1.0  0.66034  0.60230  0.78211  1.0000
  O   O126      1.0  0.66034  0.39770  0.21789  1.0000
  O   O127      1.0  0.33966  0.39770  0.78211  1.0000
  O   O128      1.0  0.33966  0.60230  0.21789  1.0000
  O   O129      1.0  0.78211  0.66034  0.60230  1.0000
  O   O130      1.0  0.21789  0.66034  0.39770  1.0000
  O   O131      1.0  0.78211  0.33966  0.39770  1.0000
  O   O132      1.0  0.21789  0.33966  0.60230  1.0000
  O   O133      1.0  0.78211  0.60230  0.33966  1.0000
  O   O134      1.0  0.21789  0.39770  0.33966  1.0000
  O   O135      1.0  0.78211  0.39770  0.66034  1.0000
  O   O136      1.0  0.21789  0.60230  0.66034  1.0000
  O   O137      1.0  0.60230  0.66034  0.21789  1.0000
  O   O138      1.0  0.39770  0.66034  0.78211  1.0000
  O   O139      1.0  0.39770  0.33966  0.21789  1.0000
  O   O140      1.0  0.60230  0.33966  0.78211  1.0000
  O   O141      1.0  0.66034  0.78211  0.39770  1.0000
  O   O142      1.0  0.66034  0.21789  0.60230  1.0000
  O   O143      1.0  0.33966  0.78211  0.60230  1.0000
  O   O144      1.0  0.33966  0.21789  0.39770  1.0000
  O   O145      1.0  0.89770  0.71789  0.83966  1.0000
  O   O146      1.0  0.10230  0.28211  0.83966  1.0000
  O   O147      1.0  0.10230  0.71789  0.16034  1.0000
  O   O148      1.0  0.89770  0.28211  0.16034  1.0000
  O   O149      1.0  0.83966  0.89770  0.71789  1.0000
  O   O150      1.0  0.83966  0.10230  0.28211  1.0000
  O   O151      1.0  0.16034  0.10230  0.71789  1.0000
  O   O152      1.0  0.16034  0.89770  0.28211  1.0000
  O   O153      1.0  0.71789  0.83966  0.89770  1.0000
  O   O154      1.0  0.28211  0.83966  0.10230  1.0000
  O   O155      1.0  0.71789  0.16034  0.10230  1.0000
  O   O156      1.0  0.28211  0.16034  0.89770  1.0000
  O   O157      1.0  0.71789  0.89770  0.16034  1.0000
  O   O158      1.0  0.28211  0.10230  0.16034  1.0000
  O   O159      1.0  0.71789  0.10230  0.83966  1.0000
  O   O160      1.0  0.28211  0.89770  0.83966  1.0000
  O   O161      1.0  0.89770  0.83966  0.28211  1.0000
  O   O162      1.0  0.10230  0.83966  0.71789  1.0000
  O   O163      1.0  0.10230  0.16034  0.28211  1.0000
  O   O164      1.0  0.89770  0.16034  0.71789  1.0000
  O   O165      1.0  0.83966  0.71789  0.10230  1.0000
  O   O166      1.0  0.83966  0.28211  0.89770  1.0000
  O   O167      1.0  0.16034  0.71789  0.89770  1.0000
  O   O168      1.0  0.16034  0.28211  0.10230  1.0000
  O   O169      1.0  0.39770  0.21789  0.33966  1.0000
  O   O170      1.0  0.60230  0.78211  0.33966  1.0000
  O   O171      1.0  0.60230  0.21789  0.66034  1.0000
  O   O172      1.0  0.39770  0.78211  0.66034  1.0000
  O   O173      1.0  0.33966  0.39770  0.21789  1.0000
  O   O174      1.0  0.33966  0.60230  0.78211  1.0000
  O   O175      1.0  0.66034  0.60230  0.21789  1.0000
  O   O176      1.0  0.66034  0.39770  0.78211  1.0000
  O   O177      1.0  0.21789  0.33966  0.39770  1.0000
  O   O178      1.0  0.78211  0.33966  0.60230  1.0000
  O   O179      1.0  0.21789  0.66034  0.60230  1.0000
  O   O180      1.0  0.78211  0.66034  0.39770  1.0000
  O   O181      1.0  0.21789  0.39770  0.66034  1.0000
  O   O182      1.0  0.78211  0.60230  0.66034  1.0000
  O   O183      1.0  0.21789  0.60230  0.33966  1.0000
  O   O184      1.0  0.78211  0.39770  0.33966  1.0000
  O   O185      1.0  0.39770  0.33966  0.78211  1.0000
  O   O186      1.0  0.60230  0.33966  0.21789  1.0000
  O   O187      1.0  0.60230  0.66034  0.78211  1.0000
  O   O188      1.0  0.39770  0.66034  0.21789  1.0000
  O   O189      1.0  0.33966  0.21789  0.60230  1.0000
  O   O190      1.0  0.33966  0.78211  0.39770  1.0000
  O   O191      1.0  0.66034  0.21789  0.39770  1.0000
  O   O192      1.0  0.66034  0.78211  0.60230  1.0000
  N   N97       1.0  0.10498  0.46446  0.23328  1.0000
  N   N98       1.0  0.89502  0.53554  0.23328  1.0000
  N   N99       1.0  0.89502  0.46446  0.76672  1.0000
  N   N100      1.0  0.10498  0.53554  0.76672  1.0000
  N   N101      1.0  0.23328  0.10498  0.46446  1.0000
  N   N102      1.0  0.23328  0.89502  0.53554  1.0000
  N   N103      1.0  0.76672  0.89502  0.46446  1.0000
  N   N104      1.0  0.76672  0.10498  0.53554  1.0000
  N   N105      1.0  0.46446  0.23328  0.10498  1.0000
  N   N106      1.0  0.53554  0.23328  0.89502  1.0000
  N   N107      1.0  0.46446  0.76672  0.89502  1.0000
  N   N108      1.0  0.53554  0.76672  0.10498  1.0000
  N   N109      1.0  0.46446  0.10498  0.76672  1.0000
  N   N110      1.0  0.53554  0.89502  0.76672  1.0000
  N   N111      1.0  0.46446  0.89502  0.23328  1.0000
  N   N112      1.0  0.53554  0.10498  0.23328  1.0000
  N   N113      1.0  0.10498  0.23328  0.53554  1.0000
  N   N114      1.0  0.89502  0.23328  0.46446  1.0000
  N   N115      1.0  0.89502  0.76672  0.53554  1.0000
  N   N116      1.0  0.10498  0.76672  0.46446  1.0000
  N   N117      1.0  0.23328  0.46446  0.89502  1.0000
  N   N118      1.0  0.23328  0.53554  0.10498  1.0000
  N   N119      1.0  0.76672  0.46446  0.10498  1.0000
  N   N120      1.0  0.76672  0.53554  0.89502  1.0000
  N   N121      1.0  0.60498  0.96446  0.73328  1.0000
  N   N122      1.0  0.39502  0.03554  0.73328  1.0000
  N   N123      1.0  0.39502  0.96446  0.26672  1.0000
  N   N124      1.0  0.60498  0.03554  0.26672  1.0000
  N   N125      1.0  0.73328  0.60498  0.96446  1.0000
  N   N126      1.0  0.73328  0.39502  0.03554  1.0000
  N   N127      1.0  0.26672  0.39502  0.96446  1.0000
  N   N128      1.0  0.26672  0.60498  0.03554  1.0000
  N   N129      1.0  0.96446  0.73328  0.60498  1.0000
  N   N130      1.0  0.03554  0.73328  0.39502  1.0000
  N   N131      1.0  0.96446  0.26672  0.39502  1.0000
  N   N132      1.0  0.03554  0.26672  0.60498  1.0000
  N   N133      1.0  0.96446  0.60498  0.26672  1.0000
  N   N134      1.0  0.03554  0.39502  0.26672  1.0000
  N   N135      1.0  0.96446  0.39502  0.73328  1.0000
  N   N136      1.0  0.03554  0.60498  0.73328  1.0000
  N   N137      1.0  0.60498  0.73328  0.03554  1.0000
  N   N138      1.0  0.39502  0.73328  0.96446  1.0000
  N   N139      1.0  0.39502  0.26672  0.03554  1.0000
  N   N140      1.0  0.60498  0.26672  0.96446  1.0000
  N   N141      1.0  0.73328  0.96446  0.39502  1.0000
  N   N142      1.0  0.73328  0.03554  0.60498  1.0000
  N   N143      1.0  0.26672  0.96446  0.60498  1.0000
  N   N144      1.0  0.26672  0.03554  0.39502  1.0000
  N   N145      1.0  0.89502  0.53554  0.76672  1.0000
  N   N146      1.0  0.10498  0.46446  0.76672  1.0000
  N   N147      1.0  0.10498  0.53554  0.23328  1.0000
  N   N148      1.0  0.89502  0.46446  0.23328  1.0000
  N   N149      1.0  0.76672  0.89502  0.53554  1.0000
  N   N150      1.0  0.76672  0.10498  0.46446  1.0000
  N   N151      1.0  0.23328  0.10498  0.53554  1.0000
  N   N152      1.0  0.23328  0.89502  0.46446  1.0000
  N   N153      1.0  0.53554  0.76672  0.89502  1.0000
  N   N154      1.0  0.46446  0.76672  0.10498  1.0000
  N   N155      1.0  0.53554  0.23328  0.10498  1.0000
  N   N156      1.0  0.46446  0.23328  0.89502  1.0000
  N   N157      1.0  0.53554  0.89502  0.23328  1.0000
  N   N158      1.0  0.46446  0.10498  0.23328  1.0000
  N   N159      1.0  0.53554  0.10498  0.76672  1.0000
  N   N160      1.0  0.46446  0.89502  0.76672  1.0000
  N   N161      1.0  0.89502  0.76672  0.46446  1.0000
  N   N162      1.0  0.10498  0.76672  0.53554  1.0000
  N   N163      1.0  0.10498  0.23328  0.46446  1.0000
  N   N164      1.0  0.89502  0.23328  0.53554  1.0000
  N   N165      1.0  0.76672  0.53554  0.10498  1.0000
  N   N166      1.0  0.76672  0.46446  0.89502  1.0000
  N   N167      1.0  0.23328  0.53554  0.89502  1.0000
  N   N168      1.0  0.23328  0.46446  0.10498  1.0000
  N   N169      1.0  0.39502  0.03554  0.26672  1.0000
  N   N170      1.0  0.60498  0.96446  0.26672  1.0000
  N   N171      1.0  0.60498  0.03554  0.73328  1.0000
  N   N172      1.0  0.39502  0.96446  0.73328  1.0000
  N   N173      1.0  0.26672  0.39502  0.03554  1.0000
  N   N174      1.0  0.26672  0.60498  0.96446  1.0000
  N   N175      1.0  0.73328  0.60498  0.03554  1.0000
  N   N176      1.0  0.73328  0.39502  0.96446  1.0000
  N   N177      1.0  0.03554  0.26672  0.39502  1.0000
  N   N178      1.0  0.96446  0.26672  0.60498  1.0000
  N   N179      1.0  0.03554  0.73328  0.60498  1.0000
  N   N180      1.0  0.96446  0.73328  0.39502  1.0000
  N   N181      1.0  0.03554  0.39502  0.73328  1.0000
  N   N182      1.0  0.96446  0.60498  0.73328  1.0000
  N   N183      1.0  0.03554  0.60498  0.26672  1.0000
  N   N184      1.0  0.96446  0.39502  0.26672  1.0000
  N   N185      1.0  0.39502  0.26672  0.96446  1.0000
  N   N186      1.0  0.60498  0.26672  0.03554  1.0000
  N   N187      1.0  0.60498  0.73328  0.96446  1.0000
  N   N188      1.0  0.39502  0.73328  0.03554  1.0000
  N   N189      1.0  0.26672  0.03554  0.60498  1.0000
  N   N190      1.0  0.26672  0.96446  0.39502  1.0000
  N   N191      1.0  0.73328  0.03554  0.39502  1.0000
  N   N192      1.0  0.73328  0.96446  0.60498  1.0000
  C   C241      1.0  0.08593  0.47789  0.19586  1.0000
  C   C242      1.0  0.91407  0.52211  0.19586  1.0000
  C   C243      1.0  0.91407  0.47789  0.80414  1.0000
  C   C244      1.0  0.08593  0.52211  0.80414  1.0000
  C   C245      1.0  0.19586  0.08593  0.47789  1.0000
  C   C246      1.0  0.19586  0.91407  0.52211  1.0000
  C   C247      1.0  0.80414  0.91407  0.47789  1.0000
  C   C248      1.0  0.80414  0.08593  0.52211  1.0000
  C   C249      1.0  0.47789  0.19586  0.08593  1.0000
  C   C250      1.0  0.52211  0.19586  0.91407  1.0000
  C   C251      1.0  0.47789  0.80414  0.91407  1.0000
  C   C252      1.0  0.52211  0.80414  0.08593  1.0000
  C   C253      1.0  0.47789  0.08593  0.80414  1.0000
  C   C254      1.0  0.52211  0.91407  0.80414  1.0000
  C   C255      1.0  0.47789  0.91407  0.19586  1.0000
  C   C256      1.0  0.52211  0.08593  0.19586  1.0000
  C   C257      1.0  0.08593  0.19586  0.52211  1.0000
  C   C258      1.0  0.91407  0.19586  0.47789  1.0000
  C   C259      1.0  0.91407  0.80414  0.52211  1.0000
  C   C260      1.0  0.08593  0.80414  0.47789  1.0000
  C   C261      1.0  0.19586  0.47789  0.91407  1.0000
  C   C262      1.0  0.19586  0.52211  0.08593  1.0000
  C   C263      1.0  0.80414  0.47789  0.08593  1.0000
  C   C264      1.0  0.80414  0.52211  0.91407  1.0000
  C   C265      1.0  0.58593  0.97789  0.69586  1.0000
  C   C266      1.0  0.41407  0.02211  0.69586  1.0000
  C   C267      1.0  0.41407  0.97789  0.30414  1.0000
  C   C268      1.0  0.58593  0.02211  0.30414  1.0000
  C   C269      1.0  0.69586  0.58593  0.97789  1.0000
  C   C270      1.0  0.69586  0.41407  0.02211  1.0000
  C   C271      1.0  0.30414  0.41407  0.97789  1.0000
  C   C272      1.0  0.30414  0.58593  0.02211  1.0000
  C   C273      1.0  0.97789  0.69586  0.58593  1.0000
  C   C274      1.0  0.02211  0.69586  0.41407  1.0000
  C   C275      1.0  0.97789  0.30414  0.41407  1.0000
  C   C276      1.0  0.02211  0.30414  0.58593  1.0000
  C   C277      1.0  0.97789  0.58593  0.30414  1.0000
  C   C278      1.0  0.02211  0.41407  0.30414  1.0000
  C   C279      1.0  0.97789  0.41407  0.69586  1.0000
  C   C280      1.0  0.02211  0.58593  0.69586  1.0000
  C   C281      1.0  0.58593  0.69586  0.02211  1.0000
  C   C282      1.0  0.41407  0.69586  0.97789  1.0000
  C   C283      1.0  0.41407  0.30414  0.02211  1.0000
  C   C284      1.0  0.58593  0.30414  0.97789  1.0000
  C   C285      1.0  0.69586  0.97789  0.41407  1.0000
  C   C286      1.0  0.69586  0.02211  0.58593  1.0000
  C   C287      1.0  0.30414  0.97789  0.58593  1.0000
  C   C288      1.0  0.30414  0.02211  0.41407  1.0000
  C   C289      1.0  0.91407  0.52211  0.80414  1.0000
  C   C290      1.0  0.08593  0.47789  0.80414  1.0000
  C   C291      1.0  0.08593  0.52211  0.19586  1.0000
  C   C292      1.0  0.91407  0.47789  0.19586  1.0000
  C   C293      1.0  0.80414  0.91407  0.52211  1.0000
  C   C294      1.0  0.80414  0.08593  0.47789  1.0000
  C   C295      1.0  0.19586  0.08593  0.52211  1.0000
  C   C296      1.0  0.19586  0.91407  0.47789  1.0000
  C   C297      1.0  0.52211  0.80414  0.91407  1.0000
  C   C298      1.0  0.47789  0.80414  0.08593  1.0000
  C   C299      1.0  0.52211  0.19586  0.08593  1.0000
  C   C300      1.0  0.47789  0.19586  0.91407  1.0000
  C   C301      1.0  0.52211  0.91407  0.19586  1.0000
  C   C302      1.0  0.47789  0.08593  0.19586  1.0000
  C   C303      1.0  0.52211  0.08593  0.80414  1.0000
  C   C304      1.0  0.47789  0.91407  0.80414  1.0000
  C   C305      1.0  0.91407  0.80414  0.47789  1.0000
  C   C306      1.0  0.08593  0.80414  0.52211  1.0000
  C   C307      1.0  0.08593  0.19586  0.47789  1.0000
  C   C308      1.0  0.91407  0.19586  0.52211  1.0000
  C   C309      1.0  0.80414  0.52211  0.08593  1.0000
  C   C310      1.0  0.80414  0.47789  0.91407  1.0000
  C   C311      1.0  0.19586  0.52211  0.91407  1.0000
  C   C312      1.0  0.19586  0.47789  0.08593  1.0000
  C   C313      1.0  0.41407  0.02211  0.30414  1.0000
  C   C314      1.0  0.58593  0.97789  0.30414  1.0000
  C   C315      1.0  0.58593  0.02211  0.69586  1.0000
  C   C316      1.0  0.41407  0.97789  0.69586  1.0000
  C   C317      1.0  0.30414  0.41407  0.02211  1.0000
  C   C318      1.0  0.30414  0.58593  0.97789  1.0000
  C   C319      1.0  0.69586  0.58593  0.02211  1.0000
  C   C320      1.0  0.69586  0.41407  0.97789  1.0000
  C   C321      1.0  0.02211  0.30414  0.41407  1.0000
  C   C322      1.0  0.97789  0.30414  0.58593  1.0000
  C   C323      1.0  0.02211  0.69586  0.58593  1.0000
  C   C324      1.0  0.97789  0.69586  0.41407  1.0000
  C   C325      1.0  0.02211  0.41407  0.69586  1.0000
  C   C326      1.0  0.97789  0.58593  0.69586  1.0000
  C   C327      1.0  0.02211  0.58593  0.30414  1.0000
  C   C328      1.0  0.97789  0.41407  0.30414  1.0000
  C   C329      1.0  0.41407  0.30414  0.97789  1.0000
  C   C330      1.0  0.58593  0.30414  0.02211  1.0000
  C   C331      1.0  0.58593  0.69586  0.97789  1.0000
  C   C332      1.0  0.41407  0.69586  0.02211  1.0000
  C   C333      1.0  0.30414  0.02211  0.58593  1.0000
  C   C334      1.0  0.30414  0.97789  0.41407  1.0000
  C   C335      1.0  0.69586  0.02211  0.41407  1.0000
  C   C336      1.0  0.69586  0.97789  0.58593  1.0000
  O   O193      1.0  0.06846  0.40778  0.17593  1.0000
  O   O194      1.0  0.93154  0.59222  0.17593  1.0000
  O   O195      1.0  0.93154  0.40778  0.82407  1.0000
  O   O196      1.0  0.06846  0.59222  0.82407  1.0000
  O   O197      1.0  0.17593  0.06846  0.40778  1.0000
  O   O198      1.0  0.17593  0.93154  0.59222  1.0000
  O   O199      1.0  0.82407  0.93154  0.40778  1.0000
  O   O200      1.0  0.82407  0.06846  0.59222  1.0000
  O   O201      1.0  0.40778  0.17593  0.06846  1.0000
  O   O202      1.0  0.59222  0.17593  0.93154  1.0000
  O   O203      1.0  0.40778  0.82407  0.93154  1.0000
  O   O204      1.0  0.59222  0.82407  0.06846  1.0000
  O   O205      1.0  0.40778  0.06846  0.82407  1.0000
  O   O206      1.0  0.59222  0.93154  0.82407  1.0000
  O   O207      1.0  0.40778  0.93154  0.17593  1.0000
  O   O208      1.0  0.59222  0.06846  0.17593  1.0000
  O   O209      1.0  0.06846  0.17593  0.59222  1.0000
  O   O210      1.0  0.93154  0.17593  0.40778  1.0000
  O   O211      1.0  0.93154  0.82407  0.59222  1.0000
  O   O212      1.0  0.06846  0.82407  0.40778  1.0000
  O   O213      1.0  0.17593  0.40778  0.93154  1.0000
  O   O214      1.0  0.17593  0.59222  0.06846  1.0000
  O   O215      1.0  0.82407  0.40778  0.06846  1.0000
  O   O216      1.0  0.82407  0.59222  0.93154  1.0000
  O   O217      1.0  0.56846  0.90778  0.67593  1.0000
  O   O218      1.0  0.43154  0.09222  0.67593  1.0000
  O   O219      1.0  0.43154  0.90778  0.32407  1.0000
  O   O220      1.0  0.56846  0.09222  0.32407  1.0000
  O   O221      1.0  0.67593  0.56846  0.90778  1.0000
  O   O222      1.0  0.67593  0.43154  0.09222  1.0000
  O   O223      1.0  0.32407  0.43154  0.90778  1.0000
  O   O224      1.0  0.32407  0.56846  0.09222  1.0000
  O   O225      1.0  0.90778  0.67593  0.56846  1.0000
  O   O226      1.0  0.09222  0.67593  0.43154  1.0000
  O   O227      1.0  0.90778  0.32407  0.43154  1.0000
  O   O228      1.0  0.09222  0.32407  0.56846  1.0000
  O   O229      1.0  0.90778  0.56846  0.32407  1.0000
  O   O230      1.0  0.09222  0.43154  0.32407  1.0000
  O   O231      1.0  0.90778  0.43154  0.67593  1.0000
  O   O232      1.0  0.09222  0.56846  0.67593  1.0000
  O   O233      1.0  0.56846  0.67593  0.09222  1.0000
  O   O234      1.0  0.43154  0.67593  0.90778  1.0000
  O   O235      1.0  0.43154  0.32407  0.09222  1.0000
  O   O236      1.0  0.56846  0.32407  0.90778  1.0000
  O   O237      1.0  0.67593  0.90778  0.43154  1.0000
  O   O238      1.0  0.67593  0.09222  0.56846  1.0000
  O   O239      1.0  0.32407  0.90778  0.56846  1.0000
  O   O240      1.0  0.32407  0.09222  0.43154  1.0000
  O   O241      1.0  0.93154  0.59222  0.82407  1.0000
  O   O242      1.0  0.06846  0.40778  0.82407  1.0000
  O   O243      1.0  0.06846  0.59222  0.17593  1.0000
  O   O244      1.0  0.93154  0.40778  0.17593  1.0000
  O   O245      1.0  0.82407  0.93154  0.59222  1.0000
  O   O246      1.0  0.82407  0.06846  0.40778  1.0000
  O   O247      1.0  0.17593  0.06846  0.59222  1.0000
  O   O248      1.0  0.17593  0.93154  0.40778  1.0000
  O   O249      1.0  0.59222  0.82407  0.93154  1.0000
  O   O250      1.0  0.40778  0.82407  0.06846  1.0000
  O   O251      1.0  0.59222  0.17593  0.06846  1.0000
  O   O252      1.0  0.40778  0.17593  0.93154  1.0000
  O   O253      1.0  0.59222  0.93154  0.17593  1.0000
  O   O254      1.0  0.40778  0.06846  0.17593  1.0000
  O   O255      1.0  0.59222  0.06846  0.82407  1.0000
  O   O256      1.0  0.40778  0.93154  0.82407  1.0000
  O   O257      1.0  0.93154  0.82407  0.40778  1.0000
  O   O258      1.0  0.06846  0.82407  0.59222  1.0000
  O   O259      1.0  0.06846  0.17593  0.40778  1.0000
  O   O260      1.0  0.93154  0.17593  0.59222  1.0000
  O   O261      1.0  0.82407  0.59222  0.06846  1.0000
  O   O262      1.0  0.82407  0.40778  0.93154  1.0000
  O   O263      1.0  0.17593  0.59222  0.93154  1.0000
  O   O264      1.0  0.17593  0.40778  0.06846  1.0000
  O   O265      1.0  0.43154  0.09222  0.32407  1.0000
  O   O266      1.0  0.56846  0.90778  0.32407  1.0000
  O   O267      1.0  0.56846  0.09222  0.67593  1.0000
  O   O268      1.0  0.43154  0.90778  0.67593  1.0000
  O   O269      1.0  0.32407  0.43154  0.09222  1.0000
  O   O270      1.0  0.32407  0.56846  0.90778  1.0000
  O   O271      1.0  0.67593  0.56846  0.09222  1.0000
  O   O272      1.0  0.67593  0.43154  0.90778  1.0000
  O   O273      1.0  0.09222  0.32407  0.43154  1.0000
  O   O274      1.0  0.90778  0.32407  0.56846  1.0000
  O   O275      1.0  0.09222  0.67593  0.56846  1.0000
  O   O276      1.0  0.90778  0.67593  0.43154  1.0000
  O   O277      1.0  0.09222  0.43154  0.67593  1.0000
  O   O278      1.0  0.90778  0.56846  0.67593  1.0000
  O   O279      1.0  0.09222  0.56846  0.32407  1.0000
  O   O280      1.0  0.90778  0.43154  0.32407  1.0000
  O   O281      1.0  0.43154  0.32407  0.90778  1.0000
  O   O282      1.0  0.56846  0.32407  0.09222  1.0000
  O   O283      1.0  0.56846  0.67593  0.90778  1.0000
  O   O284      1.0  0.43154  0.67593  0.09222  1.0000
  O   O285      1.0  0.32407  0.09222  0.56846  1.0000
  O   O286      1.0  0.32407  0.90778  0.43154  1.0000
  O   O287      1.0  0.67593  0.09222  0.43154  1.0000
  O   O288      1.0  0.67593  0.90778  0.56846  1.0000
  O   O289      1.0  0.05273  0.45980  0.12966  1.0000
  O   O290      1.0  0.94727  0.54020  0.12966  1.0000
  O   O291      1.0  0.94727  0.45980  0.87034  1.0000
  O   O292      1.0  0.05273  0.54020  0.87034  1.0000
  O   O293      1.0  0.12966  0.05273  0.45980  1.0000
  O   O294      1.0  0.12966  0.94727  0.54020  1.0000
  O   O295      1.0  0.87034  0.94727  0.45980  1.0000
  O   O296      1.0  0.87034  0.05273  0.54020  1.0000
  O   O297      1.0  0.45980  0.12966  0.05273  1.0000
  O   O298      1.0  0.54020  0.12966  0.94727  1.0000
  O   O299      1.0  0.45980  0.87034  0.94727  1.0000
  O   O300      1.0  0.54020  0.87034  0.05273  1.0000
  O   O301      1.0  0.45980  0.05273  0.87034  1.0000
  O   O302      1.0  0.54020  0.94727  0.87034  1.0000
  O   O303      1.0  0.45980  0.94727  0.12966  1.0000
  O   O304      1.0  0.54020  0.05273  0.12966  1.0000
  O   O305      1.0  0.05273  0.12966  0.54020  1.0000
  O   O306      1.0  0.94727  0.12966  0.45980  1.0000
  O   O307      1.0  0.94727  0.87034  0.54020  1.0000
  O   O308      1.0  0.05273  0.87034  0.45980  1.0000
  O   O309      1.0  0.12966  0.45980  0.94727  1.0000
  O   O310      1.0  0.12966  0.54020  0.05273  1.0000
  O   O311      1.0  0.87034  0.45980  0.05273  1.0000
  O   O312      1.0  0.87034  0.54020  0.94727  1.0000
  O   O313      1.0  0.55273  0.95980  0.62966  1.0000
  O   O314      1.0  0.44727  0.04020  0.62966  1.0000
  O   O315      1.0  0.44727  0.95980  0.37034  1.0000
  O   O316      1.0  0.55273  0.04020  0.37034  1.0000
  O   O317      1.0  0.62966  0.55273  0.95980  1.0000
  O   O318      1.0  0.62966  0.44727  0.04020  1.0000
  O   O319      1.0  0.37034  0.44727  0.95980  1.0000
  O   O320      1.0  0.37034  0.55273  0.04020  1.0000
  O   O321      1.0  0.95980  0.62966  0.55273  1.0000
  O   O322      1.0  0.04020  0.62966  0.44727  1.0000
  O   O323      1.0  0.95980  0.37034  0.44727  1.0000
  O   O324      1.0  0.04020  0.37034  0.55273  1.0000
  O   O325      1.0  0.95980  0.55273  0.37034  1.0000
  O   O326      1.0  0.04020  0.44727  0.37034  1.0000
  O   O327      1.0  0.95980  0.44727  0.62966  1.0000
  O   O328      1.0  0.04020  0.55273  0.62966  1.0000
  O   O329      1.0  0.55273  0.62966  0.04020  1.0000
  O   O330      1.0  0.44727  0.62966  0.95980  1.0000
  O   O331      1.0  0.44727  0.37034  0.04020  1.0000
  O   O332      1.0  0.55273  0.37034  0.95980  1.0000
  O   O333      1.0  0.62966  0.95980  0.44727  1.0000
  O   O334      1.0  0.62966  0.04020  0.55273  1.0000
  O   O335      1.0  0.37034  0.95980  0.55273  1.0000
  O   O336      1.0  0.37034  0.04020  0.44727  1.0000
  O   O337      1.0  0.94727  0.54020  0.87034  1.0000
  O   O338      1.0  0.05273  0.45980  0.87034  1.0000
  O   O339      1.0  0.05273  0.54020  0.12966  1.0000
  O   O340      1.0  0.94727  0.45980  0.12966  1.0000
  O   O341      1.0  0.87034  0.94727  0.54020  1.0000
  O   O342      1.0  0.87034  0.05273  0.45980  1.0000
  O   O343      1.0  0.12966  0.05273  0.54020  1.0000
  O   O344      1.0  0.12966  0.94727  0.45980  1.0000
  O   O345      1.0  0.54020  0.87034  0.94727  1.0000
  O   O346      1.0  0.45980  0.87034  0.05273  1.0000
  O   O347      1.0  0.54020  0.12966  0.05273  1.0000
  O   O348      1.0  0.45980  0.12966  0.94727  1.0000
  O   O349      1.0  0.54020  0.94727  0.12966  1.0000
  O   O350      1.0  0.45980  0.05273  0.12966  1.0000
  O   O351      1.0  0.54020  0.05273  0.87034  1.0000
  O   O352      1.0  0.45980  0.94727  0.87034  1.0000
  O   O353      1.0  0.94727  0.87034  0.45980  1.0000
  O   O354      1.0  0.05273  0.87034  0.54020  1.0000
  O   O355      1.0  0.05273  0.12966  0.45980  1.0000
  O   O356      1.0  0.94727  0.12966  0.54020  1.0000
  O   O357      1.0  0.87034  0.54020  0.05273  1.0000
  O   O358      1.0  0.87034  0.45980  0.94727  1.0000
  O   O359      1.0  0.12966  0.54020  0.94727  1.0000
  O   O360      1.0  0.12966  0.45980  0.05273  1.0000
  O   O361      1.0  0.44727  0.04020  0.37034  1.0000
  O   O362      1.0  0.55273  0.95980  0.37034  1.0000
  O   O363      1.0  0.55273  0.04020  0.62966  1.0000
  O   O364      1.0  0.44727  0.95980  0.62966  1.0000
  O   O365      1.0  0.37034  0.44727  0.04020  1.0000
  O   O366      1.0  0.37034  0.55273  0.95980  1.0000
  O   O367      1.0  0.62966  0.55273  0.04020  1.0000
  O   O368      1.0  0.62966  0.44727  0.95980  1.0000
  O   O369      1.0  0.04020  0.37034  0.44727  1.0000
  O   O370      1.0  0.95980  0.37034  0.55273  1.0000
  O   O371      1.0  0.04020  0.62966  0.55273  1.0000
  O   O372      1.0  0.95980  0.62966  0.44727  1.0000
  O   O373      1.0  0.04020  0.44727  0.62966  1.0000
  O   O374      1.0  0.95980  0.55273  0.62966  1.0000
  O   O375      1.0  0.04020  0.55273  0.37034  1.0000
  O   O376      1.0  0.95980  0.44727  0.37034  1.0000
  O   O377      1.0  0.44727  0.37034  0.95980  1.0000
  O   O378      1.0  0.55273  0.37034  0.04020  1.0000
  O   O379      1.0  0.55273  0.62966  0.95980  1.0000
  O   O380      1.0  0.44727  0.62966  0.04020  1.0000
  O   O381      1.0  0.37034  0.04020  0.55273  1.0000
  O   O382      1.0  0.37034  0.95980  0.44727  1.0000
  O   O383      1.0  0.62966  0.04020  0.44727  1.0000
  O   O384      1.0  0.62966  0.95980  0.55273  1.0000
  C   C337      1.0  0.06810  0.44607  0.16549  1.0000
  C   C338      1.0  0.93190  0.55393  0.16549  1.0000
  C   C339      1.0  0.93190  0.44607  0.83451  1.0000
  C   C340      1.0  0.06810  0.55393  0.83451  1.0000
  C   C341      1.0  0.16549  0.06810  0.44607  1.0000
  C   C342      1.0  0.16549  0.93190  0.55393  1.0000
  C   C343      1.0  0.83451  0.93190  0.44607  1.0000
  C   C344      1.0  0.83451  0.06810  0.55393  1.0000
  C   C345      1.0  0.44607  0.16549  0.06810  1.0000
  C   C346      1.0  0.55393  0.16549  0.93190  1.0000
  C   C347      1.0  0.44607  0.83451  0.93190  1.0000
  C   C348      1.0  0.55393  0.83451  0.06810  1.0000
  C   C349      1.0  0.44607  0.06810  0.83451  1.0000
  C   C350      1.0  0.55393  0.93190  0.83451  1.0000
  C   C351      1.0  0.44607  0.93190  0.16549  1.0000
  C   C352      1.0  0.55393  0.06810  0.16549  1.0000
  C   C353      1.0  0.06810  0.16549  0.55393  1.0000
  C   C354      1.0  0.93190  0.16549  0.44607  1.0000
  C   C355      1.0  0.93190  0.83451  0.55393  1.0000
  C   C356      1.0  0.06810  0.83451  0.44607  1.0000
  C   C357      1.0  0.16549  0.44607  0.93190  1.0000
  C   C358      1.0  0.16549  0.55393  0.06810  1.0000
  C   C359      1.0  0.83451  0.44607  0.06810  1.0000
  C   C360      1.0  0.83451  0.55393  0.93190  1.0000
  C   C361      1.0  0.56810  0.94607  0.66549  1.0000
  C   C362      1.0  0.43190  0.05393  0.66549  1.0000
  C   C363      1.0  0.43190  0.94607  0.33451  1.0000
  C   C364      1.0  0.56810  0.05393  0.33451  1.0000
  C   C365      1.0  0.66549  0.56810  0.94607  1.0000
  C   C366      1.0  0.66549  0.43190  0.05393  1.0000
  C   C367      1.0  0.33451  0.43190  0.94607  1.0000
  C   C368      1.0  0.33451  0.56810  0.05393  1.0000
  C   C369      1.0  0.94607  0.66549  0.56810  1.0000
  C   C370      1.0  0.05393  0.66549  0.43190  1.0000
  C   C371      1.0  0.94607  0.33451  0.43190  1.0000
  C   C372      1.0  0.05393  0.33451  0.56810  1.0000
  C   C373      1.0  0.94607  0.56810  0.33451  1.0000
  C   C374      1.0  0.05393  0.43190  0.33451  1.0000
  C   C375      1.0  0.94607  0.43190  0.66549  1.0000
  C   C376      1.0  0.05393  0.56810  0.66549  1.0000
  C   C377      1.0  0.56810  0.66549  0.05393  1.0000
  C   C378      1.0  0.43190  0.66549  0.94607  1.0000
  C   C379      1.0  0.43190  0.33451  0.05393  1.0000
  C   C380      1.0  0.56810  0.33451  0.94607  1.0000
  C   C381      1.0  0.66549  0.94607  0.43190  1.0000
  C   C382      1.0  0.66549  0.05393  0.56810  1.0000
  C   C383      1.0  0.33451  0.94607  0.56810  1.0000
  C   C384      1.0  0.33451  0.05393  0.43190  1.0000
  C   C385      1.0  0.93190  0.55393  0.83451  1.0000
  C   C386      1.0  0.06810  0.44607  0.83451  1.0000
  C   C387      1.0  0.06810  0.55393  0.16549  1.0000
  C   C388      1.0  0.93190  0.44607  0.16549  1.0000
  C   C389      1.0  0.83451  0.93190  0.55393  1.0000
  C   C390      1.0  0.83451  0.06810  0.44607  1.0000
  C   C391      1.0  0.16549  0.06810  0.55393  1.0000
  C   C392      1.0  0.16549  0.93190  0.44607  1.0000
  C   C393      1.0  0.55393  0.83451  0.93190  1.0000
  C   C394      1.0  0.44607  0.83451  0.06810  1.0000
  C   C395      1.0  0.55393  0.16549  0.06810  1.0000
  C   C396      1.0  0.44607  0.16549  0.93190  1.0000
  C   C397      1.0  0.55393  0.93190  0.16549  1.0000
  C   C398      1.0  0.44607  0.06810  0.16549  1.0000
  C   C399      1.0  0.55393  0.06810  0.83451  1.0000
  C   C400      1.0  0.44607  0.93190  0.83451  1.0000
  C   C401      1.0  0.93190  0.83451  0.44607  1.0000
  C   C402      1.0  0.06810  0.83451  0.55393  1.0000
  C   C403      1.0  0.06810  0.16549  0.44607  1.0000
  C   C404      1.0  0.93190  0.16549  0.55393  1.0000
  C   C405      1.0  0.83451  0.55393  0.06810  1.0000
  C   C406      1.0  0.83451  0.44607  0.93190  1.0000
  C   C407      1.0  0.16549  0.55393  0.93190  1.0000
  C   C408      1.0  0.16549  0.44607  0.06810  1.0000
  C   C409      1.0  0.43190  0.05393  0.33451  1.0000
  C   C410      1.0  0.56810  0.94607  0.33451  1.0000
  C   C411      1.0  0.56810  0.05393  0.66549  1.0000
  C   C412      1.0  0.43190  0.94607  0.66549  1.0000
  C   C413      1.0  0.33451  0.43190  0.05393  1.0000
  C   C414      1.0  0.33451  0.56810  0.94607  1.0000
  C   C415      1.0  0.66549  0.56810  0.05393  1.0000
  C   C416      1.0  0.66549  0.43190  0.94607  1.0000
  C   C417      1.0  0.05393  0.33451  0.43190  1.0000
  C   C418      1.0  0.94607  0.33451  0.56810  1.0000
  C   C419      1.0  0.05393  0.66549  0.56810  1.0000
  C   C420      1.0  0.94607  0.66549  0.43190  1.0000
  C   C421      1.0  0.05393  0.43190  0.66549  1.0000
  C   C422      1.0  0.94607  0.56810  0.66549  1.0000
  C   C423      1.0  0.05393  0.56810  0.33451  1.0000
  C   C424      1.0  0.94607  0.43190  0.33451  1.0000
  C   C425      1.0  0.43190  0.33451  0.94607  1.0000
  C   C426      1.0  0.56810  0.33451  0.05393  1.0000
  C   C427      1.0  0.56810  0.66549  0.94607  1.0000
  C   C428      1.0  0.43190  0.66549  0.05393  1.0000
  C   C429      1.0  0.33451  0.05393  0.56810  1.0000
  C   C430      1.0  0.33451  0.94607  0.43190  1.0000
  C   C431      1.0  0.66549  0.05393  0.43190  1.0000
  C   C432      1.0  0.66549  0.94607  0.56810  1.0000
  C   C433      1.0  0.11543  0.50000  0.25472  1.0000
  C   C434      1.0  0.88457  0.50000  0.25472  1.0000
  C   C435      1.0  0.88457  0.50000  0.74528  1.0000
  C   C436      1.0  0.11543  0.50000  0.74528  1.0000
  C   C437      1.0  0.25472  0.11543  0.50000  1.0000
  C   C438      1.0  0.25472  0.88457  0.50000  1.0000
  C   C439      1.0  0.74528  0.88457  0.50000  1.0000
  C   C440      1.0  0.74528  0.11543  0.50000  1.0000
  C   C441      1.0  0.50000  0.25472  0.11543  1.0000
  C   C442      1.0  0.50000  0.25472  0.88457  1.0000
  C   C443      1.0  0.50000  0.74528  0.88457  1.0000
  C   C444      1.0  0.50000  0.74528  0.11543  1.0000
  C   C445      1.0  0.50000  0.11543  0.74528  1.0000
  C   C446      1.0  0.50000  0.88457  0.74528  1.0000
  C   C447      1.0  0.50000  0.88457  0.25472  1.0000
  C   C448      1.0  0.50000  0.11543  0.25472  1.0000
  C   C449      1.0  0.11543  0.25472  0.50000  1.0000
  C   C450      1.0  0.88457  0.25472  0.50000  1.0000
  C   C451      1.0  0.88457  0.74528  0.50000  1.0000
  C   C452      1.0  0.11543  0.74528  0.50000  1.0000
  C   C453      1.0  0.25472  0.50000  0.88457  1.0000
  C   C454      1.0  0.25472  0.50000  0.11543  1.0000
  C   C455      1.0  0.74528  0.50000  0.11543  1.0000
  C   C456      1.0  0.74528  0.50000  0.88457  1.0000
  C   C457      1.0  0.61543  0.00000  0.75472  1.0000
  C   C458      1.0  0.38457  0.00000  0.75472  1.0000
  C   C459      1.0  0.38457  0.00000  0.24528  1.0000
  C   C460      1.0  0.61543  0.00000  0.24528  1.0000
  C   C461      1.0  0.75472  0.61543  0.00000  1.0000
  C   C462      1.0  0.75472  0.38457  0.00000  1.0000
  C   C463      1.0  0.24528  0.38457  0.00000  1.0000
  C   C464      1.0  0.24528  0.61543  0.00000  1.0000
  C   C465      1.0  0.00000  0.75472  0.61543  1.0000
  C   C466      1.0  0.00000  0.75472  0.38457  1.0000
  C   C467      1.0  0.00000  0.24528  0.38457  1.0000
  C   C468      1.0  0.00000  0.24528  0.61543  1.0000
  C   C469      1.0  0.00000  0.61543  0.24528  1.0000
  C   C470      1.0  0.00000  0.38457  0.24528  1.0000
  C   C471      1.0  0.00000  0.38457  0.75472  1.0000
  C   C472      1.0  0.00000  0.61543  0.75472  1.0000
  C   C473      1.0  0.61543  0.75472  0.00000  1.0000
  C   C474      1.0  0.38457  0.75472  0.00000  1.0000
  C   C475      1.0  0.38457  0.24528  0.00000  1.0000
  C   C476      1.0  0.61543  0.24528  0.00000  1.0000
  C   C477      1.0  0.75472  0.00000  0.38457  1.0000
  C   C478      1.0  0.75472  0.00000  0.61543  1.0000
  C   C479      1.0  0.24528  0.00000  0.61543  1.0000
  C   C480      1.0  0.24528  0.00000  0.38457  1.0000
  H   H49       1.0  0.12860  0.50000  0.28170  1.0000
  H   H50       1.0  0.87140  0.50000  0.28170  1.0000
  H   H51       1.0  0.87140  0.50000  0.71830  1.0000
  H   H52       1.0  0.12860  0.50000  0.71830  1.0000
  H   H53       1.0  0.28170  0.12860  0.50000  1.0000
  H   H54       1.0  0.28170  0.87140  0.50000  1.0000
  H   H55       1.0  0.71830  0.87140  0.50000  1.0000
  H   H56       1.0  0.71830  0.12860  0.50000  1.0000
  H   H57       1.0  0.50000  0.28170  0.12860  1.0000
  H   H58       1.0  0.50000  0.28170  0.87140  1.0000
  H   H59       1.0  0.50000  0.71830  0.87140  1.0000
  H   H60       1.0  0.50000  0.71830  0.12860  1.0000
  H   H61       1.0  0.50000  0.12860  0.71830  1.0000
  H   H62       1.0  0.50000  0.87140  0.71830  1.0000
  H   H63       1.0  0.50000  0.87140  0.28170  1.0000
  H   H64       1.0  0.50000  0.12860  0.28170  1.0000
  H   H65       1.0  0.12860  0.28170  0.50000  1.0000
  H   H66       1.0  0.87140  0.28170  0.50000  1.0000
  H   H67       1.0  0.87140  0.71830  0.50000  1.0000
  H   H68       1.0  0.12860  0.71830  0.50000  1.0000
  H   H69       1.0  0.28170  0.50000  0.87140  1.0000
  H   H70       1.0  0.28170  0.50000  0.12860  1.0000
  H   H71       1.0  0.71830  0.50000  0.12860  1.0000
  H   H72       1.0  0.71830  0.50000  0.87140  1.0000
  H   H73       1.0  0.62860  0.00000  0.78170  1.0000
  H   H74       1.0  0.37140  0.00000  0.78170  1.0000
  H   H75       1.0  0.37140  0.00000  0.21830  1.0000
  H   H76       1.0  0.62860  0.00000  0.21830  1.0000
  H   H77       1.0  0.78170  0.62860  0.00000  1.0000
  H   H78       1.0  0.78170  0.37140  0.00000  1.0000
  H   H79       1.0  0.21830  0.37140  0.00000  1.0000
  H   H80       1.0  0.21830  0.62860  0.00000  1.0000
  H   H81       1.0  0.00000  0.78170  0.62860  1.0000
  H   H82       1.0  0.00000  0.78170  0.37140  1.0000
  H   H83       1.0  0.00000  0.21830  0.37140  1.0000
  H   H84       1.0  0.00000  0.21830  0.62860  1.0000
  H   H85       1.0  0.00000  0.62860  0.21830  1.0000
  H   H86       1.0  0.00000  0.37140  0.21830  1.0000
  H   H87       1.0  0.00000  0.37140  0.78170  1.0000
  H   H88       1.0  0.00000  0.62860  0.78170  1.0000
  H   H89       1.0  0.62860  0.78170  0.00000  1.0000
  H   H90       1.0  0.37140  0.78170  0.00000  1.0000
  H   H91       1.0  0.37140  0.21830  0.00000  1.0000
  H   H92       1.0  0.62860  0.21830  0.00000  1.0000
  H   H93       1.0  0.78170  0.00000  0.37140  1.0000
  H   H94       1.0  0.78170  0.00000  0.62860  1.0000
  H   H95       1.0  0.21830  0.00000  0.62860  1.0000
  H   H96       1.0  0.21830  0.00000  0.37140  1.0000
