data_image0
_chemical_formula_structural       C12H4C4H4C8H4C4H4C12H4C8H4C8H4C16H4C4H4C8H4C4H4C16H4C8H4C8H4C16H4C4H4C8H4C4H4C4N4H4N4H4O68Zn16
_chemical_formula_sum              "C156 H80 N8 O68 Zn16"
_cell_length_a       10.3371
_cell_length_b       31.988
_cell_length_c       31.939
_cell_angle_alpha    90
_cell_angle_beta     91.937
_cell_angle_gamma    90

_space_group_name_H-M_alt    "P 1"
_space_group_IT_number       1

loop_
  _space_group_symop_operation_xyz
  'x, y, z'

loop_
  _atom_site_type_symbol
  _atom_site_label
  _atom_site_symmetry_multiplicity
  _atom_site_fract_x
  _atom_site_fract_y
  _atom_site_fract_z
  _atom_site_occupancy
  C   C1        1.0  0.47070  0.88992  0.11218  1.0000
  C   C2        1.0  0.02930  0.38992  0.38782  1.0000
  C   C3        1.0  0.52930  0.11008  0.88782  1.0000
  C   C4        1.0  0.97070  0.61008  0.61218  1.0000
  C   C5        1.0  0.47940  0.92328  0.07864  1.0000
  C   C6        1.0  0.02060  0.42328  0.42136  1.0000
  C   C7        1.0  0.52060  0.07672  0.92136  1.0000
  C   C8        1.0  0.97940  0.57672  0.57864  1.0000
  C   C9        1.0  0.47360  0.91138  0.03656  1.0000
  C   C10       1.0  0.02640  0.41138  0.46344  1.0000
  C   C11       1.0  0.52640  0.08862  0.96344  1.0000
  C   C12       1.0  0.97360  0.58862  0.53656  1.0000
  H   H1        1.0  0.46340  0.88340  0.02910  1.0000
  H   H2        1.0  0.03660  0.38340  0.47090  1.0000
  H   H3        1.0  0.53660  0.11660  0.97090  1.0000
  H   H4        1.0  0.96340  0.61660  0.52910  1.0000
  C   C13       1.0  0.48290  0.94085  0.00726  1.0000
  C   C14       1.0  0.01710  0.44085  0.49274  1.0000
  C   C15       1.0  0.51710  0.05915  0.99274  1.0000
  C   C16       1.0  0.98290  0.55915  0.50726  1.0000
  H   H5        1.0  0.48090  0.93280  0.97930  1.0000
  H   H6        1.0  0.01910  0.43280  0.52070  1.0000
  H   H7        1.0  0.51910  0.06720  0.02070  1.0000
  H   H8        1.0  0.98090  0.56720  0.47930  1.0000
  C   C17       1.0  0.49560  0.98368  0.01701  1.0000
  C   C18       1.0  0.00440  0.48368  0.48299  1.0000
  C   C19       1.0  0.50440  0.01632  0.98299  1.0000
  C   C20       1.0  0.99560  0.51632  0.51701  1.0000
  C   C21       1.0  0.50150  0.99356  0.06066  1.0000
  C   C22       1.0  0.99850  0.49356  0.43934  1.0000
  C   C23       1.0  0.49850  0.00644  0.93934  1.0000
  C   C24       1.0  0.00150  0.50644  0.56066  1.0000
  H   H9        1.0  0.51240  0.02130  0.06870  1.0000
  H   H10       1.0  0.98760  0.52130  0.43130  1.0000
  H   H11       1.0  0.48760  0.97870  0.93130  1.0000
  H   H12       1.0  0.01240  0.47870  0.56870  1.0000
  C   C25       1.0  0.49210  0.96479  0.08988  1.0000
  C   C26       1.0  0.00790  0.46479  0.41012  1.0000
  C   C27       1.0  0.50790  0.03521  0.91012  1.0000
  C   C28       1.0  0.99210  0.53521  0.58988  1.0000
  H   H13       1.0  0.49390  0.97240  0.11800  1.0000
  H   H14       1.0  0.00610  0.47240  0.38200  1.0000
  H   H15       1.0  0.50610  0.02760  0.88200  1.0000
  H   H16       1.0  0.99390  0.52760  0.61800  1.0000
  C   C29       1.0  0.72550  0.77312  0.13040  1.0000
  C   C30       1.0  0.77450  0.27312  0.36960  1.0000
  C   C31       1.0  0.27450  0.22688  0.86960  1.0000
  C   C32       1.0  0.22550  0.72688  0.63040  1.0000
  C   C33       1.0  0.84790  0.76411  0.10869  1.0000
  C   C34       1.0  0.65210  0.26411  0.39131  1.0000
  C   C35       1.0  0.15210  0.23589  0.89131  1.0000
  C   C36       1.0  0.34790  0.73589  0.60869  1.0000
  C   C37       1.0  0.96702  0.76652  0.13137  1.0000
  C   C38       1.0  0.53298  0.26652  0.36863  1.0000
  C   C39       1.0  0.03298  0.23348  0.86863  1.0000
  C   C40       1.0  0.46702  0.73348  0.63137  1.0000
  H   H17       1.0  0.96980  0.77030  0.16030  1.0000
  H   H18       1.0  0.53020  0.27030  0.33970  1.0000
  H   H19       1.0  0.03020  0.22970  0.83970  1.0000
  H   H20       1.0  0.46980  0.72970  0.66030  1.0000
  C   C41       1.0  0.08069  0.76313  0.10928  1.0000
  C   C42       1.0  0.41931  0.26313  0.39072  1.0000
  C   C43       1.0  0.91931  0.23687  0.89072  1.0000
  C   C44       1.0  0.58069  0.73687  0.60928  1.0000
  C   C45       1.0  0.07720  0.75568  0.06657  1.0000
  C   C46       1.0  0.42280  0.25568  0.43343  1.0000
  C   C47       1.0  0.92280  0.24432  0.93343  1.0000
  C   C48       1.0  0.57720  0.74432  0.56657  1.0000
  H   H21       1.0  0.15420  0.75270  0.05260  1.0000
  H   H22       1.0  0.34580  0.25270  0.44740  1.0000
  H   H23       1.0  0.84580  0.24730  0.94740  1.0000
  H   H24       1.0  0.65420  0.74730  0.55260  1.0000
  C   C49       1.0  0.96160  0.75267  0.04464  1.0000
  C   C50       1.0  0.53840  0.25267  0.45536  1.0000
  C   C51       1.0  0.03840  0.24733  0.95536  1.0000
  C   C52       1.0  0.46160  0.74733  0.54464  1.0000
  C   C53       1.0  0.84440  0.75723  0.06555  1.0000
  C   C54       1.0  0.65560  0.25723  0.43445  1.0000
  C   C55       1.0  0.15560  0.24277  0.93445  1.0000
  C   C56       1.0  0.34440  0.74277  0.56555  1.0000
  H   H25       1.0  0.76560  0.75570  0.05070  1.0000
  H   H26       1.0  0.73440  0.25570  0.44930  1.0000
  H   H27       1.0  0.23440  0.24430  0.94930  1.0000
  H   H28       1.0  0.26560  0.74430  0.55070  1.0000
  C   C57       1.0  0.20520  0.76762  0.13321  1.0000
  C   C58       1.0  0.29480  0.26762  0.36679  1.0000
  C   C59       1.0  0.79480  0.23238  0.86679  1.0000
  C   C60       1.0  0.70520  0.73238  0.63321  1.0000
  C   C61       1.0  0.86610  0.74069  0.97431  1.0000
  C   C62       1.0  0.63390  0.24069  0.52569  1.0000
  C   C63       1.0  0.13390  0.25931  0.02569  1.0000
  C   C64       1.0  0.36610  0.75931  0.47431  1.0000
  C   C65       1.0  0.89470  0.73836  0.92870  1.0000
  C   C66       1.0  0.60530  0.23836  0.57130  1.0000
  C   C67       1.0  0.10530  0.26164  0.07130  1.0000
  C   C68       1.0  0.39470  0.76164  0.42870  1.0000
  C   C69       1.0  0.01560  0.72526  0.91452  1.0000
  C   C70       1.0  0.48440  0.22526  0.58548  1.0000
  C   C71       1.0  0.98440  0.27474  0.08548  1.0000
  C   C72       1.0  0.51560  0.77474  0.41452  1.0000
  H   H29       1.0  0.08480  0.72100  0.93340  1.0000
  H   H30       1.0  0.41520  0.22100  0.56660  1.0000
  H   H31       1.0  0.91520  0.27900  0.06660  1.0000
  H   H32       1.0  0.58480  0.77900  0.43340  1.0000
  C   C73       1.0  0.03010  0.71875  0.87167  1.0000
  C   C74       1.0  0.46990  0.21875  0.62833  1.0000
  C   C75       1.0  0.96990  0.28125  0.12833  1.0000
  C   C76       1.0  0.53010  0.78125  0.37167  1.0000
  H   H33       1.0  0.10910  0.70970  0.86190  1.0000
  H   H34       1.0  0.39090  0.20970  0.63810  1.0000
  H   H35       1.0  0.89090  0.29030  0.13810  1.0000
  H   H36       1.0  0.60910  0.79030  0.36190  1.0000
  C   C77       1.0  0.92730  0.72574  0.84379  1.0000
  C   C78       1.0  0.57270  0.22574  0.65621  1.0000
  C   C79       1.0  0.07270  0.27426  0.15621  1.0000
  C   C80       1.0  0.42730  0.77426  0.34379  1.0000
  C   C81       1.0  0.80730  0.73819  0.85813  1.0000
  C   C82       1.0  0.69270  0.23819  0.64187  1.0000
  C   C83       1.0  0.19270  0.26181  0.14187  1.0000
  C   C84       1.0  0.30730  0.76181  0.35813  1.0000
  H   H37       1.0  0.73700  0.74170  0.83950  1.0000
  H   H38       1.0  0.76300  0.24170  0.66050  1.0000
  H   H39       1.0  0.26300  0.25830  0.16050  1.0000
  H   H40       1.0  0.23700  0.75830  0.33950  1.0000
  C   C85       1.0  0.79420  0.74544  0.90165  1.0000
  C   C86       1.0  0.70580  0.24544  0.59835  1.0000
  C   C87       1.0  0.20580  0.25456  0.09835  1.0000
  C   C88       1.0  0.29420  0.75456  0.40165  1.0000
  H   H41       1.0  0.71610  0.75510  0.91150  1.0000
  H   H42       1.0  0.78390  0.25510  0.58850  1.0000
  H   H43       1.0  0.28390  0.24490  0.08850  1.0000
  H   H44       1.0  0.21610  0.74490  0.41150  1.0000
  C   C89       1.0  0.93410  0.71878  0.79722  1.0000
  C   C90       1.0  0.56590  0.21878  0.70278  1.0000
  C   C91       1.0  0.06590  0.28122  0.20278  1.0000
  C   C92       1.0  0.43410  0.78122  0.29722  1.0000
  C   C93       1.0  0.28030  0.37278  0.26946  1.0000
  C   C94       1.0  0.21970  0.87278  0.23054  1.0000
  C   C95       1.0  0.71970  0.62722  0.73054  1.0000
  C   C96       1.0  0.78030  0.12722  0.76946  1.0000
  C   C97       1.0  0.40320  0.39568  0.26196  1.0000
  C   C98       1.0  0.09680  0.89568  0.23804  1.0000
  C   C99       1.0  0.59680  0.60432  0.73804  1.0000
  C   C100      1.0  0.90320  0.10432  0.76196  1.0000
  C   C101      1.0  0.40647  0.43936  0.25531  1.0000
  C   C102      1.0  0.09353  0.93936  0.24469  1.0000
  C   C103      1.0  0.59353  0.56064  0.74469  1.0000
  C   C104      1.0  0.90647  0.06064  0.75531  1.0000
  H   H45       1.0  0.32960  0.45450  0.25340  1.0000
  H   H46       1.0  0.17040  0.95450  0.24660  1.0000
  H   H47       1.0  0.67040  0.54550  0.74660  1.0000
  H   H48       1.0  0.82960  0.04550  0.75340  1.0000
  C   C105      1.0  0.52340  0.45961  0.25159  1.0000
  C   C106      1.0  0.97660  0.95961  0.24841  1.0000
  C   C107      1.0  0.47660  0.54039  0.74841  1.0000
  C   C108      1.0  0.02340  0.04039  0.75159  1.0000
  C   C109      1.0  0.63757  0.43751  0.25293  1.0000
  C   C110      1.0  0.86243  0.93751  0.24707  1.0000
  C   C111      1.0  0.36243  0.56249  0.74707  1.0000
  C   C112      1.0  0.13757  0.06249  0.75293  1.0000
  H   H49       1.0  0.71540  0.45140  0.24930  1.0000
  H   H50       1.0  0.78460  0.95140  0.25070  1.0000
  H   H51       1.0  0.28460  0.54860  0.75070  1.0000
  H   H52       1.0  0.21540  0.04860  0.74930  1.0000
  C   C113      1.0  0.63760  0.39459  0.25970  1.0000
  C   C114      1.0  0.86240  0.89459  0.24030  1.0000
  C   C115      1.0  0.36240  0.60541  0.74030  1.0000
  C   C116      1.0  0.13760  0.10541  0.75970  1.0000
  C   C117      1.0  0.51990  0.37354  0.26323  1.0000
  C   C118      1.0  0.98010  0.87354  0.23677  1.0000
  C   C119      1.0  0.48010  0.62646  0.73677  1.0000
  C   C120      1.0  0.01990  0.12646  0.76323  1.0000
  H   H53       1.0  0.51930  0.34460  0.26640  1.0000
  H   H54       1.0  0.98070  0.84460  0.23360  1.0000
  H   H55       1.0  0.48070  0.65540  0.73360  1.0000
  H   H56       1.0  0.01930  0.15540  0.76640  1.0000
  C   C121      1.0  0.75942  0.37024  0.26403  1.0000
  C   C122      1.0  0.74058  0.87024  0.23597  1.0000
  C   C123      1.0  0.24058  0.62976  0.73597  1.0000
  C   C124      1.0  0.25942  0.12976  0.76403  1.0000
  C   C125      1.0  0.61390  0.52996  0.24092  1.0000
  C   C126      1.0  0.88610  0.02996  0.25908  1.0000
  C   C127      1.0  0.38610  0.47004  0.75908  1.0000
  C   C128      1.0  0.11390  0.97004  0.74092  1.0000
  C   C129      1.0  0.58220  0.57538  0.23706  1.0000
  C   C130      1.0  0.91780  0.07538  0.26294  1.0000
  C   C131      1.0  0.41780  0.42462  0.76294  1.0000
  C   C132      1.0  0.08220  0.92462  0.73706  1.0000
  C   C133      1.0  0.46030  0.59068  0.22617  1.0000
  C   C134      1.0  0.03970  0.09068  0.27383  1.0000
  C   C135      1.0  0.53970  0.40932  0.77383  1.0000
  C   C136      1.0  0.96030  0.90932  0.72617  1.0000
  H   H57       1.0  0.39070  0.57250  0.22240  1.0000
  H   H58       1.0  0.10930  0.07250  0.27760  1.0000
  H   H59       1.0  0.60930  0.42750  0.77760  1.0000
  H   H60       1.0  0.89070  0.92750  0.72240  1.0000
  C   C137      1.0  0.44280  0.63328  0.22092  1.0000
  C   C138      1.0  0.05720  0.13328  0.27908  1.0000
  C   C139      1.0  0.55720  0.36672  0.77908  1.0000
  C   C140      1.0  0.94280  0.86672  0.72092  1.0000
  H   H61       1.0  0.36080  0.64360  0.21390  1.0000
  H   H62       1.0  0.13920  0.14360  0.28610  1.0000
  H   H63       1.0  0.63920  0.35640  0.78610  1.0000
  H   H64       1.0  0.86080  0.85640  0.71390  1.0000
  C   C141      1.0  0.54500  0.66066  0.22596  1.0000
  C   C142      1.0  0.95500  0.16066  0.27404  1.0000
  C   C143      1.0  0.45500  0.33934  0.77404  1.0000
  C   C144      1.0  0.04500  0.83934  0.72596  1.0000
  C   C145      1.0  0.66900  0.64545  0.23716  1.0000
  C   C146      1.0  0.83100  0.14545  0.26284  1.0000
  C   C147      1.0  0.33100  0.35455  0.76284  1.0000
  C   C148      1.0  0.16900  0.85455  0.73716  1.0000
  H   H65       1.0  0.73800  0.66390  0.24110  1.0000
  H   H66       1.0  0.76200  0.16390  0.25890  1.0000
  H   H67       1.0  0.26200  0.33610  0.75890  1.0000
  H   H68       1.0  0.23800  0.83610  0.74110  1.0000
  C   C149      1.0  0.68800  0.60269  0.24234  1.0000
  C   C150      1.0  0.81200  0.10269  0.25766  1.0000
  C   C151      1.0  0.31200  0.39731  0.75766  1.0000
  C   C152      1.0  0.18800  0.89731  0.74234  1.0000
  H   H69       1.0  0.76990  0.59230  0.24920  1.0000
  H   H70       1.0  0.73010  0.09230  0.25080  1.0000
  H   H71       1.0  0.23010  0.40770  0.75080  1.0000
  H   H72       1.0  0.26990  0.90770  0.74920  1.0000
  C   C153      1.0  0.52690  0.70710  0.22146  1.0000
  C   C154      1.0  0.97310  0.20710  0.27854  1.0000
  C   C155      1.0  0.47310  0.29290  0.77854  1.0000
  C   C156      1.0  0.02690  0.79290  0.72146  1.0000
  N   N1        1.0  0.95938  0.74623  0.00084  1.0000
  N   N2        1.0  0.54062  0.24623  0.49916  1.0000
  N   N3        1.0  0.04062  0.25377  0.99916  1.0000
  N   N4        1.0  0.45938  0.75377  0.50084  1.0000
  H   H73       1.0  0.03460  0.74600  0.99020  1.0000
  H   H74       1.0  0.46540  0.24600  0.50980  1.0000
  H   H75       1.0  0.96540  0.25400  0.00980  1.0000
  H   H76       1.0  0.53460  0.75400  0.49020  1.0000
  N   N5        1.0  0.51850  0.50302  0.24555  1.0000
  N   N6        1.0  0.98150  0.00302  0.25445  1.0000
  N   N7        1.0  0.48150  0.49698  0.75445  1.0000
  N   N8        1.0  0.01850  0.99698  0.74555  1.0000
  H   H77       1.0  0.44210  0.51370  0.24470  1.0000
  H   H78       1.0  0.05790  0.01370  0.25530  1.0000
  H   H79       1.0  0.55790  0.48630  0.75530  1.0000
  H   H80       1.0  0.94210  0.98630  0.74470  1.0000
  O   O1        1.0  0.47494  0.81261  0.19148  1.0000
  O   O2        1.0  0.02506  0.31261  0.30852  1.0000
  O   O3        1.0  0.52506  0.18739  0.80852  1.0000
  O   O4        1.0  0.97494  0.68739  0.69148  1.0000
  O   O5        1.0  0.47520  0.90205  0.14917  1.0000
  O   O6        1.0  0.02480  0.40205  0.35083  1.0000
  O   O7        1.0  0.52480  0.09795  0.85083  1.0000
  O   O8        1.0  0.97520  0.59795  0.64917  1.0000
  O   O9        1.0  0.46758  0.85279  0.10045  1.0000
  O   O10       1.0  0.03242  0.35279  0.39955  1.0000
  O   O11       1.0  0.53242  0.14721  0.89955  1.0000
  O   O12       1.0  0.96758  0.64721  0.60045  1.0000
  O   O13       1.0  0.62224  0.77282  0.11025  1.0000
  O   O14       1.0  0.87776  0.27282  0.38975  1.0000
  O   O15       1.0  0.37776  0.22718  0.88975  1.0000
  O   O16       1.0  0.12224  0.72718  0.61025  1.0000
  O   O17       1.0  0.73824  0.77874  0.16929  1.0000
  O   O18       1.0  0.76176  0.27874  0.33071  1.0000
  O   O19       1.0  0.26176  0.22126  0.83071  1.0000
  O   O20       1.0  0.23824  0.72126  0.66929  1.0000
  O   O21       1.0  0.20150  0.76566  0.17225  1.0000
  O   O22       1.0  0.29850  0.26566  0.32775  1.0000
  O   O23       1.0  0.79850  0.23434  0.82775  1.0000
  O   O24       1.0  0.70150  0.73434  0.67225  1.0000
  O   O25       1.0  0.30707  0.77423  0.11270  1.0000
  O   O26       1.0  0.19293  0.27423  0.38730  1.0000
  O   O27       1.0  0.69293  0.22577  0.88730  1.0000
  O   O28       1.0  0.80707  0.72577  0.61270  1.0000
  O   O29       1.0  0.74740  0.74083  0.98483  1.0000
  O   O30       1.0  0.75260  0.24083  0.51517  1.0000
  O   O31       1.0  0.25260  0.25917  0.01517  1.0000
  O   O32       1.0  0.24740  0.75917  0.48483  1.0000
  O   O33       1.0  0.83636  0.72955  0.77657  1.0000
  O   O34       1.0  0.66364  0.22955  0.72343  1.0000
  O   O35       1.0  0.16364  0.27045  0.22343  1.0000
  O   O36       1.0  0.33636  0.77045  0.27657  1.0000
  O   O37       1.0  0.03773  0.70575  0.78360  1.0000
  O   O38       1.0  0.46227  0.20575  0.71640  1.0000
  O   O39       1.0  0.96227  0.29425  0.21640  1.0000
  O   O40       1.0  0.53773  0.79425  0.28360  1.0000
  O   O41       1.0  0.17893  0.39461  0.27134  1.0000
  O   O42       1.0  0.32107  0.89461  0.22866  1.0000
  O   O43       1.0  0.82107  0.60539  0.72866  1.0000
  O   O44       1.0  0.67893  0.10539  0.77134  1.0000
  O   O45       1.0  0.28756  0.33475  0.27309  1.0000
  O   O46       1.0  0.21244  0.83475  0.22691  1.0000
  O   O47       1.0  0.71244  0.66525  0.72691  1.0000
  O   O48       1.0  0.78756  0.16525  0.77309  1.0000
  O   O49       1.0  0.75130  0.33134  0.26126  1.0000
  O   O50       1.0  0.74870  0.83134  0.23874  1.0000
  O   O51       1.0  0.24870  0.66866  0.73874  1.0000
  O   O52       1.0  0.25130  0.16866  0.76126  1.0000
  O   O53       1.0  0.86158  0.39043  0.27063  1.0000
  O   O54       1.0  0.63842  0.89043  0.22937  1.0000
  O   O55       1.0  0.13842  0.60957  0.72937  1.0000
  O   O56       1.0  0.36158  0.10957  0.77063  1.0000
  O   O57       1.0  0.72532  0.51681  0.23489  1.0000
  O   O58       1.0  0.77468  0.01681  0.26511  1.0000
  O   O59       1.0  0.27468  0.48319  0.76511  1.0000
  O   O60       1.0  0.22532  0.98319  0.73489  1.0000
  O   O61       1.0  0.42386  0.72051  0.20850  1.0000
  O   O62       1.0  0.07614  0.22051  0.29150  1.0000
  O   O63       1.0  0.57614  0.27949  0.79150  1.0000
  O   O64       1.0  0.92386  0.77949  0.70850  1.0000
  O   O65       1.0  0.62393  0.72787  0.23212  1.0000
  O   O66       1.0  0.87607  0.22787  0.26788  1.0000
  O   O67       1.0  0.37607  0.27213  0.76788  1.0000
  O   O68       1.0  0.12393  0.77213  0.73212  1.0000
  Zn  Zn1       1.0  0.62304  0.78794  0.22164  1.0000
  Zn  Zn2       1.0  0.87696  0.28794  0.27836  1.0000
  Zn  Zn3       1.0  0.37696  0.21206  0.77836  1.0000
  Zn  Zn4       1.0  0.12304  0.71206  0.72164  1.0000
  Zn  Zn5       1.0  0.47424  0.87133  0.20272  1.0000
  Zn  Zn6       1.0  0.02576  0.37133  0.29728  1.0000
  Zn  Zn7       1.0  0.52576  0.12867  0.79728  1.0000
  Zn  Zn8       1.0  0.97424  0.62867  0.70272  1.0000
  Zn  Zn9       1.0  0.46984  0.80010  0.13249  1.0000
  Zn  Zn10      1.0  0.03016  0.30010  0.36751  1.0000
  Zn  Zn11      1.0  0.53016  0.19990  0.86751  1.0000
  Zn  Zn12      1.0  0.96984  0.69990  0.63249  1.0000
  Zn  Zn13      1.0  0.33195  0.78225  0.21639  1.0000
  Zn  Zn14      1.0  0.16805  0.28225  0.28361  1.0000
  Zn  Zn15      1.0  0.66805  0.21775  0.78361  1.0000
  Zn  Zn16      1.0  0.83195  0.71775  0.71639  1.0000
