data_image0
_chemical_formula_structural       C12H4C8H4C8H4C12H4C4H4C8H4C4H4C16H4C8H4C8H4C12H4C4H4C8H4C4H4C16H4C4H4O60Zn16
_chemical_formula_sum              "C136 H64 O60 Zn16"
_cell_length_a       10.306
_cell_length_b       27.776
_cell_length_c       26.232
_cell_angle_alpha    90
_cell_angle_beta     91.84
_cell_angle_gamma    90

_space_group_name_H-M_alt    "P 1"
_space_group_IT_number       1

loop_
  _space_group_symop_operation_xyz
  'x, y, z'

loop_
  _atom_site_type_symbol
  _atom_site_label
  _atom_site_symmetry_multiplicity
  _atom_site_fract_x
  _atom_site_fract_y
  _atom_site_fract_z
  _atom_site_occupancy
  C   C1        1.0  0.30970  0.69610  0.37021  1.0000
  C   C2        1.0  0.19030  0.19610  0.12979  1.0000
  C   C3        1.0  0.69030  0.30390  0.62979  1.0000
  C   C4        1.0  0.80970  0.80390  0.87021  1.0000
  C   C5        1.0  0.43480  0.70841  0.39815  1.0000
  C   C6        1.0  0.06520  0.20841  0.10185  1.0000
  C   C7        1.0  0.56520  0.29159  0.60185  1.0000
  C   C8        1.0  0.93480  0.79159  0.89815  1.0000
  C   C9        1.0  0.55000  0.69719  0.37461  1.0000
  C   C10       1.0  0.95000  0.19719  0.12539  1.0000
  C   C11       1.0  0.45000  0.30281  0.62539  1.0000
  C   C12       1.0  0.05000  0.80281  0.87461  1.0000
  H   H1        1.0  0.54790  0.68420  0.34190  1.0000
  H   H2        1.0  0.95210  0.18420  0.15810  1.0000
  H   H3        1.0  0.45210  0.31580  0.65810  1.0000
  H   H4        1.0  0.04790  0.81580  0.84190  1.0000
  C   C13       1.0  0.66770  0.70533  0.39994  1.0000
  C   C14       1.0  0.83230  0.20533  0.10006  1.0000
  C   C15       1.0  0.33230  0.29467  0.60006  1.0000
  C   C16       1.0  0.16770  0.79467  0.89994  1.0000
  C   C17       1.0  0.67140  0.72535  0.44854  1.0000
  C   C18       1.0  0.82860  0.22535  0.05146  1.0000
  C   C19       1.0  0.32860  0.27465  0.55146  1.0000
  C   C20       1.0  0.17140  0.77465  0.94854  1.0000
  H   H5        1.0  0.75110  0.73100  0.46510  1.0000
  H   H6        1.0  0.74890  0.23100  0.03490  1.0000
  H   H7        1.0  0.24890  0.26900  0.53490  1.0000
  H   H8        1.0  0.25110  0.76900  0.96510  1.0000
  C   C21       1.0  0.55680  0.73718  0.47291  1.0000
  C   C22       1.0  0.94320  0.23718  0.02709  1.0000
  C   C23       1.0  0.44320  0.26282  0.52709  1.0000
  C   C24       1.0  0.05680  0.76282  0.97291  1.0000
  C   C25       1.0  0.43860  0.72776  0.44713  1.0000
  C   C26       1.0  0.06140  0.22776  0.05287  1.0000
  C   C27       1.0  0.56140  0.27224  0.55287  1.0000
  C   C28       1.0  0.93860  0.77224  0.94713  1.0000
  H   H9        1.0  0.36120  0.73450  0.46300  1.0000
  H   H10       1.0  0.13880  0.23450  0.03700  1.0000
  H   H11       1.0  0.63880  0.26550  0.53700  1.0000
  H   H12       1.0  0.86120  0.76550  0.96300  1.0000
  C   C29       1.0  0.78990  0.68888  0.37543  1.0000
  C   C30       1.0  0.71010  0.18888  0.12457  1.0000
  C   C31       1.0  0.21010  0.31112  0.62457  1.0000
  C   C32       1.0  0.28990  0.81112  0.87543  1.0000
  C   C33       1.0  0.56120  0.75801  0.52504  1.0000
  C   C34       1.0  0.93880  0.25801  0.97496  1.0000
  C   C35       1.0  0.43880  0.24199  0.47496  1.0000
  C   C36       1.0  0.06120  0.74199  0.02504  1.0000
  C   C37       1.0  0.66190  0.74750  0.55901  1.0000
  C   C38       1.0  0.83810  0.24750  0.94099  1.0000
  C   C39       1.0  0.33810  0.25250  0.44099  1.0000
  C   C40       1.0  0.16190  0.75250  0.05901  1.0000
  H   H13       1.0  0.72890  0.72770  0.54870  1.0000
  H   H14       1.0  0.77110  0.22770  0.95130  1.0000
  H   H15       1.0  0.27110  0.27230  0.45130  1.0000
  H   H16       1.0  0.22890  0.77230  0.04870  1.0000
  C   C41       1.0  0.66570  0.76559  0.60783  1.0000
  C   C42       1.0  0.83430  0.26559  0.89217  1.0000
  C   C43       1.0  0.33430  0.23441  0.39217  1.0000
  C   C44       1.0  0.16570  0.73441  0.10783  1.0000
  H   H17       1.0  0.73490  0.75780  0.62990  1.0000
  H   H18       1.0  0.76510  0.25780  0.87010  1.0000
  H   H19       1.0  0.26510  0.24220  0.37010  1.0000
  H   H20       1.0  0.23490  0.74220  0.12990  1.0000
  C   C45       1.0  0.56880  0.79508  0.62442  1.0000
  C   C46       1.0  0.93120  0.29508  0.87558  1.0000
  C   C47       1.0  0.43120  0.20492  0.37558  1.0000
  C   C48       1.0  0.06880  0.70492  0.12442  1.0000
  C   C49       1.0  0.46690  0.80610  0.59089  1.0000
  C   C50       1.0  0.03310  0.30610  0.90911  1.0000
  C   C51       1.0  0.53310  0.19390  0.40911  1.0000
  C   C52       1.0  0.96690  0.69390  0.09089  1.0000
  H   H21       1.0  0.40080  0.82630  0.60110  1.0000
  H   H22       1.0  0.09920  0.32630  0.89890  1.0000
  H   H23       1.0  0.59920  0.17370  0.39890  1.0000
  H   H24       1.0  0.90080  0.67370  0.10110  1.0000
  C   C53       1.0  0.46320  0.78711  0.54225  1.0000
  C   C54       1.0  0.03680  0.28711  0.95775  1.0000
  C   C55       1.0  0.53680  0.21289  0.45775  1.0000
  C   C56       1.0  0.96320  0.71289  0.04225  1.0000
  H   H25       1.0  0.39280  0.79410  0.52050  1.0000
  H   H26       1.0  0.10720  0.29410  0.97950  1.0000
  H   H27       1.0  0.60720  0.20590  0.47950  1.0000
  H   H28       1.0  0.89280  0.70590  0.02050  1.0000
  C   C57       1.0  0.57260  0.81453  0.67795  1.0000
  C   C58       1.0  0.92740  0.31453  0.82205  1.0000
  C   C59       1.0  0.42740  0.18547  0.32205  1.0000
  C   C60       1.0  0.07260  0.68547  0.17795  1.0000
  C   C61       1.0  0.77690  0.56723  0.25418  1.0000
  C   C62       1.0  0.72310  0.06723  0.24582  1.0000
  C   C63       1.0  0.22310  0.43277  0.74582  1.0000
  C   C64       1.0  0.27690  0.93277  0.75418  1.0000
  C   C65       1.0  0.65170  0.53958  0.24951  1.0000
  C   C66       1.0  0.84830  0.03958  0.25049  1.0000
  C   C67       1.0  0.34830  0.46042  0.75049  1.0000
  C   C68       1.0  0.15170  0.96042  0.74951  1.0000
  C   C69       1.0  0.53590  0.56407  0.25231  1.0000
  C   C70       1.0  0.96410  0.06407  0.24769  1.0000
  C   C71       1.0  0.46410  0.43593  0.74769  1.0000
  C   C72       1.0  0.03590  0.93593  0.75231  1.0000
  H   H29       1.0  0.53570  0.59750  0.25470  1.0000
  H   H30       1.0  0.96430  0.09750  0.24530  1.0000
  H   H31       1.0  0.46430  0.40250  0.74530  1.0000
  H   H32       1.0  0.03570  0.90250  0.75470  1.0000
  C   C73       1.0  0.41960  0.53892  0.25155  1.0000
  C   C74       1.0  0.08040  0.03892  0.24845  1.0000
  C   C75       1.0  0.58040  0.46108  0.74845  1.0000
  C   C76       1.0  0.91960  0.96108  0.75155  1.0000
  C   C77       1.0  0.42010  0.48911  0.24635  1.0000
  C   C78       1.0  0.07990  0.98911  0.25365  1.0000
  C   C79       1.0  0.57990  0.51089  0.75365  1.0000
  C   C80       1.0  0.92010  0.01089  0.74635  1.0000
  H   H33       1.0  0.34180  0.47240  0.24540  1.0000
  H   H34       1.0  0.15820  0.97240  0.25460  1.0000
  H   H35       1.0  0.65820  0.52760  0.75460  1.0000
  H   H36       1.0  0.84180  0.02760  0.74540  1.0000
  C   C81       1.0  0.53690  0.46359  0.24248  1.0000
  C   C82       1.0  0.96310  0.96359  0.25752  1.0000
  C   C83       1.0  0.46310  0.53641  0.75752  1.0000
  C   C84       1.0  0.03690  0.03641  0.74248  1.0000
  C   C85       1.0  0.65250  0.48999  0.24518  1.0000
  C   C86       1.0  0.84750  0.98999  0.25482  1.0000
  C   C87       1.0  0.34750  0.51001  0.75482  1.0000
  C   C88       1.0  0.15250  0.01001  0.74518  1.0000
  H   H37       1.0  0.73150  0.47390  0.24400  1.0000
  H   H38       1.0  0.76850  0.97390  0.25600  1.0000
  H   H39       1.0  0.26850  0.52610  0.75600  1.0000
  H   H40       1.0  0.23150  0.02610  0.74400  1.0000
  C   C89       1.0  0.29490  0.56575  0.25889  1.0000
  C   C90       1.0  0.20510  0.06575  0.24111  1.0000
  C   C91       1.0  0.70510  0.43425  0.74111  1.0000
  C   C92       1.0  0.79490  0.93425  0.75889  1.0000
  C   C93       1.0  0.53570  0.41082  0.23673  1.0000
  C   C94       1.0  0.96430  0.91082  0.26327  1.0000
  C   C95       1.0  0.46430  0.58918  0.76327  1.0000
  C   C96       1.0  0.03570  0.08918  0.73673  1.0000
  C   C97       1.0  0.43340  0.38767  0.21130  1.0000
  C   C98       1.0  0.06660  0.88767  0.28870  1.0000
  C   C99       1.0  0.56660  0.61233  0.78870  1.0000
  C   C100      1.0  0.93340  0.11233  0.71130  1.0000
  H   H41       1.0  0.36490  0.40560  0.19720  1.0000
  H   H42       1.0  0.13510  0.90560  0.30280  1.0000
  H   H43       1.0  0.63510  0.59440  0.80280  1.0000
  H   H44       1.0  0.86490  0.09440  0.69720  1.0000
  C   C101      1.0  0.43270  0.33776  0.20660  1.0000
  C   C102      1.0  0.06730  0.83776  0.29340  1.0000
  C   C103      1.0  0.56730  0.66224  0.79340  1.0000
  C   C104      1.0  0.93270  0.16224  0.70660  1.0000
  H   H45       1.0  0.36310  0.32280  0.18960  1.0000
  H   H46       1.0  0.13690  0.82280  0.31040  1.0000
  H   H47       1.0  0.63690  0.67720  0.81040  1.0000
  H   H48       1.0  0.86310  0.17720  0.68960  1.0000
  C   C105      1.0  0.53170  0.31025  0.22630  1.0000
  C   C106      1.0  0.96830  0.81025  0.27370  1.0000
  C   C107      1.0  0.46830  0.68975  0.77370  1.0000
  C   C108      1.0  0.03170  0.18975  0.72630  1.0000
  C   C109      1.0  0.63440  0.33315  0.25080  1.0000
  C   C110      1.0  0.86560  0.83315  0.24920  1.0000
  C   C111      1.0  0.36560  0.66685  0.74920  1.0000
  C   C112      1.0  0.13440  0.16685  0.75080  1.0000
  H   H49       1.0  0.70320  0.31500  0.26420  1.0000
  H   H50       1.0  0.79680  0.81500  0.23580  1.0000
  H   H51       1.0  0.29680  0.68500  0.73580  1.0000
  H   H52       1.0  0.20320  0.18500  0.76420  1.0000
  C   C113      1.0  0.63710  0.38242  0.25590  1.0000
  C   C114      1.0  0.86290  0.88242  0.24410  1.0000
  C   C115      1.0  0.36290  0.61758  0.74410  1.0000
  C   C116      1.0  0.13710  0.11758  0.75590  1.0000
  H   H53       1.0  0.70790  0.39700  0.27250  1.0000
  H   H54       1.0  0.79210  0.89700  0.22750  1.0000
  H   H55       1.0  0.29210  0.60300  0.72750  1.0000
  H   H56       1.0  0.20790  0.10300  0.77250  1.0000
  C   C117      1.0  0.52800  0.25666  0.22077  1.0000
  C   C118      1.0  0.97200  0.75666  0.27923  1.0000
  C   C119      1.0  0.47200  0.74334  0.77923  1.0000
  C   C120      1.0  0.02800  0.24334  0.72077  1.0000
  C   C121      1.0  0.03270  0.56008  0.41080  1.0000
  C   C122      1.0  0.46730  0.06008  0.08920  1.0000
  C   C123      1.0  0.96730  0.43992  0.58920  1.0000
  C   C124      1.0  0.53270  0.93992  0.91080  1.0000
  C   C125      1.0  0.01520  0.52890  0.45724  1.0000
  C   C126      1.0  0.48480  0.02890  0.04276  1.0000
  C   C127      1.0  0.98480  0.47110  0.54276  1.0000
  C   C128      1.0  0.51520  0.97110  0.95724  1.0000
  C   C129      1.0  0.01280  0.48039  0.45325  1.0000
  C   C130      1.0  0.48720  0.98039  0.04675  1.0000
  C   C131      1.0  0.98720  0.51961  0.54675  1.0000
  C   C132      1.0  0.51280  0.01961  0.95325  1.0000
  H   H57       1.0  0.02450  0.46600  0.42170  1.0000
  H   H58       1.0  0.47550  0.96600  0.07830  1.0000
  H   H59       1.0  0.97550  0.53400  0.57830  1.0000
  H   H60       1.0  0.52450  0.03400  0.92170  1.0000
  C   C133      1.0  0.00700  0.54809  0.50430  1.0000
  C   C134      1.0  0.49300  0.04809  0.99570  1.0000
  C   C135      1.0  0.99300  0.45191  0.49570  1.0000
  C   C136      1.0  0.50700  0.95191  0.00430  1.0000
  H   H61       1.0  0.01490  0.58120  0.50830  1.0000
  H   H62       1.0  0.48510  0.08120  0.99170  1.0000
  H   H63       1.0  0.98510  0.41880  0.49170  1.0000
  H   H64       1.0  0.51490  0.91880  0.00830  1.0000
  O   O1        1.0  0.04229  0.63662  0.30456  1.0000
  O   O2        1.0  0.45771  0.13662  0.19544  1.0000
  O   O3        1.0  0.95771  0.36338  0.69544  1.0000
  O   O4        1.0  0.54229  0.86338  0.80456  1.0000
  O   O5        1.0  0.20990  0.69135  0.39667  1.0000
  O   O6        1.0  0.29010  0.19135  0.10333  1.0000
  O   O7        1.0  0.79010  0.30865  0.60333  1.0000
  O   O8        1.0  0.70990  0.80865  0.89667  1.0000
  O   O9        1.0  0.31580  0.69061  0.32303  1.0000
  O   O10       1.0  0.18420  0.19061  0.17697  1.0000
  O   O11       1.0  0.68420  0.30939  0.67697  1.0000
  O   O12       1.0  0.81580  0.80939  0.82303  1.0000
  O   O13       1.0  0.77840  0.66732  0.33416  1.0000
  O   O14       1.0  0.72160  0.16732  0.16584  1.0000
  O   O15       1.0  0.22160  0.33268  0.66584  1.0000
  O   O16       1.0  0.27840  0.83268  0.83416  1.0000
  O   O17       1.0  0.89610  0.69725  0.39923  1.0000
  O   O18       1.0  0.60390  0.19725  0.10077  1.0000
  O   O19       1.0  0.10390  0.30275  0.60077  1.0000
  O   O20       1.0  0.39610  0.80275  0.89923  1.0000
  O   O21       1.0  0.67280  0.80427  0.70500  1.0000
  O   O22       1.0  0.82720  0.30427  0.79500  1.0000
  O   O23       1.0  0.32720  0.19573  0.29500  1.0000
  O   O24       1.0  0.17280  0.69573  0.20500  1.0000
  O   O25       1.0  0.47870  0.83823  0.69270  1.0000
  O   O26       1.0  0.02130  0.33823  0.80730  1.0000
  O   O27       1.0  0.52130  0.16177  0.30730  1.0000
  O   O28       1.0  0.97870  0.66177  0.19270  1.0000
  O   O29       1.0  0.77020  0.61148  0.24523  1.0000
  O   O30       1.0  0.72980  0.11148  0.25477  1.0000
  O   O31       1.0  0.22980  0.38852  0.75477  1.0000
  O   O32       1.0  0.27020  0.88852  0.74523  1.0000
  O   O33       1.0  0.87790  0.54424  0.26697  1.0000
  O   O34       1.0  0.62210  0.04424  0.23303  1.0000
  O   O35       1.0  0.12210  0.45576  0.73303  1.0000
  O   O36       1.0  0.37790  0.95576  0.76697  1.0000
  O   O37       1.0  0.29830  0.61004  0.25430  1.0000
  O   O38       1.0  0.20170  0.11004  0.24570  1.0000
  O   O39       1.0  0.70170  0.38996  0.74570  1.0000
  O   O40       1.0  0.79830  0.88996  0.75430  1.0000
  O   O41       1.0  0.19560  0.54094  0.26968  1.0000
  O   O42       1.0  0.30440  0.04094  0.23032  1.0000
  O   O43       1.0  0.80440  0.45906  0.73032  1.0000
  O   O44       1.0  0.69560  0.95906  0.76968  1.0000
  O   O45       1.0  0.43230  0.23804  0.19919  1.0000
  O   O46       1.0  0.06770  0.73804  0.30081  1.0000
  O   O47       1.0  0.56770  0.76196  0.80081  1.0000
  O   O48       1.0  0.93230  0.26196  0.69919  1.0000
  O   O49       1.0  0.62220  0.23345  0.24053  1.0000
  O   O50       1.0  0.87780  0.73345  0.25947  1.0000
  O   O51       1.0  0.37780  0.76655  0.75947  1.0000
  O   O52       1.0  0.12220  0.26655  0.74053  1.0000
  O   O53       1.0  0.04160  0.60414  0.41799  1.0000
  O   O54       1.0  0.45840  0.10414  0.08201  1.0000
  O   O55       1.0  0.95840  0.39586  0.58201  1.0000
  O   O56       1.0  0.54160  0.89586  0.91799  1.0000
  O   O57       1.0  0.03590  0.53896  0.36828  1.0000
  O   O58       1.0  0.46410  0.03896  0.13172  1.0000
  O   O59       1.0  0.96410  0.46104  0.63172  1.0000
  O   O60       1.0  0.53590  0.96104  0.86828  1.0000
  Zn  Zn1       1.0  0.18552  0.66849  0.27261  1.0000
  Zn  Zn2       1.0  0.31448  0.16849  0.22739  1.0000
  Zn  Zn3       1.0  0.81448  0.33151  0.72739  1.0000
  Zn  Zn4       1.0  0.68552  0.83151  0.77261  1.0000
  Zn  Zn5       1.0  0.89193  0.66326  0.26662  1.0000
  Zn  Zn6       1.0  0.60807  0.16326  0.23338  1.0000
  Zn  Zn7       1.0  0.10807  0.33674  0.73338  1.0000
  Zn  Zn8       1.0  0.39193  0.83674  0.76662  1.0000
  Zn  Zn9       1.0  0.04443  0.66291  0.37254  1.0000
  Zn  Zn10      1.0  0.45557  0.16291  0.12746  1.0000
  Zn  Zn11      1.0  0.95557  0.33709  0.62746  1.0000
  Zn  Zn12      1.0  0.54443  0.83709  0.87254  1.0000
  Zn  Zn13      1.0  0.04077  0.56787  0.29993  1.0000
  Zn  Zn14      1.0  0.45923  0.06787  0.20007  1.0000
  Zn  Zn15      1.0  0.95923  0.43213  0.70007  1.0000
  Zn  Zn16      1.0  0.54077  0.93213  0.79993  1.0000
