data_image0
_chemical_formula_structural       C12H4C4H4C8H4C12H4C8H4C8H4C12H4C4H4C8H4C4H4C16H4C8H4C8H4C12H4C4H4C8H4C4H4C4O60Zn16
_chemical_formula_sum              "C144 H68 O60 Zn16"
_cell_length_a       10.364
_cell_length_b       26.746
_cell_length_c       27.804
_cell_angle_alpha    90
_cell_angle_beta     93.91
_cell_angle_gamma    90

_space_group_name_H-M_alt    "P 1"
_space_group_IT_number       1

loop_
  _space_group_symop_operation_xyz
  'x, y, z'

loop_
  _atom_site_type_symbol
  _atom_site_label
  _atom_site_symmetry_multiplicity
  _atom_site_fract_x
  _atom_site_fract_y
  _atom_site_fract_z
  _atom_site_occupancy
  C   C1        1.0  0.96360  0.37100  0.07150  1.0000
  C   C2        1.0  0.53640  0.87100  0.42850  1.0000
  C   C3        1.0  0.03640  0.62900  0.92850  1.0000
  C   C4        1.0  0.46360  0.12900  0.57150  1.0000
  C   C5        1.0  0.97030  0.41690  0.03790  1.0000
  C   C6        1.0  0.52970  0.91690  0.46210  1.0000
  C   C7        1.0  0.02970  0.58310  0.96210  1.0000
  C   C8        1.0  0.47030  0.08310  0.53790  1.0000
  C   C9        1.0  0.95560  0.40830  0.98760  1.0000
  C   C10       1.0  0.54440  0.90830  0.51240  1.0000
  C   C11       1.0  0.04440  0.59170  0.01240  1.0000
  C   C12       1.0  0.45560  0.09170  0.48760  1.0000
  H   H1        1.0  0.93730  0.37580  0.97600  1.0000
  H   H2        1.0  0.56270  0.87580  0.52400  1.0000
  H   H3        1.0  0.06270  0.62420  0.02400  1.0000
  H   H4        1.0  0.43730  0.12420  0.47600  1.0000
  C   C13       1.0  0.99160  0.46200  0.05600  1.0000
  C   C14       1.0  0.50840  0.96200  0.44400  1.0000
  C   C15       1.0  0.00840  0.53800  0.94400  1.0000
  C   C16       1.0  0.49160  0.03800  0.55600  1.0000
  H   H5        1.0  0.99670  0.46690  0.08950  1.0000
  H   H6        1.0  0.50330  0.96690  0.41050  1.0000
  H   H7        1.0  0.00330  0.53310  0.91050  1.0000
  H   H8        1.0  0.49670  0.03310  0.58950  1.0000
  C   C17       1.0  0.00710  0.50400  0.02380  1.0000
  C   C18       1.0  0.49290  0.00400  0.47620  1.0000
  C   C19       1.0  0.99290  0.49600  0.97620  1.0000
  C   C20       1.0  0.50710  0.99600  0.52380  1.0000
  C   C21       1.0  0.03220  0.55270  0.04480  1.0000
  C   C22       1.0  0.46780  0.05270  0.45520  1.0000
  C   C23       1.0  0.96780  0.44730  0.95520  1.0000
  C   C24       1.0  0.53220  0.94730  0.54480  1.0000
  H   H9        1.0  0.03990  0.55770  0.07830  1.0000
  H   H10       1.0  0.46010  0.05770  0.42170  1.0000
  H   H11       1.0  0.96010  0.44230  0.92170  1.0000
  H   H12       1.0  0.53990  0.94230  0.57830  1.0000
  C   C25       1.0  0.24510  0.33580  0.20640  1.0000
  C   C26       1.0  0.25490  0.83580  0.29360  1.0000
  C   C27       1.0  0.75490  0.66420  0.79360  1.0000
  C   C28       1.0  0.74510  0.16420  0.70640  1.0000
  C   C29       1.0  0.36730  0.36330  0.21520  1.0000
  C   C30       1.0  0.13270  0.86330  0.28480  1.0000
  C   C31       1.0  0.63270  0.63670  0.78480  1.0000
  C   C32       1.0  0.86730  0.13670  0.71520  1.0000
  C   C33       1.0  0.48560  0.34030  0.20660  1.0000
  C   C34       1.0  0.01440  0.84030  0.29340  1.0000
  C   C35       1.0  0.51440  0.65970  0.79340  1.0000
  C   C36       1.0  0.98560  0.15970  0.70660  1.0000
  H   H13       1.0  0.48690  0.30670  0.19680  1.0000
  H   H14       1.0  0.01310  0.80670  0.30320  1.0000
  H   H15       1.0  0.51310  0.69330  0.80320  1.0000
  H   H16       1.0  0.98690  0.19330  0.69680  1.0000
  C   C37       1.0  0.59850  0.36650  0.21250  1.0000
  C   C38       1.0  0.90150  0.86650  0.28750  1.0000
  C   C39       1.0  0.40150  0.63350  0.78750  1.0000
  C   C40       1.0  0.09850  0.13350  0.71250  1.0000
  C   C41       1.0  0.59940  0.41530  0.22800  1.0000
  C   C42       1.0  0.90060  0.91530  0.27200  1.0000
  C   C43       1.0  0.40060  0.58470  0.77200  1.0000
  C   C44       1.0  0.09940  0.08470  0.72800  1.0000
  H   H17       1.0  0.67820  0.43280  0.23190  1.0000
  H   H18       1.0  0.82180  0.93280  0.26810  1.0000
  H   H19       1.0  0.32180  0.56720  0.76810  1.0000
  H   H20       1.0  0.17820  0.06720  0.73190  1.0000
  C   C45       1.0  0.48460  0.43920  0.23800  1.0000
  C   C46       1.0  0.01540  0.93920  0.26200  1.0000
  C   C47       1.0  0.51540  0.56080  0.76200  1.0000
  C   C48       1.0  0.98460  0.06080  0.73800  1.0000
  C   C49       1.0  0.36920  0.41250  0.23070  1.0000
  C   C50       1.0  0.13080  0.91250  0.26930  1.0000
  C   C51       1.0  0.63080  0.58750  0.76930  1.0000
  C   C52       1.0  0.86920  0.08750  0.73070  1.0000
  H   H21       1.0  0.29080  0.42830  0.23660  1.0000
  H   H22       1.0  0.20920  0.92830  0.26340  1.0000
  H   H23       1.0  0.70920  0.57170  0.76340  1.0000
  H   H24       1.0  0.79080  0.07170  0.73660  1.0000
  C   C53       1.0  0.72150  0.34120  0.19790  1.0000
  C   C54       1.0  0.77850  0.84120  0.30210  1.0000
  C   C55       1.0  0.27850  0.65880  0.80210  1.0000
  C   C56       1.0  0.22150  0.15880  0.69790  1.0000
  C   C57       1.0  0.48680  0.49180  0.25520  1.0000
  C   C58       1.0  0.01320  0.99180  0.24480  1.0000
  C   C59       1.0  0.51320  0.50820  0.74480  1.0000
  C   C60       1.0  0.98680  0.00820  0.75520  1.0000
  C   C61       1.0  0.59080  0.51290  0.28040  1.0000
  C   C62       1.0  0.90920  0.01290  0.21960  1.0000
  C   C63       1.0  0.40920  0.48710  0.71960  1.0000
  C   C64       1.0  0.09080  0.98710  0.78040  1.0000
  H   H25       1.0  0.66460  0.49310  0.28740  1.0000
  H   H26       1.0  0.83540  0.99310  0.21260  1.0000
  H   H27       1.0  0.33540  0.50690  0.71260  1.0000
  H   H28       1.0  0.16460  0.00690  0.78740  1.0000
  C   C65       1.0  0.59230  0.56130  0.29600  1.0000
  C   C66       1.0  0.90770  0.06130  0.20400  1.0000
  C   C67       1.0  0.40770  0.43870  0.70400  1.0000
  C   C68       1.0  0.09230  0.93870  0.79600  1.0000
  H   H29       1.0  0.66590  0.57390  0.31360  1.0000
  H   H30       1.0  0.83410  0.07390  0.18640  1.0000
  H   H31       1.0  0.33410  0.42610  0.68640  1.0000
  H   H32       1.0  0.16590  0.92610  0.81360  1.0000
  C   C69       1.0  0.48450  0.59270  0.28580  1.0000
  C   C70       1.0  0.01550  0.09270  0.21420  1.0000
  C   C71       1.0  0.51550  0.40730  0.71420  1.0000
  C   C72       1.0  0.98450  0.90730  0.78580  1.0000
  C   C73       1.0  0.37840  0.57300  0.25920  1.0000
  C   C74       1.0  0.12160  0.07300  0.24080  1.0000
  C   C75       1.0  0.62160  0.42700  0.74080  1.0000
  C   C76       1.0  0.87840  0.92700  0.75920  1.0000
  H   H33       1.0  0.30630  0.59340  0.25110  1.0000
  H   H34       1.0  0.19370  0.09340  0.24890  1.0000
  H   H35       1.0  0.69370  0.40660  0.74890  1.0000
  H   H36       1.0  0.80630  0.90660  0.75110  1.0000
  C   C77       1.0  0.37790  0.52310  0.24430  1.0000
  C   C78       1.0  0.12210  0.02310  0.25570  1.0000
  C   C79       1.0  0.62210  0.47690  0.75570  1.0000
  C   C80       1.0  0.87790  0.97690  0.74430  1.0000
  H   H37       1.0  0.30450  0.51000  0.22690  1.0000
  H   H38       1.0  0.19550  0.01000  0.27310  1.0000
  H   H39       1.0  0.69550  0.49000  0.77310  1.0000
  H   H40       1.0  0.80450  0.99000  0.72690  1.0000
  C   C81       1.0  0.48740  0.64560  0.30080  1.0000
  C   C82       1.0  0.01260  0.14560  0.19920  1.0000
  C   C83       1.0  0.51260  0.35440  0.69920  1.0000
  C   C84       1.0  0.98740  0.85440  0.80080  1.0000
  C   C85       1.0  0.69180  0.22230  0.08190  1.0000
  C   C86       1.0  0.80820  0.72230  0.41810  1.0000
  C   C87       1.0  0.30820  0.77770  0.91810  1.0000
  C   C88       1.0  0.19180  0.27770  0.58190  1.0000
  C   C89       1.0  0.56480  0.21930  0.05370  1.0000
  C   C90       1.0  0.93520  0.71930  0.44630  1.0000
  C   C91       1.0  0.43520  0.78070  0.94630  1.0000
  C   C92       1.0  0.06480  0.28070  0.55370  1.0000
  C   C93       1.0  0.45230  0.21860  0.07850  1.0000
  C   C94       1.0  0.04770  0.71860  0.42150  1.0000
  C   C95       1.0  0.54770  0.78140  0.92150  1.0000
  C   C96       1.0  0.95230  0.28140  0.57850  1.0000
  H   H41       1.0  0.45680  0.21630  0.11230  1.0000
  H   H42       1.0  0.04320  0.71630  0.38770  1.0000
  H   H43       1.0  0.54320  0.78370  0.88770  1.0000
  H   H44       1.0  0.95680  0.28370  0.61230  1.0000
  C   C97       1.0  0.33220  0.22150  0.05210  1.0000
  C   C98       1.0  0.16780  0.72150  0.44790  1.0000
  C   C99       1.0  0.66780  0.77850  0.94790  1.0000
  C   C100      1.0  0.83220  0.27850  0.55210  1.0000
  C   C101      1.0  0.32490  0.22480  0.00230  1.0000
  C   C102      1.0  0.17510  0.72480  0.49770  1.0000
  C   C103      1.0  0.67510  0.77520  0.99770  1.0000
  C   C104      1.0  0.82490  0.27520  0.50230  1.0000
  H   H45       1.0  0.24360  0.22690  0.98530  1.0000
  H   H46       1.0  0.25640  0.72690  0.51470  1.0000
  H   H47       1.0  0.75640  0.77310  0.01470  1.0000
  H   H48       1.0  0.74360  0.27310  0.48530  1.0000
  C   C105      1.0  0.43650  0.22480  0.97700  1.0000
  C   C106      1.0  0.06350  0.72480  0.52300  1.0000
  C   C107      1.0  0.56350  0.77520  0.02300  1.0000
  C   C108      1.0  0.93650  0.27520  0.47700  1.0000
  C   C109      1.0  0.55890  0.22440  0.00380  1.0000
  C   C110      1.0  0.94110  0.72440  0.49620  1.0000
  C   C111      1.0  0.44110  0.77560  0.99620  1.0000
  C   C112      1.0  0.05890  0.27560  0.50380  1.0000
  H   H49       1.0  0.63540  0.22750  0.98780  1.0000
  H   H50       1.0  0.86460  0.72750  0.51220  1.0000
  H   H51       1.0  0.36460  0.77250  0.01220  1.0000
  H   H52       1.0  0.13540  0.27250  0.48780  1.0000
  C   C113      1.0  0.21260  0.22500  0.07880  1.0000
  C   C114      1.0  0.28740  0.72500  0.42120  1.0000
  C   C115      1.0  0.78740  0.77500  0.92120  1.0000
  C   C116      1.0  0.71260  0.27500  0.57880  1.0000
  C   C117      1.0  0.43090  0.22940  0.92430  1.0000
  C   C118      1.0  0.06910  0.72940  0.57570  1.0000
  C   C119      1.0  0.56910  0.77060  0.07570  1.0000
  C   C120      1.0  0.93090  0.27060  0.42430  1.0000
  C   C121      1.0  0.33260  0.25500  0.89890  1.0000
  C   C122      1.0  0.16740  0.75500  0.60110  1.0000
  C   C123      1.0  0.66740  0.74500  0.10110  1.0000
  C   C124      1.0  0.83260  0.24500  0.39890  1.0000
  H   H53       1.0  0.26580  0.26920  0.91560  1.0000
  H   H54       1.0  0.23420  0.76920  0.58440  1.0000
  H   H55       1.0  0.73420  0.73080  0.08440  1.0000
  H   H56       1.0  0.76580  0.23080  0.41560  1.0000
  C   C125      1.0  0.33060  0.26010  0.84970  1.0000
  C   C126      1.0  0.16940  0.76010  0.65030  1.0000
  C   C127      1.0  0.66940  0.73990  0.15030  1.0000
  C   C128      1.0  0.83060  0.23990  0.34970  1.0000
  H   H57       1.0  0.25990  0.27600  0.83310  1.0000
  H   H58       1.0  0.24010  0.77600  0.66690  1.0000
  H   H59       1.0  0.74010  0.72400  0.16690  1.0000
  H   H60       1.0  0.75990  0.22400  0.33310  1.0000
  C   C129      1.0  0.42930  0.24240  0.82450  1.0000
  C   C130      1.0  0.07070  0.74240  0.67550  1.0000
  C   C131      1.0  0.57070  0.75760  0.17550  1.0000
  C   C132      1.0  0.92930  0.25760  0.32450  1.0000
  C   C133      1.0  0.52570  0.21740  0.85010  1.0000
  C   C134      1.0  0.97430  0.71740  0.64990  1.0000
  C   C135      1.0  0.47430  0.78260  0.14990  1.0000
  C   C136      1.0  0.02570  0.28260  0.35010  1.0000
  H   H61       1.0  0.59360  0.20430  0.83320  1.0000
  H   H62       1.0  0.90640  0.70430  0.66680  1.0000
  H   H63       1.0  0.40640  0.79570  0.16680  1.0000
  H   H64       1.0  0.09360  0.29570  0.33320  1.0000
  C   C137      1.0  0.52960  0.21000  0.89960  1.0000
  C   C138      1.0  0.97040  0.71000  0.60040  1.0000
  C   C139      1.0  0.47040  0.79000  0.10040  1.0000
  C   C140      1.0  0.02960  0.29000  0.39960  1.0000
  H   H65       1.0  0.59790  0.19230  0.91570  1.0000
  H   H66       1.0  0.90210  0.69230  0.58430  1.0000
  H   H67       1.0  0.40210  0.80770  0.08430  1.0000
  H   H68       1.0  0.09790  0.30770  0.41570  1.0000
  C   C141      1.0  0.42910  0.24970  0.77060  1.0000
  C   C142      1.0  0.07090  0.74970  0.72940  1.0000
  C   C143      1.0  0.57090  0.75030  0.22940  1.0000
  C   C144      1.0  0.92910  0.25030  0.27060  1.0000
  O   O1        1.0  0.97050  0.26971  0.15053  1.0000
  O   O2        1.0  0.52950  0.76971  0.34947  1.0000
  O   O3        1.0  0.02950  0.73029  0.84947  1.0000
  O   O4        1.0  0.47050  0.23029  0.65053  1.0000
  O   O5        1.0  0.94760  0.32970  0.05093  1.0000
  O   O6        1.0  0.55240  0.82970  0.44907  1.0000
  O   O7        1.0  0.05240  0.67030  0.94907  1.0000
  O   O8        1.0  0.44760  0.17030  0.55093  1.0000
  O   O9        1.0  0.96900  0.38010  0.11510  1.0000
  O   O10       1.0  0.53100  0.88010  0.38490  1.0000
  O   O11       1.0  0.03100  0.61990  0.88490  1.0000
  O   O12       1.0  0.46900  0.11990  0.61510  1.0000
  O   O13       1.0  0.25620  0.28814  0.20118  1.0000
  O   O14       1.0  0.24380  0.78814  0.29882  1.0000
  O   O15       1.0  0.74380  0.71186  0.79882  1.0000
  O   O16       1.0  0.75620  0.21186  0.70118  1.0000
  O   O17       1.0  0.14190  0.36016  0.20333  1.0000
  O   O18       1.0  0.35810  0.86016  0.29667  1.0000
  O   O19       1.0  0.85810  0.63984  0.79667  1.0000
  O   O20       1.0  0.64190  0.13984  0.70333  1.0000
  O   O21       1.0  0.71140  0.29980  0.17835  1.0000
  O   O22       1.0  0.78860  0.79980  0.32165  1.0000
  O   O23       1.0  0.28860  0.70020  0.82165  1.0000
  O   O24       1.0  0.21140  0.20020  0.67835  1.0000
  O   O25       1.0  0.82770  0.36491  0.20625  1.0000
  O   O26       1.0  0.67230  0.86491  0.29375  1.0000
  O   O27       1.0  0.17230  0.63509  0.79375  1.0000
  O   O28       1.0  0.32770  0.13509  0.70625  1.0000
  O   O29       1.0  0.58740  0.66140  0.32335  1.0000
  O   O30       1.0  0.91260  0.16140  0.17665  1.0000
  O   O31       1.0  0.41260  0.33860  0.67665  1.0000
  O   O32       1.0  0.08740  0.83860  0.82335  1.0000
  O   O33       1.0  0.38520  0.67106  0.29198  1.0000
  O   O34       1.0  0.11480  0.17106  0.20802  1.0000
  O   O35       1.0  0.61480  0.32894  0.70802  1.0000
  O   O36       1.0  0.88520  0.82894  0.79198  1.0000
  O   O37       1.0  0.69550  0.21220  0.12588  1.0000
  O   O38       1.0  0.80450  0.71220  0.37412  1.0000
  O   O39       1.0  0.30450  0.78780  0.87412  1.0000
  O   O40       1.0  0.19550  0.28780  0.62588  1.0000
  O   O41       1.0  0.79060  0.23381  0.05919  1.0000
  O   O42       1.0  0.70940  0.73381  0.44081  1.0000
  O   O43       1.0  0.20940  0.76619  0.94081  1.0000
  O   O44       1.0  0.29060  0.26619  0.55919  1.0000
  O   O45       1.0  0.22170  0.21736  0.12337  1.0000
  O   O46       1.0  0.27830  0.71736  0.37663  1.0000
  O   O47       1.0  0.77830  0.78264  0.87663  1.0000
  O   O48       1.0  0.72170  0.28264  0.62337  1.0000
  O   O49       1.0  0.10680  0.23408  0.05397  1.0000
  O   O50       1.0  0.39320  0.73408  0.44603  1.0000
  O   O51       1.0  0.89320  0.76592  0.94603  1.0000
  O   O52       1.0  0.60680  0.26592  0.55397  1.0000
  O   O53       1.0  0.33000  0.26740  0.74823  1.0000
  O   O54       1.0  0.17000  0.76740  0.75177  1.0000
  O   O55       1.0  0.67000  0.73260  0.25177  1.0000
  O   O56       1.0  0.83000  0.23260  0.24823  1.0000
  O   O57       1.0  0.52300  0.23270  0.75110  1.0000
  O   O58       1.0  0.97700  0.73270  0.74890  1.0000
  O   O59       1.0  0.47700  0.76730  0.24890  1.0000
  O   O60       1.0  0.02300  0.26730  0.25110  1.0000
  Zn  Zn1       1.0  0.12219  0.23806  0.18285  1.0000
  Zn  Zn2       1.0  0.37781  0.73806  0.31715  1.0000
  Zn  Zn3       1.0  0.87781  0.76194  0.81715  1.0000
  Zn  Zn4       1.0  0.62219  0.26194  0.68285  1.0000
  Zn  Zn5       1.0  0.82782  0.23343  0.17772  1.0000
  Zn  Zn6       1.0  0.67218  0.73343  0.32228  1.0000
  Zn  Zn7       1.0  0.17218  0.76657  0.82228  1.0000
  Zn  Zn8       1.0  0.32782  0.26657  0.67772  1.0000
  Zn  Zn9       1.0  0.95543  0.26408  0.08185  1.0000
  Zn  Zn10      1.0  0.54457  0.76408  0.41815  1.0000
  Zn  Zn11      1.0  0.04457  0.73592  0.91815  1.0000
  Zn  Zn12      1.0  0.45543  0.23592  0.58185  1.0000
  Zn  Zn13      1.0  0.97311  0.33657  0.17495  1.0000
  Zn  Zn14      1.0  0.52689  0.83657  0.32505  1.0000
  Zn  Zn15      1.0  0.02689  0.66343  0.82505  1.0000
  Zn  Zn16      1.0  0.47311  0.16343  0.67495  1.0000
