data_image0
_chemical_formula_structural       Cu4Si4C4H4C4H4C8H4C4H4C20H4C4H4C4H4C4H4C8H4C4H4C4H4C4H4C4H4C4H4C8H4C4H4C20H4C4H4C4H4C4H4C8H4C4H4C4H4C4H4N12H4N4H4N16H4N4H4N4H4Mo48O160
_chemical_formula_sum              "Cu4 Si4 C144 H116 N40 Mo48 O160"
_cell_length_a       15.8615
_cell_length_b       15.1481
_cell_length_c       24.8944
_cell_angle_alpha    90
_cell_angle_beta     94.264
_cell_angle_gamma    90

_space_group_name_H-M_alt    "P 1"
_space_group_IT_number       1

loop_
  _space_group_symop_operation_xyz
  'x, y, z'

loop_
  _atom_site_type_symbol
  _atom_site_label
  _atom_site_symmetry_multiplicity
  _atom_site_fract_x
  _atom_site_fract_y
  _atom_site_fract_z
  _atom_site_occupancy
  Cu  Cu1       1.0  0.63899  0.89536  0.16314  1.0000
  Cu  Cu2       1.0  0.36101  0.39536  0.33686  1.0000
  Cu  Cu3       1.0  0.36101  0.10464  0.83686  1.0000
  Cu  Cu4       1.0  0.63899  0.60464  0.66314  1.0000
  Si  Si1       1.0  0.21303  0.89819  0.13824  1.0000
  Si  Si2       1.0  0.78697  0.39819  0.36176  1.0000
  Si  Si3       1.0  0.78697  0.10181  0.86176  1.0000
  Si  Si4       1.0  0.21303  0.60181  0.63824  1.0000
  C   C1        1.0  0.59550  0.92610  0.26830  1.0000
  C   C2        1.0  0.40450  0.42610  0.23170  1.0000
  C   C3        1.0  0.40450  0.07390  0.73170  1.0000
  C   C4        1.0  0.59550  0.57390  0.76830  1.0000
  H   H1        1.0  0.61040  0.98220  0.25710  1.0000
  H   H2        1.0  0.38960  0.48220  0.24290  1.0000
  H   H3        1.0  0.38960  0.01780  0.74290  1.0000
  H   H4        1.0  0.61040  0.51780  0.75710  1.0000
  C   C5        1.0  0.57640  0.91500  0.32020  1.0000
  C   C6        1.0  0.42360  0.41500  0.17980  1.0000
  C   C7        1.0  0.42360  0.08500  0.67980  1.0000
  C   C8        1.0  0.57640  0.58500  0.82020  1.0000
  H   H5        1.0  0.57980  0.96280  0.34370  1.0000
  H   H6        1.0  0.42020  0.46280  0.15630  1.0000
  H   H7        1.0  0.42020  0.03720  0.65630  1.0000
  H   H8        1.0  0.57980  0.53720  0.84370  1.0000
  C   C9        1.0  0.55160  0.83170  0.33880  1.0000
  C   C10       1.0  0.44840  0.33170  0.16120  1.0000
  C   C11       1.0  0.44840  0.16830  0.66120  1.0000
  C   C12       1.0  0.55160  0.66830  0.83880  1.0000
  C   C13       1.0  0.54960  0.76430  0.30100  1.0000
  C   C14       1.0  0.45040  0.26430  0.19900  1.0000
  C   C15       1.0  0.45040  0.23570  0.69900  1.0000
  C   C16       1.0  0.54960  0.73570  0.80100  1.0000
  H   H9        1.0  0.53370  0.70780  0.31080  1.0000
  H   H10       1.0  0.46630  0.20780  0.18920  1.0000
  H   H11       1.0  0.46630  0.29220  0.68920  1.0000
  H   H12       1.0  0.53370  0.79220  0.81080  1.0000
  C   C17       1.0  0.57070  0.77970  0.24950  1.0000
  C   C18       1.0  0.42930  0.27970  0.25050  1.0000
  C   C19       1.0  0.42930  0.22030  0.75050  1.0000
  C   C20       1.0  0.57070  0.72030  0.74950  1.0000
  H   H13       1.0  0.56900  0.73280  0.22530  1.0000
  H   H14       1.0  0.43100  0.23280  0.27470  1.0000
  H   H15       1.0  0.43100  0.26720  0.77470  1.0000
  H   H16       1.0  0.56900  0.76720  0.72530  1.0000
  C   C21       1.0  0.53030  0.82350  0.39450  1.0000
  C   C22       1.0  0.46970  0.32350  0.10550  1.0000
  C   C23       1.0  0.46970  0.17650  0.60550  1.0000
  C   C24       1.0  0.53030  0.67650  0.89450  1.0000
  C   C25       1.0  0.53630  0.85970  0.47850  1.0000
  C   C26       1.0  0.46370  0.35970  0.02150  1.0000
  C   C27       1.0  0.46370  0.14030  0.52150  1.0000
  C   C28       1.0  0.53630  0.64030  0.97850  1.0000
  C   C29       1.0  0.47960  0.76320  0.42050  1.0000
  C   C30       1.0  0.52040  0.26320  0.07950  1.0000
  C   C31       1.0  0.52040  0.23680  0.57950  1.0000
  C   C32       1.0  0.47960  0.73680  0.92050  1.0000
  C   C33       1.0  0.55850  0.90690  0.52900  1.0000
  C   C34       1.0  0.44150  0.40690  0.97100  1.0000
  C   C35       1.0  0.44150  0.09310  0.47100  1.0000
  C   C36       1.0  0.55850  0.59310  0.02900  1.0000
  C   C37       1.0  0.61300  0.97860  0.52970  1.0000
  C   C38       1.0  0.38700  0.47860  0.97030  1.0000
  C   C39       1.0  0.38700  0.02140  0.47030  1.0000
  C   C40       1.0  0.61300  0.52140  0.02970  1.0000
  H   H17       1.0  0.63520  0.99710  0.49810  1.0000
  H   H18       1.0  0.36480  0.49710  0.00190  1.0000
  H   H19       1.0  0.36480  0.00290  0.50190  1.0000
  H   H20       1.0  0.63520  0.50290  0.99810  1.0000
  C   C41       1.0  0.63440  0.02230  0.57760  1.0000
  C   C42       1.0  0.36560  0.52230  0.92240  1.0000
  C   C43       1.0  0.36560  0.97770  0.42240  1.0000
  C   C44       1.0  0.63440  0.47770  0.07760  1.0000
  H   H21       1.0  0.67050  0.07070  0.57850  1.0000
  H   H22       1.0  0.32950  0.57070  0.92150  1.0000
  H   H23       1.0  0.32950  0.92930  0.42150  1.0000
  H   H24       1.0  0.67050  0.42930  0.07850  1.0000
  C   C45       1.0  0.54890  0.92530  0.62320  1.0000
  C   C46       1.0  0.45110  0.42530  0.87680  1.0000
  C   C47       1.0  0.45110  0.07470  0.37680  1.0000
  C   C48       1.0  0.54890  0.57470  0.12320  1.0000
  H   H25       1.0  0.52750  0.90760  0.65530  1.0000
  H   H26       1.0  0.47250  0.40760  0.84470  1.0000
  H   H27       1.0  0.47250  0.09240  0.34470  1.0000
  H   H28       1.0  0.52750  0.59240  0.15530  1.0000
  C   C49       1.0  0.52570  0.88110  0.57640  1.0000
  C   C50       1.0  0.47430  0.38110  0.92360  1.0000
  C   C51       1.0  0.47430  0.11890  0.42360  1.0000
  C   C52       1.0  0.52570  0.61890  0.07640  1.0000
  H   H29       1.0  0.48820  0.83390  0.57650  1.0000
  H   H30       1.0  0.51180  0.33390  0.92350  1.0000
  H   H31       1.0  0.51180  0.16610  0.42350  1.0000
  H   H32       1.0  0.48820  0.66610  0.07650  1.0000
  C   C53       1.0  0.43270  0.68300  0.40280  1.0000
  C   C54       1.0  0.56730  0.18300  0.09720  1.0000
  C   C55       1.0  0.56730  0.31700  0.59720  1.0000
  C   C56       1.0  0.43270  0.81700  0.90280  1.0000
  C   C57       1.0  0.43110  0.61090  0.43790  1.0000
  C   C58       1.0  0.56890  0.11090  0.06210  1.0000
  C   C59       1.0  0.56890  0.38910  0.56210  1.0000
  C   C60       1.0  0.43110  0.88910  0.93790  1.0000
  H   H33       1.0  0.45350  0.61540  0.47340  1.0000
  H   H34       1.0  0.54650  0.11540  0.02660  1.0000
  H   H35       1.0  0.54650  0.38460  0.52660  1.0000
  H   H36       1.0  0.45350  0.88460  0.97340  1.0000
  C   C61       1.0  0.39520  0.53210  0.41850  1.0000
  C   C62       1.0  0.60480  0.03210  0.08150  1.0000
  C   C63       1.0  0.60480  0.46790  0.58150  1.0000
  C   C64       1.0  0.39520  0.96790  0.91850  1.0000
  H   H37       1.0  0.39400  0.48470  0.44210  1.0000
  H   H38       1.0  0.60600  0.98470  0.05790  1.0000
  H   H39       1.0  0.60600  0.51530  0.55790  1.0000
  H   H40       1.0  0.39400  0.01530  0.94210  1.0000
  C   C65       1.0  0.35810  0.59280  0.33650  1.0000
  C   C66       1.0  0.64190  0.09280  0.16350  1.0000
  C   C67       1.0  0.64190  0.40720  0.66350  1.0000
  C   C68       1.0  0.35810  0.90720  0.83650  1.0000
  H   H41       1.0  0.33110  0.58790  0.30210  1.0000
  H   H42       1.0  0.66890  0.08790  0.19790  1.0000
  H   H43       1.0  0.66890  0.41210  0.69790  1.0000
  H   H44       1.0  0.33110  0.91210  0.80210  1.0000
  C   C69       1.0  0.39230  0.67450  0.35260  1.0000
  C   C70       1.0  0.60770  0.17450  0.14740  1.0000
  C   C71       1.0  0.60770  0.32550  0.64740  1.0000
  C   C72       1.0  0.39230  0.82550  0.85260  1.0000
  H   H45       1.0  0.38760  0.72270  0.32950  1.0000
  H   H46       1.0  0.61240  0.22270  0.17050  1.0000
  H   H47       1.0  0.61240  0.27730  0.67050  1.0000
  H   H48       1.0  0.38760  0.77730  0.82950  1.0000
  C   C73       1.0  0.73040  0.72740  0.14380  1.0000
  C   C74       1.0  0.26960  0.22740  0.35620  1.0000
  C   C75       1.0  0.26960  0.27260  0.85620  1.0000
  C   C76       1.0  0.73040  0.77260  0.64380  1.0000
  H   H49       1.0  0.70890  0.70310  0.17430  1.0000
  H   H50       1.0  0.29110  0.20310  0.32570  1.0000
  H   H51       1.0  0.29110  0.29690  0.82570  1.0000
  H   H52       1.0  0.70890  0.79690  0.67430  1.0000
  C   C77       1.0  0.75780  0.67100  0.10550  1.0000
  C   C78       1.0  0.24220  0.17100  0.39450  1.0000
  C   C79       1.0  0.24220  0.32900  0.89450  1.0000
  C   C80       1.0  0.75780  0.82900  0.60550  1.0000
  H   H53       1.0  0.75570  0.61020  0.11040  1.0000
  H   H54       1.0  0.24430  0.11020  0.38960  1.0000
  H   H55       1.0  0.24430  0.38980  0.88960  1.0000
  H   H56       1.0  0.75570  0.88980  0.61040  1.0000
  C   C81       1.0  0.78890  0.70640  0.05880  1.0000
  C   C82       1.0  0.21110  0.20640  0.44120  1.0000
  C   C83       1.0  0.21110  0.29360  0.94120  1.0000
  C   C84       1.0  0.78890  0.79360  0.55880  1.0000
  C   C85       1.0  0.79380  0.79670  0.05450  1.0000
  C   C86       1.0  0.20620  0.29670  0.44550  1.0000
  C   C87       1.0  0.20620  0.20330  0.94550  1.0000
  C   C88       1.0  0.79380  0.70330  0.55450  1.0000
  H   H57       1.0  0.81490  0.82240  0.02430  1.0000
  H   H58       1.0  0.18510  0.32240  0.47570  1.0000
  H   H59       1.0  0.18510  0.17760  0.97570  1.0000
  H   H60       1.0  0.81490  0.67760  0.52430  1.0000
  C   C89       1.0  0.76690  0.84970  0.09600  1.0000
  C   C90       1.0  0.23310  0.34970  0.40400  1.0000
  C   C91       1.0  0.23310  0.15030  0.90400  1.0000
  C   C92       1.0  0.76690  0.65030  0.59600  1.0000
  H   H61       1.0  0.77270  0.91060  0.09340  1.0000
  H   H62       1.0  0.22730  0.41060  0.40660  1.0000
  H   H63       1.0  0.22730  0.08940  0.90660  1.0000
  H   H64       1.0  0.77270  0.58940  0.59340  1.0000
  C   C93       1.0  0.81120  0.65000  0.01400  1.0000
  C   C94       1.0  0.18880  0.15000  0.48600  1.0000
  C   C95       1.0  0.18880  0.35000  0.98600  1.0000
  C   C96       1.0  0.81120  0.85000  0.51400  1.0000
  C   C97       1.0  0.84720  0.56550  0.01080  1.0000
  C   C98       1.0  0.15280  0.06550  0.48920  1.0000
  C   C99       1.0  0.15280  0.43450  0.98920  1.0000
  C   C100      1.0  0.84720  0.93450  0.51080  1.0000
  C   C101      1.0  0.81470  0.60760  0.92980  1.0000
  C   C102      1.0  0.18530  0.10760  0.57020  1.0000
  C   C103      1.0  0.18530  0.39240  0.07020  1.0000
  C   C104      1.0  0.81470  0.89240  0.42980  1.0000
  C   C105      1.0  0.88710  0.50950  0.05230  1.0000
  C   C106      1.0  0.11290  0.00950  0.44770  1.0000
  C   C107      1.0  0.11290  0.49050  0.94770  1.0000
  C   C108      1.0  0.88710  0.99050  0.55230  1.0000
  C   C109      1.0  0.91830  0.53900  0.10240  1.0000
  C   C110      1.0  0.08170  0.03900  0.39760  1.0000
  C   C111      1.0  0.08170  0.46100  0.89760  1.0000
  C   C112      1.0  0.91830  0.96100  0.60240  1.0000
  H   H65       1.0  0.91470  0.59860  0.11080  1.0000
  H   H66       1.0  0.08530  0.09860  0.38920  1.0000
  H   H67       1.0  0.08530  0.40140  0.88920  1.0000
  H   H68       1.0  0.91470  0.90140  0.61080  1.0000
  C   C113      1.0  0.95450  0.48180  0.13960  1.0000
  C   C114      1.0  0.04550  0.98180  0.36040  1.0000
  C   C115      1.0  0.04550  0.51820  0.86040  1.0000
  C   C116      1.0  0.95450  0.01820  0.63960  1.0000
  H   H69       1.0  0.97340  0.50200  0.17370  1.0000
  H   H70       1.0  0.02660  0.00200  0.32630  1.0000
  H   H71       1.0  0.02660  0.49800  0.82630  1.0000
  H   H72       1.0  0.97340  0.99800  0.67370  1.0000
  C   C117      1.0  0.93670  0.36560  0.07910  1.0000
  C   C118      1.0  0.06330  0.86560  0.42090  1.0000
  C   C119      1.0  0.06330  0.63440  0.92090  1.0000
  C   C120      1.0  0.93670  0.13440  0.57910  1.0000
  H   H73       1.0  0.94470  0.30620  0.07160  1.0000
  H   H74       1.0  0.05530  0.80620  0.42840  1.0000
  H   H75       1.0  0.05530  0.69380  0.92840  1.0000
  H   H76       1.0  0.94470  0.19380  0.57160  1.0000
  C   C121      1.0  0.89810  0.42000  0.04030  1.0000
  C   C122      1.0  0.10190  0.92000  0.45970  1.0000
  C   C123      1.0  0.10190  0.58000  0.95970  1.0000
  C   C124      1.0  0.89810  0.08000  0.54030  1.0000
  H   H77       1.0  0.87970  0.39770  0.00670  1.0000
  H   H78       1.0  0.12030  0.89770  0.49330  1.0000
  H   H79       1.0  0.12030  0.60230  0.99330  1.0000
  H   H80       1.0  0.87970  0.10230  0.50670  1.0000
  C   C125      1.0  0.80540  0.60940  0.87120  1.0000
  C   C126      1.0  0.19460  0.10940  0.62880  1.0000
  C   C127      1.0  0.19460  0.39060  0.12880  1.0000
  C   C128      1.0  0.80540  0.89060  0.37120  1.0000
  C   C129      1.0  0.82140  0.53190  0.84310  1.0000
  C   C130      1.0  0.17860  0.03190  0.65690  1.0000
  C   C131      1.0  0.17860  0.46810  0.15690  1.0000
  C   C132      1.0  0.82140  0.96810  0.34310  1.0000
  H   H81       1.0  0.83250  0.47930  0.86160  1.0000
  H   H82       1.0  0.16750  0.97930  0.63840  1.0000
  H   H83       1.0  0.16750  0.52070  0.13840  1.0000
  H   H84       1.0  0.83250  0.02070  0.36160  1.0000
  C   C133      1.0  0.82060  0.53440  0.78800  1.0000
  C   C134      1.0  0.17940  0.03440  0.71200  1.0000
  C   C135      1.0  0.17940  0.46560  0.21200  1.0000
  C   C136      1.0  0.82060  0.96560  0.28800  1.0000
  H   H85       1.0  0.83410  0.48410  0.76900  1.0000
  H   H86       1.0  0.16590  0.98410  0.73100  1.0000
  H   H87       1.0  0.16590  0.51590  0.23100  1.0000
  H   H88       1.0  0.83410  0.01590  0.26900  1.0000
  C   C137      1.0  0.78180  0.68290  0.78630  1.0000
  C   C138      1.0  0.21820  0.18290  0.71370  1.0000
  C   C139      1.0  0.21820  0.31710  0.21370  1.0000
  C   C140      1.0  0.78180  0.81710  0.28630  1.0000
  H   H89       1.0  0.76830  0.73360  0.76640  1.0000
  H   H90       1.0  0.23170  0.23360  0.73360  1.0000
  H   H91       1.0  0.23170  0.26640  0.23360  1.0000
  H   H92       1.0  0.76830  0.76640  0.26640  1.0000
  C   C141      1.0  0.78240  0.68440  0.84150  1.0000
  C   C142      1.0  0.21760  0.18440  0.65850  1.0000
  C   C143      1.0  0.21760  0.31560  0.15850  1.0000
  C   C144      1.0  0.78240  0.81560  0.34150  1.0000
  H   H93       1.0  0.76740  0.73570  0.85900  1.0000
  H   H94       1.0  0.23260  0.23570  0.64100  1.0000
  H   H95       1.0  0.23260  0.26430  0.14100  1.0000
  H   H96       1.0  0.76740  0.76430  0.35900  1.0000
  N   N1        1.0  0.59350  0.85960  0.23228  1.0000
  N   N2        1.0  0.40650  0.35960  0.26772  1.0000
  N   N3        1.0  0.40650  0.14040  0.76772  1.0000
  N   N4        1.0  0.59350  0.64040  0.73228  1.0000
  N   N5        1.0  0.56450  0.88310  0.43178  1.0000
  N   N6        1.0  0.43550  0.38310  0.06822  1.0000
  N   N7        1.0  0.43550  0.11690  0.56822  1.0000
  N   N8        1.0  0.56450  0.61690  0.93178  1.0000
  N   N9        1.0  0.48470  0.78850  0.47293  1.0000
  N   N10       1.0  0.51530  0.28850  0.02707  1.0000
  N   N11       1.0  0.51530  0.21150  0.52707  1.0000
  N   N12       1.0  0.48470  0.71150  0.97293  1.0000
  H   H97       1.0  0.45960  0.76350  0.49830  1.0000
  H   H98       1.0  0.54040  0.26350  0.00170  1.0000
  H   H99       1.0  0.54040  0.23650  0.50170  1.0000
  H   H100      1.0  0.45960  0.73650  0.99830  1.0000
  N   N13       1.0  0.60170  0.99340  0.62289  1.0000
  N   N14       1.0  0.39830  0.49340  0.87711  1.0000
  N   N15       1.0  0.39830  0.00660  0.37711  1.0000
  N   N16       1.0  0.60170  0.50660  0.12289  1.0000
  H   H101      1.0  0.61570  0.02000  0.65270  1.0000
  H   H102      1.0  0.38430  0.52000  0.84730  1.0000
  H   H103      1.0  0.38430  0.98000  0.34730  1.0000
  H   H104      1.0  0.61570  0.48000  0.15270  1.0000
  N   N17       1.0  0.36270  0.52050  0.36880  1.0000
  N   N18       1.0  0.63730  0.02050  0.13120  1.0000
  N   N19       1.0  0.63730  0.47950  0.63120  1.0000
  N   N20       1.0  0.36270  0.97950  0.86880  1.0000
  N   N21       1.0  0.73300  0.81580  0.13950  1.0000
  N   N22       1.0  0.26700  0.31580  0.36050  1.0000
  N   N23       1.0  0.26700  0.18420  0.86050  1.0000
  N   N24       1.0  0.73300  0.68420  0.63950  1.0000
  N   N25       1.0  0.84700  0.54100  0.95775  1.0000
  N   N26       1.0  0.15300  0.04100  0.54225  1.0000
  N   N27       1.0  0.15300  0.45900  0.04225  1.0000
  N   N28       1.0  0.84700  0.95900  0.45775  1.0000
  N   N29       1.0  0.79280  0.67500  0.96204  1.0000
  N   N30       1.0  0.20720  0.17500  0.53796  1.0000
  N   N31       1.0  0.20720  0.32500  0.03796  1.0000
  N   N32       1.0  0.79280  0.82500  0.46204  1.0000
  H   H105      1.0  0.77120  0.72470  0.95140  1.0000
  H   H106      1.0  0.22880  0.22470  0.54860  1.0000
  H   H107      1.0  0.22880  0.27530  0.04860  1.0000
  H   H108      1.0  0.77120  0.77530  0.45140  1.0000
  N   N33       1.0  0.96260  0.39750  0.12720  1.0000
  N   N34       1.0  0.03740  0.89750  0.37280  1.0000
  N   N35       1.0  0.03740  0.60250  0.87280  1.0000
  N   N36       1.0  0.96260  0.10250  0.62720  1.0000
  H   H109      1.0  0.98540  0.36210  0.15110  1.0000
  H   H110      1.0  0.01460  0.86210  0.34890  1.0000
  H   H111      1.0  0.01460  0.63790  0.84890  1.0000
  H   H112      1.0  0.98540  0.13790  0.65110  1.0000
  N   N37       1.0  0.80030  0.60930  0.76160  1.0000
  N   N38       1.0  0.19970  0.10930  0.73840  1.0000
  N   N39       1.0  0.19970  0.39070  0.23840  1.0000
  N   N40       1.0  0.80030  0.89070  0.26160  1.0000
  H   H113      1.0  0.79920  0.60930  0.72700  1.0000
  H   H114      1.0  0.20080  0.10930  0.77300  1.0000
  H   H115      1.0  0.20080  0.39070  0.27300  1.0000
  H   H116      1.0  0.79920  0.89070  0.22700  1.0000
  Mo  Mo1       1.0  0.42231  0.86070  0.10695  1.0000
  Mo  Mo2       1.0  0.57769  0.36070  0.39305  1.0000
  Mo  Mo3       1.0  0.57769  0.13930  0.89305  1.0000
  Mo  Mo4       1.0  0.42231  0.63930  0.60695  1.0000
  Mo  Mo5       1.0  0.31315  0.07416  0.07541  1.0000
  Mo  Mo6       1.0  0.68685  0.57416  0.42459  1.0000
  Mo  Mo7       1.0  0.68685  0.92584  0.92459  1.0000
  Mo  Mo8       1.0  0.31315  0.42584  0.57541  1.0000
  Mo  Mo9       1.0  0.37084  0.00952  0.21772  1.0000
  Mo  Mo10      1.0  0.62916  0.50952  0.28228  1.0000
  Mo  Mo11      1.0  0.62916  0.99048  0.78228  1.0000
  Mo  Mo12      1.0  0.37084  0.49048  0.71772  1.0000
  Mo  Mo13      1.0  0.32864  0.70965  0.18014  1.0000
  Mo  Mo14      1.0  0.67136  0.20965  0.31986  1.0000
  Mo  Mo15      1.0  0.67136  0.29035  0.81986  1.0000
  Mo  Mo16      1.0  0.32864  0.79035  0.68014  1.0000
  Mo  Mo17      1.0  0.26914  0.73011  0.04837  1.0000
  Mo  Mo18      1.0  0.73086  0.23011  0.45163  1.0000
  Mo  Mo19      1.0  0.73086  0.26989  0.95163  1.0000
  Mo  Mo20      1.0  0.26914  0.76989  0.54837  1.0000
  Mo  Mo21      1.0  0.18055  0.94463  0.99925  1.0000
  Mo  Mo22      1.0  0.81945  0.44463  0.50075  1.0000
  Mo  Mo23      1.0  0.81945  0.05537  0.00075  1.0000
  Mo  Mo24      1.0  0.18055  0.55537  0.49925  1.0000
  Mo  Mo25      1.0  0.24474  0.86583  0.27796  1.0000
  Mo  Mo26      1.0  0.75526  0.36583  0.22204  1.0000
  Mo  Mo27      1.0  0.75526  0.13417  0.72204  1.0000
  Mo  Mo28      1.0  0.24474  0.63417  0.77796  1.0000
  Mo  Mo29      1.0  0.10370  0.08652  0.08733  1.0000
  Mo  Mo30      1.0  0.89630  0.58652  0.41266  1.0000
  Mo  Mo31      1.0  0.89630  0.91348  0.91267  1.0000
  Mo  Mo32      1.0  0.10370  0.41348  0.58733  1.0000
  Mo  Mo33      1.0  0.16884  0.06117  0.23374  1.0000
  Mo  Mo34      1.0  0.83116  0.56117  0.26626  1.0000
  Mo  Mo35      1.0  0.83116  0.93883  0.76626  1.0000
  Mo  Mo36      1.0  0.16884  0.43883  0.73374  1.0000
  Mo  Mo37      1.0  0.09672  0.72453  0.19229  1.0000
  Mo  Mo38      1.0  0.90328  0.22453  0.30771  1.0000
  Mo  Mo39      1.0  0.90328  0.27547  0.80771  1.0000
  Mo  Mo40      1.0  0.09672  0.77547  0.69229  1.0000
  Mo  Mo41      1.0  0.04409  0.78708  0.06557  1.0000
  Mo  Mo42      1.0  0.95591  0.28708  0.43443  1.0000
  Mo  Mo43      1.0  0.95591  0.21292  0.93443  1.0000
  Mo  Mo44      1.0  0.04409  0.71292  0.56557  1.0000
  Mo  Mo45      1.0  0.99935  0.91951  0.16790  1.0000
  Mo  Mo46      1.0  0.00065  0.41951  0.33210  1.0000
  Mo  Mo47      1.0  0.00065  0.08049  0.83210  1.0000
  Mo  Mo48      1.0  0.99935  0.58049  0.66790  1.0000
  O   O1        1.0  0.52800  0.86060  0.10156  1.0000
  O   O2        1.0  0.47200  0.36060  0.39844  1.0000
  O   O3        1.0  0.47200  0.13940  0.89844  1.0000
  O   O4        1.0  0.52800  0.63940  0.60156  1.0000
  O   O5        1.0  0.38860  0.78330  0.05196  1.0000
  O   O6        1.0  0.61140  0.28330  0.44804  1.0000
  O   O7        1.0  0.61140  0.21670  0.94804  1.0000
  O   O8        1.0  0.38860  0.71670  0.55196  1.0000
  O   O9        1.0  0.38570  0.96190  0.07505  1.0000
  O   O10       1.0  0.61430  0.46190  0.42495  1.0000
  O   O11       1.0  0.61430  0.03810  0.92495  1.0000
  O   O12       1.0  0.38570  0.53810  0.57505  1.0000
  O   O13       1.0  0.41760  0.92540  0.17698  1.0000
  O   O14       1.0  0.58240  0.42540  0.32302  1.0000
  O   O15       1.0  0.58240  0.07460  0.82302  1.0000
  O   O16       1.0  0.41760  0.57460  0.67698  1.0000
  O   O17       1.0  0.42690  0.75510  0.15730  1.0000
  O   O18       1.0  0.57310  0.25510  0.34270  1.0000
  O   O19       1.0  0.57310  0.24490  0.84270  1.0000
  O   O20       1.0  0.42690  0.74490  0.65730  1.0000
  O   O21       1.0  0.38110  0.14650  0.05111  1.0000
  O   O22       1.0  0.61890  0.64650  0.44889  1.0000
  O   O23       1.0  0.61890  0.85350  0.94889  1.0000
  O   O24       1.0  0.38110  0.35350  0.55111  1.0000
  O   O25       1.0  0.34270  0.07270  0.14835  1.0000
  O   O26       1.0  0.65730  0.57270  0.35165  1.0000
  O   O27       1.0  0.65730  0.92730  0.85165  1.0000
  O   O28       1.0  0.34270  0.42730  0.64835  1.0000
  O   O29       1.0  0.45540  0.06800  0.24254  1.0000
  O   O30       1.0  0.54460  0.56800  0.25746  1.0000
  O   O31       1.0  0.54460  0.93200  0.75746  1.0000
  O   O32       1.0  0.45540  0.43200  0.74254  1.0000
  O   O33       1.0  0.35420  0.93970  0.27768  1.0000
  O   O34       1.0  0.64580  0.43970  0.22232  1.0000
  O   O35       1.0  0.64580  0.06030  0.72232  1.0000
  O   O36       1.0  0.35420  0.56030  0.77768  1.0000
  O   O37       1.0  0.31680  0.78200  0.23772  1.0000
  O   O38       1.0  0.68320  0.28200  0.26228  1.0000
  O   O39       1.0  0.68320  0.21800  0.76228  1.0000
  O   O40       1.0  0.31680  0.71800  0.73772  1.0000
  O   O41       1.0  0.36330  0.61490  0.20857  1.0000
  O   O42       1.0  0.63670  0.11490  0.29143  1.0000
  O   O43       1.0  0.63670  0.38510  0.79143  1.0000
  O   O44       1.0  0.36330  0.88510  0.70857  1.0000
  O   O45       1.0  0.30670  0.65900  0.10472  1.0000
  O   O46       1.0  0.69330  0.15900  0.39528  1.0000
  O   O47       1.0  0.69330  0.34100  0.89528  1.0000
  O   O48       1.0  0.30670  0.84100  0.60472  1.0000
  O   O49       1.0  0.28230  0.66470  0.99472  1.0000
  O   O50       1.0  0.71770  0.16470  0.50528  1.0000
  O   O51       1.0  0.71770  0.33530  0.00528  1.0000
  O   O52       1.0  0.28230  0.83530  0.49472  1.0000
  O   O53       1.0  0.24420  0.84610  0.01004  1.0000
  O   O54       1.0  0.75580  0.34610  0.48996  1.0000
  O   O55       1.0  0.75580  0.15390  0.98996  1.0000
  O   O56       1.0  0.24420  0.65390  0.51004  1.0000
  O   O57       1.0  0.26880  0.02580  0.00520  1.0000
  O   O58       1.0  0.73120  0.52580  0.49480  1.0000
  O   O59       1.0  0.73120  0.97420  0.99480  1.0000
  O   O60       1.0  0.26880  0.47420  0.50520  1.0000
  O   O61       1.0  0.28460  0.82670  0.12317  1.0000
  O   O62       1.0  0.71540  0.32670  0.37683  1.0000
  O   O63       1.0  0.71540  0.17330  0.87683  1.0000
  O   O64       1.0  0.28460  0.67330  0.62317  1.0000
  O   O65       1.0  0.21810  0.14500  0.07710  1.0000
  O   O66       1.0  0.78190  0.64500  0.42290  1.0000
  O   O67       1.0  0.78190  0.85500  0.92290  1.0000
  O   O68       1.0  0.21810  0.35500  0.57710  1.0000
  O   O69       1.0  0.28260  0.09210  0.24298  1.0000
  O   O70       1.0  0.71740  0.59210  0.25702  1.0000
  O   O71       1.0  0.71740  0.90790  0.75702  1.0000
  O   O72       1.0  0.28260  0.40790  0.74298  1.0000
  O   O73       1.0  0.26650  0.82830  0.34133  1.0000
  O   O74       1.0  0.73350  0.32830  0.15867  1.0000
  O   O75       1.0  0.73350  0.17170  0.65867  1.0000
  O   O76       1.0  0.26650  0.67170  0.84133  1.0000
  O   O77       1.0  0.20380  0.68930  0.18002  1.0000
  O   O78       1.0  0.79620  0.18930  0.31998  1.0000
  O   O79       1.0  0.79620  0.31070  0.81998  1.0000
  O   O80       1.0  0.20380  0.81070  0.68002  1.0000
  O   O81       1.0  0.15650  0.72650  0.05611  1.0000
  O   O82       1.0  0.84350  0.22650  0.44389  1.0000
  O   O83       1.0  0.84350  0.27350  0.94389  1.0000
  O   O84       1.0  0.15650  0.77350  0.55611  1.0000
  O   O85       1.0  0.15670  0.94560  0.93209  1.0000
  O   O86       1.0  0.84330  0.44560  0.56791  1.0000
  O   O87       1.0  0.84330  0.05440  0.06791  1.0000
  O   O88       1.0  0.15670  0.55440  0.43209  1.0000
  O   O89       1.0  0.20660  0.97500  0.09256  1.0000
  O   O90       1.0  0.79340  0.47500  0.40744  1.0000
  O   O91       1.0  0.79340  0.02500  0.90744  1.0000
  O   O92       1.0  0.20660  0.52500  0.59256  1.0000
  O   O93       1.0  0.24080  0.94190  0.19681  1.0000
  O   O94       1.0  0.75920  0.44190  0.30319  1.0000
  O   O95       1.0  0.75920  0.05810  0.80319  1.0000
  O   O96       1.0  0.24080  0.55810  0.69681  1.0000
  O   O97       1.0  0.04730  0.18060  0.08100  1.0000
  O   O98       1.0  0.95270  0.68060  0.41900  1.0000
  O   O99       1.0  0.95270  0.81940  0.91900  1.0000
  O   O100      1.0  0.04730  0.31940  0.58100  1.0000
  O   O101      1.0  0.14770  0.10200  0.16577  1.0000
  O   O102      1.0  0.85230  0.60200  0.33423  1.0000
  O   O103      1.0  0.85230  0.89800  0.83423  1.0000
  O   O104      1.0  0.14770  0.39800  0.66577  1.0000
  O   O105      1.0  0.12600  0.13810  0.27205  1.0000
  O   O106      1.0  0.87400  0.63810  0.22795  1.0000
  O   O107      1.0  0.87400  0.86190  0.72795  1.0000
  O   O108      1.0  0.12600  0.36190  0.77205  1.0000
  O   O109      1.0  0.19120  0.97100  0.29174  1.0000
  O   O110      1.0  0.80880  0.47100  0.20826  1.0000
  O   O111      1.0  0.80880  0.02900  0.70826  1.0000
  O   O112      1.0  0.19120  0.52900  0.79174  1.0000
  O   O113      1.0  0.15610  0.80150  0.25160  1.0000
  O   O114      1.0  0.84390  0.30150  0.24840  1.0000
  O   O115      1.0  0.84390  0.19850  0.74840  1.0000
  O   O116      1.0  0.15610  0.69850  0.75160  1.0000
  O   O117      1.0  0.06340  0.64150  0.23071  1.0000
  O   O118      1.0  0.93660  0.14150  0.26929  1.0000
  O   O119      1.0  0.93660  0.35850  0.76929  1.0000
  O   O120      1.0  0.06340  0.85850  0.73071  1.0000
  O   O121      1.0  0.04490  0.69800  0.12639  1.0000
  O   O122      1.0  0.95510  0.19800  0.37361  1.0000
  O   O123      1.0  0.95510  0.30200  0.87361  1.0000
  O   O124      1.0  0.04490  0.80200  0.62639  1.0000
  O   O125      1.0  0.98240  0.72750  0.02104  1.0000
  O   O126      1.0  0.01760  0.22750  0.47896  1.0000
  O   O127      1.0  0.01760  0.27250  0.97896  1.0000
  O   O128      1.0  0.98240  0.77250  0.52104  1.0000
  O   O129      1.0  0.08570  0.87510  0.02510  1.0000
  O   O130      1.0  0.91430  0.37510  0.47490  1.0000
  O   O131      1.0  0.91430  0.12490  0.97490  1.0000
  O   O132      1.0  0.08570  0.62490  0.52510  1.0000
  O   O133      1.0  0.10470  0.04670  0.01820  1.0000
  O   O134      1.0  0.89530  0.54670  0.48180  1.0000
  O   O135      1.0  0.89530  0.95330  0.98180  1.0000
  O   O136      1.0  0.10470  0.45330  0.51820  1.0000
  O   O137      1.0  0.12210  0.84940  0.14074  1.0000
  O   O138      1.0  0.87790  0.34940  0.35926  1.0000
  O   O139      1.0  0.87790  0.15060  0.85926  1.0000
  O   O140      1.0  0.12210  0.65060  0.64074  1.0000
  O   O141      1.0  0.03090  0.00840  0.11384  1.0000
  O   O142      1.0  0.96910  0.50840  0.38616  1.0000
  O   O143      1.0  0.96910  0.99160  0.88616  1.0000
  O   O144      1.0  0.03090  0.49160  0.61384  1.0000
  O   O145      1.0  0.06750  0.98130  0.21619  1.0000
  O   O146      1.0  0.93250  0.48130  0.28381  1.0000
  O   O147      1.0  0.93250  0.01870  0.78381  1.0000
  O   O148      1.0  0.06750  0.51870  0.71619  1.0000
  O   O149      1.0  0.00390  0.81180  0.20327  1.0000
  O   O150      1.0  0.99610  0.31180  0.29673  1.0000
  O   O151      1.0  0.99610  0.18820  0.79673  1.0000
  O   O152      1.0  0.00390  0.68820  0.70327  1.0000
  O   O153      1.0  0.96650  0.85050  0.10021  1.0000
  O   O154      1.0  0.03350  0.35050  0.39979  1.0000
  O   O155      1.0  0.03350  0.14950  0.89979  1.0000
  O   O156      1.0  0.96650  0.64950  0.60021  1.0000
  O   O157      1.0  0.90100  0.95390  0.17993  1.0000
  O   O158      1.0  0.09900  0.45390  0.32007  1.0000
  O   O159      1.0  0.09900  0.04610  0.82007  1.0000
  O   O160      1.0  0.90100  0.54610  0.67993  1.0000
