data_image0
_chemical_formula_structural       Zn12S12O12C4O60C4H4C12H4C12H4C4H4C12H4C4H4N4C4H4C8N4C8H4C4H4C4H4C12H4C20H4C8H4C4H4C4H4C4H4C4H4O12H4
_chemical_formula_sum              "Zn12 S12 O84 C136 H72 N8"
_cell_length_a       17.614
_cell_length_b       21.916
_cell_length_c       18.046
_cell_angle_alpha    90
_cell_angle_beta     105.64
_cell_angle_gamma    90

_space_group_name_H-M_alt    "P 1"
_space_group_IT_number       1

loop_
  _space_group_symop_operation_xyz
  'x, y, z'

loop_
  _atom_site_type_symbol
  _atom_site_label
  _atom_site_symmetry_multiplicity
  _atom_site_fract_x
  _atom_site_fract_y
  _atom_site_fract_z
  _atom_site_occupancy
  Zn  Zn1       1.0  0.49405  0.17977  0.49215  1.0000
  Zn  Zn2       1.0  0.50595  0.67977  0.00785  1.0000
  Zn  Zn3       1.0  0.50595  0.82023  0.50785  1.0000
  Zn  Zn4       1.0  0.49405  0.32023  0.99215  1.0000
  Zn  Zn5       1.0  0.30802  0.23757  0.48934  1.0000
  Zn  Zn6       1.0  0.69198  0.73757  0.01066  1.0000
  Zn  Zn7       1.0  0.69198  0.76243  0.51066  1.0000
  Zn  Zn8       1.0  0.30802  0.26243  0.98934  1.0000
  Zn  Zn9       1.0  0.67548  0.25715  0.98931  1.0000
  Zn  Zn10      1.0  0.32452  0.75715  0.51069  1.0000
  Zn  Zn11      1.0  0.32452  0.74285  0.01069  1.0000
  Zn  Zn12      1.0  0.67548  0.24285  0.48931  1.0000
  S   S1        1.0  0.06994  0.98876  0.35536  1.0000
  S   S2        1.0  0.93006  0.48876  0.14464  1.0000
  S   S3        1.0  0.93006  0.01124  0.64464  1.0000
  S   S4        1.0  0.06994  0.51124  0.85536  1.0000
  S   S5        1.0  0.63665  0.12333  0.87713  1.0000
  S   S6        1.0  0.36335  0.62333  0.62287  1.0000
  S   S7        1.0  0.36335  0.87667  0.12287  1.0000
  S   S8        1.0  0.63665  0.37667  0.37713  1.0000
  S   S9        1.0  0.34036  0.36499  0.60605  1.0000
  S   S10       1.0  0.65964  0.86499  0.89395  1.0000
  S   S11       1.0  0.65964  0.63501  0.39395  1.0000
  S   S12       1.0  0.34036  0.13501  0.10605  1.0000
  O   O1        1.0  0.34980  0.19990  0.59540  1.0000
  O   O2        1.0  0.65020  0.69990  0.90460  1.0000
  O   O3        1.0  0.65020  0.80010  0.40460  1.0000
  O   O4        1.0  0.34980  0.30010  0.09540  1.0000
  O   O5        1.0  0.66770  0.16208  0.94560  1.0000
  O   O6        1.0  0.33230  0.66208  0.55440  1.0000
  O   O7        1.0  0.33230  0.83792  0.05440  1.0000
  O   O8        1.0  0.66770  0.33792  0.44560  1.0000
  O   O9        1.0  0.31850  0.33208  0.53320  1.0000
  O   O10       1.0  0.68150  0.83208  0.96680  1.0000
  O   O11       1.0  0.68150  0.66792  0.46680  1.0000
  O   O12       1.0  0.31850  0.16792  0.03320  1.0000
  C   C1        1.0  0.29620  0.05050  0.42230  1.0000
  C   C2        1.0  0.70380  0.55050  0.07770  1.0000
  C   C3        1.0  0.70380  0.94950  0.57770  1.0000
  C   C4        1.0  0.29620  0.44950  0.92230  1.0000
  O   O13       1.0  0.40440  0.24323  0.95150  1.0000
  O   O14       1.0  0.59560  0.74323  0.54850  1.0000
  O   O15       1.0  0.59560  0.75677  0.04850  1.0000
  O   O16       1.0  0.40440  0.25677  0.45150  1.0000
  O   O17       1.0  0.40950  0.11198  0.45940  1.0000
  O   O18       1.0  0.59050  0.61198  0.04060  1.0000
  O   O19       1.0  0.59050  0.88802  0.54060  1.0000
  O   O20       1.0  0.40950  0.38802  0.95940  1.0000
  O   O21       1.0  0.68790  0.28867  0.61820  1.0000
  O   O22       1.0  0.31210  0.78867  0.88180  1.0000
  O   O23       1.0  0.31210  0.71133  0.38180  1.0000
  O   O24       1.0  0.68790  0.21133  0.11820  1.0000
  O   O25       1.0  0.29620  0.21732  0.86300  1.0000
  O   O26       1.0  0.70380  0.71732  0.63700  1.0000
  O   O27       1.0  0.70380  0.78268  0.13700  1.0000
  O   O28       1.0  0.29620  0.28268  0.36300  1.0000
  O   O29       1.0  0.51160  0.31945  0.88800  1.0000
  O   O30       1.0  0.48840  0.81945  0.61200  1.0000
  O   O31       1.0  0.48840  0.68055  0.11200  1.0000
  O   O32       1.0  0.51160  0.18055  0.38800  1.0000
  O   O33       1.0  0.58040  0.26020  0.52910  1.0000
  O   O34       1.0  0.41960  0.76020  0.97090  1.0000
  O   O35       1.0  0.41960  0.73980  0.47090  1.0000
  O   O36       1.0  0.58040  0.23980  0.02910  1.0000
  O   O37       1.0  0.41820  0.88434  0.46770  1.0000
  O   O38       1.0  0.58180  0.38434  0.03230  1.0000
  O   O39       1.0  0.58180  0.11566  0.53230  1.0000
  O   O40       1.0  0.41820  0.61566  0.96770  1.0000
  O   O41       1.0  0.63260  0.29296  0.88410  1.0000
  O   O42       1.0  0.36740  0.79296  0.61590  1.0000
  O   O43       1.0  0.36740  0.70704  0.11590  1.0000
  O   O44       1.0  0.63260  0.20704  0.38410  1.0000
  O   O45       1.0  0.47650  0.18463  0.59660  1.0000
  O   O46       1.0  0.52350  0.68463  0.90340  1.0000
  O   O47       1.0  0.52350  0.81537  0.40340  1.0000
  O   O48       1.0  0.47650  0.31537  0.09660  1.0000
  O   O49       1.0  0.29300  0.35020  0.65800  1.0000
  O   O50       1.0  0.70700  0.85020  0.84200  1.0000
  O   O51       1.0  0.70700  0.64980  0.34200  1.0000
  O   O52       1.0  0.29300  0.14980  0.15800  1.0000
  O   O53       1.0  0.62320  0.06055  0.89890  1.0000
  O   O54       1.0  0.37680  0.56055  0.60110  1.0000
  O   O55       1.0  0.37680  0.93945  0.10110  1.0000
  O   O56       1.0  0.62320  0.43945  0.39890  1.0000
  O   O57       1.0  0.30400  0.83510  0.44630  1.0000
  O   O58       1.0  0.69600  0.33510  0.05370  1.0000
  O   O59       1.0  0.69600  0.16490  0.55370  1.0000
  O   O60       1.0  0.30400  0.66490  0.94630  1.0000
  O   O61       1.0  0.29090  0.15899  0.42730  1.0000
  O   O62       1.0  0.70910  0.65899  0.07270  1.0000
  O   O63       1.0  0.70910  0.84101  0.57270  1.0000
  O   O64       1.0  0.29090  0.34101  0.92730  1.0000
  O   O65       1.0  0.34320  0.43057  0.59330  1.0000
  O   O66       1.0  0.65680  0.93057  0.90670  1.0000
  O   O67       1.0  0.65680  0.56943  0.40670  1.0000
  O   O68       1.0  0.34320  0.06943  0.09330  1.0000
  O   O69       1.0  0.68440  0.12690  0.82430  1.0000
  O   O70       1.0  0.31560  0.62690  0.67570  1.0000
  O   O71       1.0  0.31560  0.87310  0.17570  1.0000
  O   O72       1.0  0.68440  0.37310  0.32430  1.0000
  C   C5        1.0  0.39300  0.19720  0.75770  1.0000
  C   C6        1.0  0.60700  0.69720  0.74230  1.0000
  C   C7        1.0  0.60700  0.80280  0.24230  1.0000
  C   C8        1.0  0.39300  0.30280  0.25770  1.0000
  H   H1        1.0  0.34200  0.21020  0.73410  1.0000
  H   H2        1.0  0.65800  0.71020  0.76590  1.0000
  H   H3        1.0  0.65800  0.78980  0.26590  1.0000
  H   H4        1.0  0.34200  0.28980  0.23410  1.0000
  C   C9        1.0  0.30020  0.94090  0.42690  1.0000
  C   C10       1.0  0.69980  0.44090  0.07310  1.0000
  C   C11       1.0  0.69980  0.05910  0.57310  1.0000
  C   C12       1.0  0.30020  0.55910  0.92690  1.0000
  C   C13       1.0  0.53980  0.32000  0.76840  1.0000
  C   C14       1.0  0.46020  0.82000  0.73160  1.0000
  C   C15       1.0  0.46020  0.68000  0.23160  1.0000
  C   C16       1.0  0.53980  0.18000  0.26840  1.0000
  C   C17       1.0  0.59250  0.30460  0.72390  1.0000
  C   C18       1.0  0.40750  0.80460  0.77610  1.0000
  C   C19       1.0  0.40750  0.69540  0.27610  1.0000
  C   C20       1.0  0.59250  0.19540  0.22390  1.0000
  H   H5        1.0  0.64450  0.29410  0.74780  1.0000
  H   H6        1.0  0.35550  0.79410  0.75220  1.0000
  H   H7        1.0  0.35550  0.70590  0.25220  1.0000
  H   H8        1.0  0.64450  0.20590  0.24780  1.0000
  C   C21       1.0  0.56520  0.30560  0.64390  1.0000
  C   C22       1.0  0.43480  0.80560  0.85610  1.0000
  C   C23       1.0  0.43480  0.69440  0.35610  1.0000
  C   C24       1.0  0.56520  0.19440  0.14390  1.0000
  C   C25       1.0  0.36990  0.22010  0.88570  1.0000
  C   C26       1.0  0.63010  0.72010  0.61430  1.0000
  C   C27       1.0  0.63010  0.77990  0.11430  1.0000
  C   C28       1.0  0.36990  0.27990  0.38570  1.0000
  C   C29       1.0  0.21860  0.93850  0.40240  1.0000
  C   C30       1.0  0.78140  0.43850  0.09760  1.0000
  C   C31       1.0  0.78140  0.06150  0.59760  1.0000
  C   C32       1.0  0.21860  0.56150  0.90240  1.0000
  H   H9        1.0  0.19310  0.90100  0.39490  1.0000
  H   H10       1.0  0.80690  0.40100  0.10510  1.0000
  H   H11       1.0  0.80690  0.09900  0.60510  1.0000
  H   H12       1.0  0.19310  0.59900  0.89490  1.0000
  C   C33       1.0  0.51790  0.15590  0.74950  1.0000
  C   C34       1.0  0.48210  0.65590  0.75050  1.0000
  C   C35       1.0  0.48210  0.84410  0.25050  1.0000
  C   C36       1.0  0.51790  0.34410  0.24950  1.0000
  H   H13       1.0  0.55140  0.14310  0.72060  1.0000
  H   H14       1.0  0.44860  0.64310  0.77940  1.0000
  H   H15       1.0  0.44860  0.85690  0.27940  1.0000
  H   H16       1.0  0.55140  0.35690  0.22060  1.0000
  C   C37       1.0  0.41990  0.19610  0.83690  1.0000
  C   C38       1.0  0.58010  0.69610  0.66310  1.0000
  C   C39       1.0  0.58010  0.80390  0.16310  1.0000
  C   C40       1.0  0.41990  0.30390  0.33690  1.0000
  C   C41       1.0  0.43910  0.34250  0.65280  1.0000
  C   C42       1.0  0.56090  0.84250  0.84720  1.0000
  C   C43       1.0  0.56090  0.65750  0.34720  1.0000
  C   C44       1.0  0.43910  0.15750  0.15280  1.0000
  C   C45       1.0  0.48840  0.32580  0.60710  1.0000
  C   C46       1.0  0.51160  0.82580  0.89290  1.0000
  C   C47       1.0  0.51160  0.67420  0.39290  1.0000
  C   C48       1.0  0.48840  0.17420  0.10710  1.0000
  H   H17       1.0  0.47090  0.32800  0.55370  1.0000
  H   H18       1.0  0.52910  0.82800  0.94630  1.0000
  H   H19       1.0  0.52910  0.67200  0.44630  1.0000
  H   H20       1.0  0.47090  0.17200  0.05370  1.0000
  C   C49       1.0  0.33740  0.99590  0.43590  1.0000
  C   C50       1.0  0.66260  0.49590  0.06410  1.0000
  C   C51       1.0  0.66260  0.00410  0.56410  1.0000
  C   C52       1.0  0.33740  0.50410  0.93590  1.0000
  H   H21       1.0  0.39220  0.99690  0.45170  1.0000
  H   H22       1.0  0.60780  0.49690  0.04830  1.0000
  H   H23       1.0  0.60780  0.00310  0.54830  1.0000
  H   H24       1.0  0.39220  0.50310  0.95170  1.0000
  N   N1        1.0  0.79130  0.25230  0.99080  1.0000
  N   N2        1.0  0.20870  0.75230  0.50920  1.0000
  N   N3        1.0  0.20870  0.74770  0.00920  1.0000
  N   N4        1.0  0.79130  0.24770  0.49080  1.0000
  C   C53       1.0  0.21280  0.04910  0.39730  1.0000
  C   C54       1.0  0.78720  0.54910  0.10270  1.0000
  C   C55       1.0  0.78720  0.95090  0.60270  1.0000
  C   C56       1.0  0.21280  0.45090  0.89730  1.0000
  H   H25       1.0  0.18340  0.08490  0.38640  1.0000
  H   H26       1.0  0.81660  0.58490  0.11360  1.0000
  H   H27       1.0  0.81660  0.91510  0.61360  1.0000
  H   H28       1.0  0.18340  0.41510  0.88640  1.0000
  C   C57       1.0  0.61680  0.28380  0.59530  1.0000
  C   C58       1.0  0.38320  0.78380  0.90470  1.0000
  C   C59       1.0  0.38320  0.71620  0.40470  1.0000
  C   C60       1.0  0.61680  0.21620  0.09530  1.0000
  C   C61       1.0  0.54170  0.15280  0.83030  1.0000
  C   C62       1.0  0.45830  0.65280  0.66970  1.0000
  C   C63       1.0  0.45830  0.84720  0.16970  1.0000
  C   C64       1.0  0.54170  0.34720  0.33030  1.0000
  N   N5        1.0  0.19080  0.25840  0.98430  1.0000
  N   N6        1.0  0.80920  0.75840  0.51570  1.0000
  N   N7        1.0  0.80920  0.74160  0.01570  1.0000
  N   N8        1.0  0.19080  0.24160  0.48430  1.0000
  C   C65       1.0  0.44230  0.17890  0.71330  1.0000
  C   C66       1.0  0.55770  0.67890  0.78670  1.0000
  C   C67       1.0  0.55770  0.82110  0.28670  1.0000
  C   C68       1.0  0.44230  0.32110  0.21330  1.0000
  C   C69       1.0  0.88890  0.24390  0.92190  1.0000
  C   C70       1.0  0.11110  0.74390  0.57810  1.0000
  C   C71       1.0  0.11110  0.75610  0.07810  1.0000
  C   C72       1.0  0.88890  0.25610  0.42190  1.0000
  H   H29       1.0  0.90070  0.23670  0.87540  1.0000
  H   H30       1.0  0.09930  0.73670  0.62460  1.0000
  H   H31       1.0  0.09930  0.76330  0.12460  1.0000
  H   H32       1.0  0.90070  0.26330  0.37540  1.0000
  C   C73       1.0  0.49270  0.17370  0.87340  1.0000
  C   C74       1.0  0.50730  0.67370  0.62660  1.0000
  C   C75       1.0  0.50730  0.82630  0.12660  1.0000
  C   C76       1.0  0.49270  0.32630  0.37340  1.0000
  H   H33       1.0  0.50940  0.17250  0.92690  1.0000
  H   H34       1.0  0.49060  0.67250  0.57310  1.0000
  H   H35       1.0  0.49060  0.82750  0.07310  1.0000
  H   H36       1.0  0.50940  0.32750  0.42690  1.0000
  C   C77       1.0  0.92850  0.27390  0.05320  1.0000
  C   C78       1.0  0.07150  0.77390  0.44680  1.0000
  C   C79       1.0  0.07150  0.72610  0.94680  1.0000
  C   C80       1.0  0.92850  0.22610  0.55320  1.0000
  H   H37       1.0  0.96670  0.28720  0.09650  1.0000
  H   H38       1.0  0.03330  0.78720  0.40350  1.0000
  H   H39       1.0  0.03330  0.71280  0.90350  1.0000
  H   H40       1.0  0.96670  0.21280  0.59650  1.0000
  C   C81       1.0  0.33640  0.11130  0.43630  1.0000
  C   C82       1.0  0.66360  0.61130  0.06370  1.0000
  C   C83       1.0  0.66360  0.88870  0.56370  1.0000
  C   C84       1.0  0.33640  0.38870  0.93630  1.0000
  C   C85       1.0  0.42040  0.18800  0.62750  1.0000
  C   C86       1.0  0.57960  0.68800  0.87250  1.0000
  C   C87       1.0  0.57960  0.81200  0.37250  1.0000
  C   C88       1.0  0.42040  0.31200  0.12750  1.0000
  C   C89       1.0  0.46320  0.33920  0.73270  1.0000
  C   C90       1.0  0.53680  0.83920  0.76730  1.0000
  C   C91       1.0  0.53680  0.66080  0.26730  1.0000
  C   C92       1.0  0.46320  0.16080  0.23270  1.0000
  H   H41       1.0  0.42890  0.34970  0.76180  1.0000
  H   H42       1.0  0.57110  0.84970  0.73820  1.0000
  H   H43       1.0  0.57110  0.65030  0.23820  1.0000
  H   H44       1.0  0.42890  0.15030  0.26180  1.0000
  C   C93       1.0  0.03430  0.25930  0.98610  1.0000
  C   C94       1.0  0.96570  0.75930  0.51390  1.0000
  C   C95       1.0  0.96570  0.74070  0.01390  1.0000
  C   C96       1.0  0.03430  0.24070  0.48610  1.0000
  C   C97       1.0  0.56440  0.31070  0.85290  1.0000
  C   C98       1.0  0.43560  0.81070  0.64710  1.0000
  C   C99       1.0  0.43560  0.68930  0.14710  1.0000
  C   C100      1.0  0.56440  0.18930  0.35290  1.0000
  C   C101      1.0  0.17600  0.99110  0.38940  1.0000
  C   C102      1.0  0.82400  0.49110  0.11060  1.0000
  C   C103      1.0  0.82400  0.00890  0.61060  1.0000
  C   C104      1.0  0.17600  0.50890  0.88940  1.0000
  C   C105      1.0  0.34520  0.88250  0.44940  1.0000
  C   C106      1.0  0.65480  0.38250  0.05060  1.0000
  C   C107      1.0  0.65480  0.11750  0.55060  1.0000
  C   C108      1.0  0.34520  0.61750  0.94940  1.0000
  C   C109      1.0  0.81330  0.23970  0.92700  1.0000
  C   C110      1.0  0.18670  0.73970  0.57300  1.0000
  C   C111      1.0  0.18670  0.76030  0.07300  1.0000
  C   C112      1.0  0.81330  0.26030  0.42700  1.0000
  H   H45       1.0  0.77470  0.22730  0.88350  1.0000
  H   H46       1.0  0.22530  0.72730  0.61650  1.0000
  H   H47       1.0  0.22530  0.77270  0.11650  1.0000
  H   H48       1.0  0.77470  0.27270  0.38350  1.0000
  C   C113      1.0  0.94850  0.25920  0.98780  1.0000
  C   C114      1.0  0.05150  0.75920  0.51220  1.0000
  C   C115      1.0  0.05150  0.74080  0.01220  1.0000
  C   C116      1.0  0.94850  0.24080  0.48780  1.0000
  C   C117      1.0  0.17050  0.24760  0.04950  1.0000
  C   C118      1.0  0.82950  0.74760  0.45050  1.0000
  C   C119      1.0  0.82950  0.75240  0.95050  1.0000
  C   C120      1.0  0.17050  0.25240  0.54950  1.0000
  H   H49       1.0  0.20990  0.24020  0.09450  1.0000
  H   H50       1.0  0.79010  0.74020  0.40550  1.0000
  H   H51       1.0  0.79010  0.75980  0.90550  1.0000
  H   H52       1.0  0.20990  0.25980  0.59450  1.0000
  C   C121      1.0  0.05500  0.27170  0.91880  1.0000
  C   C122      1.0  0.94500  0.77170  0.58120  1.0000
  C   C123      1.0  0.94500  0.72830  0.08120  1.0000
  C   C124      1.0  0.05500  0.22830  0.41880  1.0000
  H   H53       1.0  0.01620  0.28050  0.87370  1.0000
  H   H54       1.0  0.98380  0.78050  0.62630  1.0000
  H   H55       1.0  0.98380  0.71950  0.12630  1.0000
  H   H56       1.0  0.01620  0.21950  0.37370  1.0000
  C   C125      1.0  0.84920  0.26860  0.05450  1.0000
  C   C126      1.0  0.15080  0.76860  0.44550  1.0000
  C   C127      1.0  0.15080  0.73140  0.94550  1.0000
  C   C128      1.0  0.84920  0.23140  0.55450  1.0000
  H   H57       1.0  0.83600  0.27640  0.10020  1.0000
  H   H58       1.0  0.16400  0.77640  0.39980  1.0000
  H   H59       1.0  0.16400  0.72360  0.89980  1.0000
  H   H60       1.0  0.83600  0.22360  0.60020  1.0000
  C   C129      1.0  0.09030  0.24720  0.05160  1.0000
  C   C130      1.0  0.90970  0.74720  0.44840  1.0000
  C   C131      1.0  0.90970  0.75280  0.94840  1.0000
  C   C132      1.0  0.09030  0.25280  0.55160  1.0000
  H   H61       1.0  0.07700  0.23880  0.09700  1.0000
  H   H62       1.0  0.92300  0.73880  0.40300  1.0000
  H   H63       1.0  0.92300  0.76120  0.90300  1.0000
  H   H64       1.0  0.07700  0.26120  0.59700  1.0000
  C   C133      1.0  0.13400  0.27100  0.91900  1.0000
  C   C134      1.0  0.86600  0.77100  0.58100  1.0000
  C   C135      1.0  0.86600  0.72900  0.08100  1.0000
  C   C136      1.0  0.13400  0.22900  0.41900  1.0000
  H   H65       1.0  0.14790  0.27920  0.87380  1.0000
  H   H66       1.0  0.85210  0.77920  0.62620  1.0000
  H   H67       1.0  0.85210  0.72080  0.12620  1.0000
  H   H68       1.0  0.14790  0.22080  0.37380  1.0000
  O   O73       1.0  0.04210  0.04650  0.37960  1.0000
  O   O74       1.0  0.95790  0.54650  0.12040  1.0000
  O   O75       1.0  0.95790  0.95350  0.62040  1.0000
  O   O76       1.0  0.04210  0.45350  0.87960  1.0000
  O   O77       1.0  0.05050  0.97550  0.27870  1.0000
  O   O78       1.0  0.94950  0.47550  0.22130  1.0000
  O   O79       1.0  0.94950  0.02450  0.72130  1.0000
  O   O80       1.0  0.05050  0.52450  0.77870  1.0000
  O   O81       1.0  0.04450  0.93920  0.40050  1.0000
  O   O82       1.0  0.95550  0.43920  0.09950  1.0000
  O   O83       1.0  0.95550  0.06080  0.59950  1.0000
  O   O84       1.0  0.04450  0.56080  0.90050  1.0000
  H   H69       1.0  0.05680  0.94840  0.44620  1.0000
  H   H70       1.0  0.94320  0.44840  0.05380  1.0000
  H   H71       1.0  0.94320  0.05160  0.55380  1.0000
  H   H72       1.0  0.05680  0.55160  0.94620  1.0000
