data_image0
_chemical_formula_structural       W48Si4O160Cu4N8C8H8N8C8H8C8H8C8H8C16H8
_chemical_formula_sum              "W48 Si4 O160 Cu4 N16 C48 H40"
_cell_length_a       24.6803
_cell_length_b       10.5966
_cell_length_c       19.9825
_cell_angle_alpha    90
_cell_angle_beta     99.515
_cell_angle_gamma    90

_space_group_name_H-M_alt    "P 1"
_space_group_IT_number       1

loop_
  _space_group_symop_operation_xyz
  'x, y, z'

loop_
  _atom_site_type_symbol
  _atom_site_label
  _atom_site_symmetry_multiplicity
  _atom_site_fract_x
  _atom_site_fract_y
  _atom_site_fract_z
  _atom_site_occupancy
  W   W1        1.0  0.39665  0.77149  0.71032  1.0000
  W   W2        1.0  0.60335  0.77149  0.78968  1.0000
  W   W3        1.0  0.89665  0.27149  0.71032  1.0000
  W   W4        1.0  0.10335  0.27149  0.78968  1.0000
  W   W5        1.0  0.60335  0.22851  0.28968  1.0000
  W   W6        1.0  0.39665  0.22851  0.21032  1.0000
  W   W7        1.0  0.10335  0.72851  0.28968  1.0000
  W   W8        1.0  0.89665  0.72851  0.21032  1.0000
  W   W9        1.0  0.38151  0.98954  0.82811  1.0000
  W   W10       1.0  0.61849  0.98954  0.67189  1.0000
  W   W11       1.0  0.88151  0.48954  0.82811  1.0000
  W   W12       1.0  0.11849  0.48954  0.67189  1.0000
  W   W13       1.0  0.61849  0.01046  0.17189  1.0000
  W   W14       1.0  0.38151  0.01046  0.32811  1.0000
  W   W15       1.0  0.11849  0.51046  0.17189  1.0000
  W   W16       1.0  0.88151  0.51046  0.32811  1.0000
  W   W17       1.0  0.48530  0.24111  0.86776  1.0000
  W   W18       1.0  0.51470  0.24111  0.63224  1.0000
  W   W19       1.0  0.98530  0.74111  0.86776  1.0000
  W   W20       1.0  0.01470  0.74111  0.63224  1.0000
  W   W21       1.0  0.51470  0.75889  0.13224  1.0000
  W   W22       1.0  0.48530  0.75889  0.36776  1.0000
  W   W23       1.0  0.01470  0.25889  0.13224  1.0000
  W   W24       1.0  0.98530  0.25889  0.36776  1.0000
  W   W25       1.0  0.39832  0.22945  0.69858  1.0000
  W   W26       1.0  0.60168  0.22945  0.80142  1.0000
  W   W27       1.0  0.89832  0.72945  0.69858  1.0000
  W   W28       1.0  0.10168  0.72945  0.80142  1.0000
  W   W29       1.0  0.60168  0.77055  0.30142  1.0000
  W   W30       1.0  0.39832  0.77055  0.19858  1.0000
  W   W31       1.0  0.10168  0.27055  0.30142  1.0000
  W   W32       1.0  0.89832  0.27055  0.19858  1.0000
  W   W33       1.0  0.47565  0.75997  0.86331  1.0000
  W   W34       1.0  0.52435  0.75997  0.63669  1.0000
  W   W35       1.0  0.97565  0.25997  0.86331  1.0000
  W   W36       1.0  0.02435  0.25997  0.63669  1.0000
  W   W37       1.0  0.52435  0.24003  0.13669  1.0000
  W   W38       1.0  0.47565  0.24003  0.36331  1.0000
  W   W39       1.0  0.02435  0.74003  0.13669  1.0000
  W   W40       1.0  0.97565  0.74003  0.36331  1.0000
  W   W41       1.0  0.42312  0.01187  0.58521  1.0000
  W   W42       1.0  0.57688  0.01187  0.91479  1.0000
  W   W43       1.0  0.92312  0.51187  0.58521  1.0000
  W   W44       1.0  0.07688  0.51187  0.91479  1.0000
  W   W45       1.0  0.57688  0.98813  0.41479  1.0000
  W   W46       1.0  0.42312  0.98813  0.08521  1.0000
  W   W47       1.0  0.07688  0.48813  0.41479  1.0000
  W   W48       1.0  0.92312  0.48813  0.08521  1.0000
  Si  Si1       1.0  0.50000  0.00000  0.75000  1.0000
  Si  Si2       1.0  0.00000  0.50000  0.75000  1.0000
  Si  Si3       1.0  0.50000  0.00000  0.25000  1.0000
  Si  Si4       1.0  0.00000  0.50000  0.25000  1.0000
  O   O1        1.0  0.45580  0.90770  0.77820  1.0000
  O   O2        1.0  0.54420  0.90770  0.72180  1.0000
  O   O3        1.0  0.95580  0.40770  0.77820  1.0000
  O   O4        1.0  0.04420  0.40770  0.72180  1.0000
  O   O5        1.0  0.54420  0.09230  0.22180  1.0000
  O   O6        1.0  0.45580  0.09230  0.27820  1.0000
  O   O7        1.0  0.04420  0.59230  0.22180  1.0000
  O   O8        1.0  0.95580  0.59230  0.27820  1.0000
  O   O9        1.0  0.37570  0.13890  0.61720  1.0000
  O   O10       1.0  0.62430  0.13890  0.88280  1.0000
  O   O11       1.0  0.87570  0.63890  0.61720  1.0000
  O   O12       1.0  0.12430  0.63890  0.88280  1.0000
  O   O13       1.0  0.62430  0.86110  0.38280  1.0000
  O   O14       1.0  0.37570  0.86110  0.11720  1.0000
  O   O15       1.0  0.12430  0.36110  0.38280  1.0000
  O   O16       1.0  0.87570  0.36110  0.11720  1.0000
  O   O17       1.0  0.52980  0.08700  0.81030  1.0000
  O   O18       1.0  0.47020  0.08700  0.68970  1.0000
  O   O19       1.0  0.02980  0.58700  0.81030  1.0000
  O   O20       1.0  0.97020  0.58700  0.68970  1.0000
  O   O21       1.0  0.47020  0.91300  0.18970  1.0000
  O   O22       1.0  0.52980  0.91300  0.31030  1.0000
  O   O23       1.0  0.97020  0.41300  0.18970  1.0000
  O   O24       1.0  0.02980  0.41300  0.31030  1.0000
  O   O25       1.0  0.54900  0.31470  0.84740  1.0000
  O   O26       1.0  0.45100  0.31470  0.65260  1.0000
  O   O27       1.0  0.04900  0.81470  0.84740  1.0000
  O   O28       1.0  0.95100  0.81470  0.65260  1.0000
  O   O29       1.0  0.45100  0.68530  0.15260  1.0000
  O   O30       1.0  0.54900  0.68530  0.34740  1.0000
  O   O31       1.0  0.95100  0.18530  0.15260  1.0000
  O   O32       1.0  0.04900  0.18530  0.34740  1.0000
  O   O33       1.0  0.35130  0.85810  0.76130  1.0000
  O   O34       1.0  0.64870  0.85810  0.73870  1.0000
  O   O35       1.0  0.85130  0.35810  0.76130  1.0000
  O   O36       1.0  0.14870  0.35810  0.73870  1.0000
  O   O37       1.0  0.64870  0.14190  0.23870  1.0000
  O   O38       1.0  0.35130  0.14190  0.26130  1.0000
  O   O39       1.0  0.14870  0.64190  0.23870  1.0000
  O   O40       1.0  0.85130  0.64190  0.26130  1.0000
  O   O41       1.0  0.37270  0.10230  0.75070  1.0000
  O   O42       1.0  0.62730  0.10230  0.74930  1.0000
  O   O43       1.0  0.87270  0.60230  0.75070  1.0000
  O   O44       1.0  0.12730  0.60230  0.74930  1.0000
  O   O45       1.0  0.62730  0.89770  0.24930  1.0000
  O   O46       1.0  0.37270  0.89770  0.25070  1.0000
  O   O47       1.0  0.12730  0.39770  0.24930  1.0000
  O   O48       1.0  0.87270  0.39770  0.25070  1.0000
  O   O49       1.0  0.53680  0.72180  0.82140  1.0000
  O   O50       1.0  0.46320  0.72180  0.67860  1.0000
  O   O51       1.0  0.03680  0.22180  0.82140  1.0000
  O   O52       1.0  0.96320  0.22180  0.67860  1.0000
  O   O53       1.0  0.46320  0.27820  0.17860  1.0000
  O   O54       1.0  0.53680  0.27820  0.32140  1.0000
  O   O55       1.0  0.96320  0.77820  0.17860  1.0000
  O   O56       1.0  0.03680  0.77820  0.32140  1.0000
  O   O57       1.0  0.42710  0.68140  0.79360  1.0000
  O   O58       1.0  0.57290  0.68140  0.70640  1.0000
  O   O59       1.0  0.92710  0.18140  0.79360  1.0000
  O   O60       1.0  0.07290  0.18140  0.70640  1.0000
  O   O61       1.0  0.57290  0.31860  0.20640  1.0000
  O   O62       1.0  0.42710  0.31860  0.29360  1.0000
  O   O63       1.0  0.07290  0.81860  0.20640  1.0000
  O   O64       1.0  0.92710  0.81860  0.29360  1.0000
  O   O65       1.0  0.46830  0.14190  0.56310  1.0000
  O   O66       1.0  0.53170  0.14190  0.93690  1.0000
  O   O67       1.0  0.96830  0.64190  0.56310  1.0000
  O   O68       1.0  0.03170  0.64190  0.93690  1.0000
  O   O69       1.0  0.53170  0.85810  0.43690  1.0000
  O   O70       1.0  0.46830  0.85810  0.06310  1.0000
  O   O71       1.0  0.03170  0.35810  0.43690  1.0000
  O   O72       1.0  0.96830  0.35810  0.06310  1.0000
  O   O73       1.0  0.41300  0.85370  0.88410  1.0000
  O   O74       1.0  0.58700  0.85370  0.61590  1.0000
  O   O75       1.0  0.91300  0.35370  0.88410  1.0000
  O   O76       1.0  0.08700  0.35370  0.61590  1.0000
  O   O77       1.0  0.58700  0.14630  0.11590  1.0000
  O   O78       1.0  0.41300  0.14630  0.38410  1.0000
  O   O79       1.0  0.08700  0.64630  0.11590  1.0000
  O   O80       1.0  0.91300  0.64630  0.38410  1.0000
  O   O81       1.0  0.44430  0.27830  0.78230  1.0000
  O   O82       1.0  0.55570  0.27830  0.71770  1.0000
  O   O83       1.0  0.94430  0.77830  0.78230  1.0000
  O   O84       1.0  0.05570  0.77830  0.71770  1.0000
  O   O85       1.0  0.55570  0.72170  0.21770  1.0000
  O   O86       1.0  0.44430  0.72170  0.28230  1.0000
  O   O87       1.0  0.05570  0.22170  0.21770  1.0000
  O   O88       1.0  0.94430  0.22170  0.28230  1.0000
  O   O89       1.0  0.52000  0.89170  0.90860  1.0000
  O   O90       1.0  0.48000  0.89170  0.59140  1.0000
  O   O91       1.0  0.02000  0.39170  0.90860  1.0000
  O   O92       1.0  0.98000  0.39170  0.59140  1.0000
  O   O93       1.0  0.48000  0.10830  0.09140  1.0000
  O   O94       1.0  0.52000  0.10830  0.40860  1.0000
  O   O95       1.0  0.98000  0.60830  0.09140  1.0000
  O   O96       1.0  0.02000  0.60830  0.40860  1.0000
  O   O97       1.0  0.43180  0.10840  0.87220  1.0000
  O   O98       1.0  0.56820  0.10840  0.62780  1.0000
  O   O99       1.0  0.93180  0.60840  0.87220  1.0000
  O   O100      1.0  0.06820  0.60840  0.62780  1.0000
  O   O101      1.0  0.56820  0.89160  0.12780  1.0000
  O   O102      1.0  0.43180  0.89160  0.37220  1.0000
  O   O103      1.0  0.06820  0.39160  0.12780  1.0000
  O   O104      1.0  0.93180  0.39160  0.37220  1.0000
  O   O105      1.0  0.39100  0.89580  0.64540  1.0000
  O   O106      1.0  0.60900  0.89580  0.85460  1.0000
  O   O107      1.0  0.89100  0.39580  0.64540  1.0000
  O   O108      1.0  0.10900  0.39580  0.85460  1.0000
  O   O109      1.0  0.60900  0.10420  0.35460  1.0000
  O   O110      1.0  0.39100  0.10420  0.14540  1.0000
  O   O111      1.0  0.10900  0.60420  0.35460  1.0000
  O   O112      1.0  0.89100  0.60420  0.14540  1.0000
  O   O113      1.0  0.35030  0.66220  0.67610  1.0000
  O   O114      1.0  0.64970  0.66220  0.82390  1.0000
  O   O115      1.0  0.85030  0.16220  0.67610  1.0000
  O   O116      1.0  0.14970  0.16220  0.82390  1.0000
  O   O117      1.0  0.64970  0.33780  0.32390  1.0000
  O   O118      1.0  0.35030  0.33780  0.17610  1.0000
  O   O119      1.0  0.14970  0.83780  0.32390  1.0000
  O   O120      1.0  0.85030  0.83780  0.17610  1.0000
  O   O121      1.0  0.32350  0.01880  0.85890  1.0000
  O   O122      1.0  0.67650  0.01880  0.64110  1.0000
  O   O123      1.0  0.82350  0.51880  0.85890  1.0000
  O   O124      1.0  0.17650  0.51880  0.64110  1.0000
  O   O125      1.0  0.67650  0.98120  0.14110  1.0000
  O   O126      1.0  0.32350  0.98120  0.35890  1.0000
  O   O127      1.0  0.17650  0.48120  0.14110  1.0000
  O   O128      1.0  0.82350  0.48120  0.35890  1.0000
  O   O129      1.0  0.34700  0.33550  0.69410  1.0000
  O   O130      1.0  0.65300  0.33550  0.80590  1.0000
  O   O131      1.0  0.84700  0.83550  0.69410  1.0000
  O   O132      1.0  0.15300  0.83550  0.80590  1.0000
  O   O133      1.0  0.65300  0.66450  0.30590  1.0000
  O   O134      1.0  0.34700  0.66450  0.19410  1.0000
  O   O135      1.0  0.15300  0.16450  0.30590  1.0000
  O   O136      1.0  0.84700  0.16450  0.19410  1.0000
  O   O137      1.0  0.38540  0.98330  0.50710  1.0000
  O   O138      1.0  0.61460  0.98330  0.99290  1.0000
  O   O139      1.0  0.88540  0.48330  0.50710  1.0000
  O   O140      1.0  0.11460  0.48330  0.99290  1.0000
  O   O141      1.0  0.61460  0.01670  0.49290  1.0000
  O   O142      1.0  0.38540  0.01670  0.00710  1.0000
  O   O143      1.0  0.11460  0.51670  0.49290  1.0000
  O   O144      1.0  0.88540  0.51670  0.00710  1.0000
  O   O145      1.0  0.46420  0.35510  0.92050  1.0000
  O   O146      1.0  0.53580  0.35510  0.57950  1.0000
  O   O147      1.0  0.96420  0.85510  0.92050  1.0000
  O   O148      1.0  0.03580  0.85510  0.57950  1.0000
  O   O149      1.0  0.53580  0.64490  0.07950  1.0000
  O   O150      1.0  0.46420  0.64490  0.42050  1.0000
  O   O151      1.0  0.03580  0.14490  0.07950  1.0000
  O   O152      1.0  0.96420  0.14490  0.42050  1.0000
  O   O153      1.0  0.48030  0.64540  0.92400  1.0000
  O   O154      1.0  0.51970  0.64540  0.57600  1.0000
  O   O155      1.0  0.98030  0.14540  0.92400  1.0000
  O   O156      1.0  0.01970  0.14540  0.57600  1.0000
  O   O157      1.0  0.51970  0.35460  0.07600  1.0000
  O   O158      1.0  0.48030  0.35460  0.42400  1.0000
  O   O159      1.0  0.01970  0.85460  0.07600  1.0000
  O   O160      1.0  0.98030  0.85460  0.42400  1.0000
  Cu  Cu1       1.0  0.50000  0.50000  1.00000  1.0000
  Cu  Cu2       1.0  0.50000  0.50000  0.50000  1.0000
  Cu  Cu3       1.0  0.00000  0.00000  1.00000  1.0000
  Cu  Cu4       1.0  0.00000  0.00000  0.50000  1.0000
  N   N1        1.0  0.57300  0.47560  0.98030  1.0000
  N   N2        1.0  0.42700  0.47560  0.51970  1.0000
  N   N3        1.0  0.07300  0.97560  0.98030  1.0000
  N   N4        1.0  0.92700  0.97560  0.51970  1.0000
  N   N5        1.0  0.42700  0.52440  0.01970  1.0000
  N   N6        1.0  0.57300  0.52440  0.48030  1.0000
  N   N7        1.0  0.92700  0.02440  0.01970  1.0000
  N   N8        1.0  0.07300  0.02440  0.48030  1.0000
  C   C1        1.0  0.60680  0.37230  0.99680  1.0000
  C   C2        1.0  0.39320  0.37230  0.50320  1.0000
  C   C3        1.0  0.10680  0.87230  0.99680  1.0000
  C   C4        1.0  0.89320  0.87230  0.50320  1.0000
  C   C5        1.0  0.39320  0.62770  0.00320  1.0000
  C   C6        1.0  0.60680  0.62770  0.49680  1.0000
  C   C7        1.0  0.89320  0.12770  0.00320  1.0000
  C   C8        1.0  0.10680  0.12770  0.49680  1.0000
  H   H1        1.0  0.59790  0.29950  0.01860  1.0000
  H   H2        1.0  0.40210  0.29950  0.48140  1.0000
  H   H3        1.0  0.09790  0.79950  0.01860  1.0000
  H   H4        1.0  0.90210  0.79950  0.48140  1.0000
  H   H5        1.0  0.40210  0.70050  0.98140  1.0000
  H   H6        1.0  0.59790  0.70050  0.51860  1.0000
  H   H7        1.0  0.90210  0.20050  0.98140  1.0000
  H   H8        1.0  0.09790  0.20050  0.51860  1.0000
  N   N9        1.0  0.65620  0.39610  0.97510  1.0000
  N   N10       1.0  0.34380  0.39610  0.52490  1.0000
  N   N11       1.0  0.15620  0.89610  0.97510  1.0000
  N   N12       1.0  0.84380  0.89610  0.52490  1.0000
  N   N13       1.0  0.34380  0.60390  0.02490  1.0000
  N   N14       1.0  0.65620  0.60390  0.47510  1.0000
  N   N15       1.0  0.84380  0.10390  0.02490  1.0000
  N   N16       1.0  0.15620  0.10390  0.47510  1.0000
  C   C9        1.0  0.65290  0.51410  0.94510  1.0000
  C   C10       1.0  0.34710  0.51410  0.55490  1.0000
  C   C11       1.0  0.15290  0.01410  0.94510  1.0000
  C   C12       1.0  0.84710  0.01410  0.55490  1.0000
  C   C13       1.0  0.34710  0.48590  0.05490  1.0000
  C   C14       1.0  0.65290  0.48590  0.44510  1.0000
  C   C15       1.0  0.84710  0.98590  0.05490  1.0000
  C   C16       1.0  0.15290  0.98590  0.44510  1.0000
  H   H9        1.0  0.68040  0.55350  0.92620  1.0000
  H   H10       1.0  0.31960  0.55350  0.57380  1.0000
  H   H11       1.0  0.18040  0.05350  0.92620  1.0000
  H   H12       1.0  0.81960  0.05350  0.57380  1.0000
  H   H13       1.0  0.31960  0.44650  0.07380  1.0000
  H   H14       1.0  0.68040  0.44650  0.42620  1.0000
  H   H15       1.0  0.81960  0.94650  0.07380  1.0000
  H   H16       1.0  0.18040  0.94650  0.42620  1.0000
  C   C17       1.0  0.60150  0.56320  0.94830  1.0000
  C   C18       1.0  0.39850  0.56320  0.55170  1.0000
  C   C19       1.0  0.10150  0.06320  0.94830  1.0000
  C   C20       1.0  0.89850  0.06320  0.55170  1.0000
  C   C21       1.0  0.39850  0.43680  0.05170  1.0000
  C   C22       1.0  0.60150  0.43680  0.44830  1.0000
  C   C23       1.0  0.89850  0.93680  0.05170  1.0000
  C   C24       1.0  0.10150  0.93680  0.44830  1.0000
  H   H17       1.0  0.58840  0.64150  0.93190  1.0000
  H   H18       1.0  0.41160  0.64150  0.56810  1.0000
  H   H19       1.0  0.08840  0.14150  0.93190  1.0000
  H   H20       1.0  0.91160  0.14150  0.56810  1.0000
  H   H21       1.0  0.41160  0.35850  0.06810  1.0000
  H   H22       1.0  0.58840  0.35850  0.43190  1.0000
  H   H23       1.0  0.91160  0.85850  0.06810  1.0000
  H   H24       1.0  0.08840  0.85850  0.43190  1.0000
  C   C25       1.0  0.70990  0.23280  0.03960  1.0000
  C   C26       1.0  0.29010  0.23280  0.46040  1.0000
  C   C27       1.0  0.20990  0.73280  0.03960  1.0000
  C   C28       1.0  0.79010  0.73280  0.46040  1.0000
  C   C29       1.0  0.29010  0.76720  0.96040  1.0000
  C   C30       1.0  0.70990  0.76720  0.53960  1.0000
  C   C31       1.0  0.79010  0.26720  0.96040  1.0000
  C   C32       1.0  0.20990  0.26720  0.53960  1.0000
  H   H25       1.0  0.68270  0.22170  0.06620  1.0000
  H   H26       1.0  0.31730  0.22170  0.43380  1.0000
  H   H27       1.0  0.18270  0.72170  0.06620  1.0000
  H   H28       1.0  0.81730  0.72170  0.43380  1.0000
  H   H29       1.0  0.31730  0.77830  0.93380  1.0000
  H   H30       1.0  0.68270  0.77830  0.56620  1.0000
  H   H31       1.0  0.81730  0.27830  0.93380  1.0000
  H   H32       1.0  0.18270  0.27830  0.56620  1.0000
  C   C33       1.0  0.70280  0.32050  0.98780  1.0000
  C   C34       1.0  0.29720  0.32050  0.51220  1.0000
  C   C35       1.0  0.20280  0.82050  0.98780  1.0000
  C   C36       1.0  0.79720  0.82050  0.51220  1.0000
  C   C37       1.0  0.29720  0.67950  0.01220  1.0000
  C   C38       1.0  0.70280  0.67950  0.48780  1.0000
  C   C39       1.0  0.79720  0.17950  0.01220  1.0000
  C   C40       1.0  0.20280  0.17950  0.48780  1.0000
  C   C41       1.0  0.74290  0.33800  0.94800  1.0000
  C   C42       1.0  0.25710  0.33800  0.55200  1.0000
  C   C43       1.0  0.24290  0.83800  0.94800  1.0000
  C   C44       1.0  0.75710  0.83800  0.55200  1.0000
  C   C45       1.0  0.25710  0.66200  0.05200  1.0000
  C   C46       1.0  0.74290  0.66200  0.44800  1.0000
  C   C47       1.0  0.75710  0.16200  0.05200  1.0000
  C   C48       1.0  0.24290  0.16200  0.44800  1.0000
  H   H33       1.0  0.73800  0.39770  0.91330  1.0000
  H   H34       1.0  0.26200  0.39770  0.58670  1.0000
  H   H35       1.0  0.23800  0.89770  0.91330  1.0000
  H   H36       1.0  0.76200  0.89770  0.58670  1.0000
  H   H37       1.0  0.26200  0.60230  0.08670  1.0000
  H   H38       1.0  0.73800  0.60230  0.41330  1.0000
  H   H39       1.0  0.76200  0.10230  0.08670  1.0000
  H   H40       1.0  0.23800  0.10230  0.41330  1.0000
