data_image0
_chemical_formula_structural       Zn24P16O112C32H16C32H16C32H16C32
_chemical_formula_sum              "Zn24 P16 O112 C128 H48"
_cell_length_a       18.218
_cell_length_b       18.218
_cell_length_c       23.552
_cell_angle_alpha    90
_cell_angle_beta     90
_cell_angle_gamma    90

_space_group_name_H-M_alt    "P 1"
_space_group_IT_number       1

loop_
  _space_group_symop_operation_xyz
  'x, y, z'

loop_
  _atom_site_type_symbol
  _atom_site_label
  _atom_site_symmetry_multiplicity
  _atom_site_fract_x
  _atom_site_fract_y
  _atom_site_fract_z
  _atom_site_occupancy
  Zn  Zn1       1.0  0.28309  0.27122  0.02850  1.0000
  Zn  Zn2       1.0  0.71691  0.72878  0.02850  1.0000
  Zn  Zn3       1.0  0.27122  0.71691  0.97150  1.0000
  Zn  Zn4       1.0  0.72878  0.28309  0.97150  1.0000
  Zn  Zn5       1.0  0.21691  0.27122  0.72150  1.0000
  Zn  Zn6       1.0  0.78309  0.72878  0.72150  1.0000
  Zn  Zn7       1.0  0.22878  0.71691  0.77850  1.0000
  Zn  Zn8       1.0  0.77122  0.28309  0.77850  1.0000
  Zn  Zn9       1.0  0.78309  0.77122  0.52850  1.0000
  Zn  Zn10      1.0  0.21691  0.22878  0.52850  1.0000
  Zn  Zn11      1.0  0.77122  0.21691  0.47150  1.0000
  Zn  Zn12      1.0  0.22878  0.78309  0.47150  1.0000
  Zn  Zn13      1.0  0.71691  0.77122  0.22150  1.0000
  Zn  Zn14      1.0  0.28309  0.22878  0.22150  1.0000
  Zn  Zn15      1.0  0.72878  0.21691  0.27850  1.0000
  Zn  Zn16      1.0  0.27122  0.78309  0.27850  1.0000
  Zn  Zn17      1.0  0.13068  0.25000  0.12500  1.0000
  Zn  Zn18      1.0  0.86932  0.75000  0.12500  1.0000
  Zn  Zn19      1.0  0.25000  0.86932  0.87500  1.0000
  Zn  Zn20      1.0  0.75000  0.13068  0.87500  1.0000
  Zn  Zn21      1.0  0.36932  0.25000  0.62500  1.0000
  Zn  Zn22      1.0  0.63068  0.75000  0.62500  1.0000
  Zn  Zn23      1.0  0.75000  0.36932  0.37500  1.0000
  Zn  Zn24      1.0  0.25000  0.63068  0.37500  1.0000
  P   P1        1.0  0.26200  0.14023  0.10779  1.0000
  P   P2        1.0  0.73800  0.85977  0.10779  1.0000
  P   P3        1.0  0.14023  0.73800  0.89221  1.0000
  P   P4        1.0  0.85977  0.26200  0.89221  1.0000
  P   P5        1.0  0.23800  0.14023  0.64221  1.0000
  P   P6        1.0  0.76200  0.85977  0.64221  1.0000
  P   P7        1.0  0.35977  0.73800  0.85779  1.0000
  P   P8        1.0  0.64023  0.26200  0.85779  1.0000
  P   P9        1.0  0.76200  0.64023  0.60779  1.0000
  P   P10       1.0  0.23800  0.35977  0.60779  1.0000
  P   P11       1.0  0.64023  0.23800  0.39221  1.0000
  P   P12       1.0  0.35977  0.76200  0.39221  1.0000
  P   P13       1.0  0.73800  0.64023  0.14221  1.0000
  P   P14       1.0  0.26200  0.35977  0.14221  1.0000
  P   P15       1.0  0.85977  0.23800  0.35779  1.0000
  P   P16       1.0  0.14023  0.76200  0.35779  1.0000
  O   O1        1.0  0.29830  0.17190  0.05540  1.0000
  O   O2        1.0  0.70170  0.82810  0.05540  1.0000
  O   O3        1.0  0.17190  0.70170  0.94460  1.0000
  O   O4        1.0  0.82810  0.29830  0.94460  1.0000
  O   O5        1.0  0.20170  0.17190  0.69460  1.0000
  O   O6        1.0  0.79830  0.82810  0.69460  1.0000
  O   O7        1.0  0.32810  0.70170  0.80540  1.0000
  O   O8        1.0  0.67190  0.29830  0.80540  1.0000
  O   O9        1.0  0.79830  0.67190  0.55540  1.0000
  O   O10       1.0  0.20170  0.32810  0.55540  1.0000
  O   O11       1.0  0.67190  0.20170  0.44460  1.0000
  O   O12       1.0  0.32810  0.79830  0.44460  1.0000
  O   O13       1.0  0.70170  0.67190  0.19460  1.0000
  O   O14       1.0  0.29830  0.32810  0.19460  1.0000
  O   O15       1.0  0.82810  0.20170  0.30540  1.0000
  O   O16       1.0  0.17190  0.79830  0.30540  1.0000
  O   O17       1.0  0.18070  0.15780  0.11130  1.0000
  O   O18       1.0  0.81930  0.84220  0.11130  1.0000
  O   O19       1.0  0.15780  0.81930  0.88870  1.0000
  O   O20       1.0  0.84220  0.18070  0.88870  1.0000
  O   O21       1.0  0.31930  0.15780  0.63870  1.0000
  O   O22       1.0  0.68070  0.84220  0.63870  1.0000
  O   O23       1.0  0.34220  0.81930  0.86130  1.0000
  O   O24       1.0  0.65780  0.18070  0.86130  1.0000
  O   O25       1.0  0.68070  0.65780  0.61130  1.0000
  O   O26       1.0  0.31930  0.34220  0.61130  1.0000
  O   O27       1.0  0.65780  0.31930  0.38870  1.0000
  O   O28       1.0  0.34220  0.68070  0.38870  1.0000
  O   O29       1.0  0.81930  0.65780  0.13870  1.0000
  O   O30       1.0  0.18070  0.34220  0.13870  1.0000
  O   O31       1.0  0.84220  0.31930  0.36130  1.0000
  O   O32       1.0  0.15780  0.68070  0.36130  1.0000
  O   O33       1.0  0.30170  0.15960  0.16230  1.0000
  O   O34       1.0  0.69830  0.84040  0.16230  1.0000
  O   O35       1.0  0.15960  0.69830  0.83770  1.0000
  O   O36       1.0  0.84040  0.30170  0.83770  1.0000
  O   O37       1.0  0.19830  0.15960  0.58770  1.0000
  O   O38       1.0  0.80170  0.84040  0.58770  1.0000
  O   O39       1.0  0.34040  0.69830  0.91230  1.0000
  O   O40       1.0  0.65960  0.30170  0.91230  1.0000
  O   O41       1.0  0.80170  0.65960  0.66230  1.0000
  O   O42       1.0  0.19830  0.34040  0.66230  1.0000
  O   O43       1.0  0.65960  0.19830  0.33770  1.0000
  O   O44       1.0  0.34040  0.80170  0.33770  1.0000
  O   O45       1.0  0.69830  0.65960  0.08770  1.0000
  O   O46       1.0  0.30170  0.34040  0.08770  1.0000
  O   O47       1.0  0.84040  0.19830  0.41230  1.0000
  O   O48       1.0  0.15960  0.80170  0.41230  1.0000
  O   O49       1.0  0.27950  0.81100  0.19700  1.0000
  O   O50       1.0  0.72050  0.18900  0.19700  1.0000
  O   O51       1.0  0.81100  0.72050  0.80300  1.0000
  O   O52       1.0  0.18900  0.27950  0.80300  1.0000
  O   O53       1.0  0.22050  0.81100  0.55300  1.0000
  O   O54       1.0  0.77950  0.18900  0.55300  1.0000
  O   O55       1.0  0.68900  0.72050  0.94700  1.0000
  O   O56       1.0  0.31100  0.27950  0.94700  1.0000
  O   O57       1.0  0.77950  0.31100  0.69700  1.0000
  O   O58       1.0  0.22050  0.68900  0.69700  1.0000
  O   O59       1.0  0.31100  0.22050  0.30300  1.0000
  O   O60       1.0  0.68900  0.77950  0.30300  1.0000
  O   O61       1.0  0.72050  0.31100  0.05300  1.0000
  O   O62       1.0  0.27950  0.68900  0.05300  1.0000
  O   O63       1.0  0.18900  0.22050  0.44700  1.0000
  O   O64       1.0  0.81100  0.77950  0.44700  1.0000
  O   O65       1.0  0.28090  0.91070  0.24570  1.0000
  O   O66       1.0  0.71910  0.08930  0.24570  1.0000
  O   O67       1.0  0.91070  0.71910  0.75430  1.0000
  O   O68       1.0  0.08930  0.28090  0.75430  1.0000
  O   O69       1.0  0.21910  0.91070  0.50430  1.0000
  O   O70       1.0  0.78090  0.08930  0.50430  1.0000
  O   O71       1.0  0.58930  0.71910  0.99570  1.0000
  O   O72       1.0  0.41070  0.28090  0.99570  1.0000
  O   O73       1.0  0.78090  0.41070  0.74570  1.0000
  O   O74       1.0  0.21910  0.58930  0.74570  1.0000
  O   O75       1.0  0.41070  0.21910  0.25430  1.0000
  O   O76       1.0  0.58930  0.78090  0.25430  1.0000
  O   O77       1.0  0.71910  0.41070  0.00430  1.0000
  O   O78       1.0  0.28090  0.58930  0.00430  1.0000
  O   O79       1.0  0.08930  0.21910  0.49570  1.0000
  O   O80       1.0  0.91070  0.78090  0.49570  1.0000
  O   O81       1.0  0.28110  0.82490  0.98700  1.0000
  O   O82       1.0  0.71890  0.17510  0.98700  1.0000
  O   O83       1.0  0.82490  0.71890  0.01300  1.0000
  O   O84       1.0  0.17510  0.28110  0.01300  1.0000
  O   O85       1.0  0.21890  0.82490  0.76300  1.0000
  O   O86       1.0  0.78110  0.17510  0.76300  1.0000
  O   O87       1.0  0.67510  0.71890  0.73700  1.0000
  O   O88       1.0  0.32490  0.28110  0.73700  1.0000
  O   O89       1.0  0.78110  0.32490  0.48700  1.0000
  O   O90       1.0  0.21890  0.67510  0.48700  1.0000
  O   O91       1.0  0.32490  0.21890  0.51300  1.0000
  O   O92       1.0  0.67510  0.78110  0.51300  1.0000
  O   O93       1.0  0.71890  0.32490  0.26300  1.0000
  O   O94       1.0  0.28110  0.67510  0.26300  1.0000
  O   O95       1.0  0.17510  0.21890  0.23700  1.0000
  O   O96       1.0  0.82490  0.78110  0.23700  1.0000
  O   O97       1.0  0.26030  0.93180  0.94360  1.0000
  O   O98       1.0  0.73970  0.06820  0.94360  1.0000
  O   O99       1.0  0.93180  0.73970  0.05640  1.0000
  O   O100      1.0  0.06820  0.26030  0.05640  1.0000
  O   O101      1.0  0.23970  0.93180  0.80640  1.0000
  O   O102      1.0  0.76030  0.06820  0.80640  1.0000
  O   O103      1.0  0.56820  0.73970  0.69360  1.0000
  O   O104      1.0  0.43180  0.26030  0.69360  1.0000
  O   O105      1.0  0.76030  0.43180  0.44360  1.0000
  O   O106      1.0  0.23970  0.56820  0.44360  1.0000
  O   O107      1.0  0.43180  0.23970  0.55640  1.0000
  O   O108      1.0  0.56820  0.76030  0.55640  1.0000
  O   O109      1.0  0.73970  0.43180  0.30640  1.0000
  O   O110      1.0  0.26030  0.56820  0.30640  1.0000
  O   O111      1.0  0.06820  0.23970  0.19360  1.0000
  O   O112      1.0  0.93180  0.76030  0.19360  1.0000
  C   C1        1.0  0.27080  0.04280  0.09980  1.0000
  C   C2        1.0  0.72920  0.95720  0.09980  1.0000
  C   C3        1.0  0.04280  0.72920  0.90020  1.0000
  C   C4        1.0  0.95720  0.27080  0.90020  1.0000
  C   C5        1.0  0.22920  0.04280  0.65020  1.0000
  C   C6        1.0  0.77080  0.95720  0.65020  1.0000
  C   C7        1.0  0.45720  0.72920  0.84980  1.0000
  C   C8        1.0  0.54280  0.27080  0.84980  1.0000
  C   C9        1.0  0.77080  0.54280  0.59980  1.0000
  C   C10       1.0  0.22920  0.45720  0.59980  1.0000
  C   C11       1.0  0.54280  0.22920  0.40020  1.0000
  C   C12       1.0  0.45720  0.77080  0.40020  1.0000
  C   C13       1.0  0.72920  0.54280  0.15020  1.0000
  C   C14       1.0  0.27080  0.45720  0.15020  1.0000
  C   C15       1.0  0.95720  0.22920  0.34980  1.0000
  C   C16       1.0  0.04280  0.77080  0.34980  1.0000
  C   C17       1.0  0.27230  0.99880  0.14810  1.0000
  C   C18       1.0  0.72770  0.00120  0.14810  1.0000
  C   C19       1.0  0.99880  0.72770  0.85190  1.0000
  C   C20       1.0  0.00120  0.27230  0.85190  1.0000
  C   C21       1.0  0.22770  0.99880  0.60190  1.0000
  C   C22       1.0  0.77230  0.00120  0.60190  1.0000
  C   C23       1.0  0.50120  0.72770  0.89810  1.0000
  C   C24       1.0  0.49880  0.27230  0.89810  1.0000
  C   C25       1.0  0.77230  0.49880  0.64810  1.0000
  C   C26       1.0  0.22770  0.50120  0.64810  1.0000
  C   C27       1.0  0.49880  0.22770  0.35190  1.0000
  C   C28       1.0  0.50120  0.77230  0.35190  1.0000
  C   C29       1.0  0.72770  0.49880  0.10190  1.0000
  C   C30       1.0  0.27230  0.50120  0.10190  1.0000
  C   C31       1.0  0.00120  0.22770  0.39810  1.0000
  C   C32       1.0  0.99880  0.77230  0.39810  1.0000
  H   H1        1.0  0.27050  0.02100  0.18370  1.0000
  H   H2        1.0  0.72950  0.97900  0.18370  1.0000
  H   H3        1.0  0.02100  0.72950  0.81630  1.0000
  H   H4        1.0  0.97900  0.27050  0.81630  1.0000
  H   H5        1.0  0.22950  0.02100  0.56630  1.0000
  H   H6        1.0  0.77050  0.97900  0.56630  1.0000
  H   H7        1.0  0.47900  0.72950  0.93370  1.0000
  H   H8        1.0  0.52100  0.27050  0.93370  1.0000
  H   H9        1.0  0.77050  0.52100  0.68370  1.0000
  H   H10       1.0  0.22950  0.47900  0.68370  1.0000
  H   H11       1.0  0.52100  0.22950  0.31630  1.0000
  H   H12       1.0  0.47900  0.77050  0.31630  1.0000
  H   H13       1.0  0.72950  0.52100  0.06630  1.0000
  H   H14       1.0  0.27050  0.47900  0.06630  1.0000
  H   H15       1.0  0.97900  0.22950  0.43370  1.0000
  H   H16       1.0  0.02100  0.77050  0.43370  1.0000
  C   C33       1.0  0.27630  0.92240  0.14480  1.0000
  C   C34       1.0  0.72370  0.07760  0.14480  1.0000
  C   C35       1.0  0.92240  0.72370  0.85520  1.0000
  C   C36       1.0  0.07760  0.27630  0.85520  1.0000
  C   C37       1.0  0.22370  0.92240  0.60520  1.0000
  C   C38       1.0  0.77630  0.07760  0.60520  1.0000
  C   C39       1.0  0.57760  0.72370  0.89480  1.0000
  C   C40       1.0  0.42240  0.27630  0.89480  1.0000
  C   C41       1.0  0.77630  0.42240  0.64480  1.0000
  C   C42       1.0  0.22370  0.57760  0.64480  1.0000
  C   C43       1.0  0.42240  0.22370  0.35520  1.0000
  C   C44       1.0  0.57760  0.77630  0.35520  1.0000
  C   C45       1.0  0.72370  0.42240  0.10520  1.0000
  C   C46       1.0  0.27630  0.57760  0.10520  1.0000
  C   C47       1.0  0.07760  0.22370  0.39480  1.0000
  C   C48       1.0  0.92240  0.77630  0.39480  1.0000
  C   C49       1.0  0.27790  0.88860  0.09320  1.0000
  C   C50       1.0  0.72210  0.11140  0.09320  1.0000
  C   C51       1.0  0.88860  0.72210  0.90680  1.0000
  C   C52       1.0  0.11140  0.27790  0.90680  1.0000
  C   C53       1.0  0.22210  0.88860  0.65680  1.0000
  C   C54       1.0  0.77790  0.11140  0.65680  1.0000
  C   C55       1.0  0.61140  0.72210  0.84320  1.0000
  C   C56       1.0  0.38860  0.27790  0.84320  1.0000
  C   C57       1.0  0.77790  0.38860  0.59320  1.0000
  C   C58       1.0  0.22210  0.61140  0.59320  1.0000
  C   C59       1.0  0.38860  0.22210  0.40680  1.0000
  C   C60       1.0  0.61140  0.77790  0.40680  1.0000
  C   C61       1.0  0.72210  0.38860  0.15680  1.0000
  C   C62       1.0  0.27790  0.61140  0.15680  1.0000
  C   C63       1.0  0.11140  0.22210  0.34320  1.0000
  C   C64       1.0  0.88860  0.77790  0.34320  1.0000
  H   H17       1.0  0.28290  0.83790  0.09080  1.0000
  H   H18       1.0  0.71710  0.16210  0.09080  1.0000
  H   H19       1.0  0.83790  0.71710  0.90920  1.0000
  H   H20       1.0  0.16210  0.28290  0.90920  1.0000
  H   H21       1.0  0.21710  0.83790  0.65920  1.0000
  H   H22       1.0  0.78290  0.16210  0.65920  1.0000
  H   H23       1.0  0.66210  0.71710  0.84080  1.0000
  H   H24       1.0  0.33790  0.28290  0.84080  1.0000
  H   H25       1.0  0.78290  0.33790  0.59080  1.0000
  H   H26       1.0  0.21710  0.66210  0.59080  1.0000
  H   H27       1.0  0.33790  0.21710  0.40920  1.0000
  H   H28       1.0  0.66210  0.78290  0.40920  1.0000
  H   H29       1.0  0.71710  0.33790  0.15920  1.0000
  H   H30       1.0  0.28290  0.66210  0.15920  1.0000
  H   H31       1.0  0.16210  0.21710  0.34080  1.0000
  H   H32       1.0  0.83790  0.78290  0.34080  1.0000
  C   C65       1.0  0.27200  0.93040  0.04460  1.0000
  C   C66       1.0  0.72800  0.06960  0.04460  1.0000
  C   C67       1.0  0.93040  0.72800  0.95540  1.0000
  C   C68       1.0  0.06960  0.27200  0.95540  1.0000
  C   C69       1.0  0.22800  0.93040  0.70540  1.0000
  C   C70       1.0  0.77200  0.06960  0.70540  1.0000
  C   C71       1.0  0.56960  0.72800  0.79460  1.0000
  C   C72       1.0  0.43040  0.27200  0.79460  1.0000
  C   C73       1.0  0.77200  0.43040  0.54460  1.0000
  C   C74       1.0  0.22800  0.56960  0.54460  1.0000
  C   C75       1.0  0.43040  0.22800  0.45540  1.0000
  C   C76       1.0  0.56960  0.77200  0.45540  1.0000
  C   C77       1.0  0.72800  0.43040  0.20540  1.0000
  C   C78       1.0  0.27200  0.56960  0.20540  1.0000
  C   C79       1.0  0.06960  0.22800  0.29460  1.0000
  C   C80       1.0  0.93040  0.77200  0.29460  1.0000
  C   C81       1.0  0.26890  0.00680  0.04830  1.0000
  C   C82       1.0  0.73110  0.99320  0.04830  1.0000
  C   C83       1.0  0.00680  0.73110  0.95170  1.0000
  C   C84       1.0  0.99320  0.26890  0.95170  1.0000
  C   C85       1.0  0.23110  0.00680  0.70170  1.0000
  C   C86       1.0  0.76890  0.99320  0.70170  1.0000
  C   C87       1.0  0.49320  0.73110  0.79830  1.0000
  C   C88       1.0  0.50680  0.26890  0.79830  1.0000
  C   C89       1.0  0.76890  0.50680  0.54830  1.0000
  C   C90       1.0  0.23110  0.49320  0.54830  1.0000
  C   C91       1.0  0.50680  0.23110  0.45170  1.0000
  C   C92       1.0  0.49320  0.76890  0.45170  1.0000
  C   C93       1.0  0.73110  0.50680  0.20170  1.0000
  C   C94       1.0  0.26890  0.49320  0.20170  1.0000
  C   C95       1.0  0.99320  0.23110  0.29830  1.0000
  C   C96       1.0  0.00680  0.76890  0.29830  1.0000
  H   H33       1.0  0.26540  0.03420  0.01510  1.0000
  H   H34       1.0  0.73460  0.96580  0.01510  1.0000
  H   H35       1.0  0.03420  0.73460  0.98490  1.0000
  H   H36       1.0  0.96580  0.26540  0.98490  1.0000
  H   H37       1.0  0.23460  0.03420  0.73490  1.0000
  H   H38       1.0  0.76540  0.96580  0.73490  1.0000
  H   H39       1.0  0.46580  0.73460  0.76510  1.0000
  H   H40       1.0  0.53420  0.26540  0.76510  1.0000
  H   H41       1.0  0.76540  0.53420  0.51510  1.0000
  H   H42       1.0  0.23460  0.46580  0.51510  1.0000
  H   H43       1.0  0.53420  0.23460  0.48490  1.0000
  H   H44       1.0  0.46580  0.76540  0.48490  1.0000
  H   H45       1.0  0.73460  0.53420  0.23490  1.0000
  H   H46       1.0  0.26540  0.46580  0.23490  1.0000
  H   H47       1.0  0.96580  0.23460  0.26510  1.0000
  H   H48       1.0  0.03420  0.76540  0.26510  1.0000
  C   C97       1.0  0.28100  0.87720  0.19950  1.0000
  C   C98       1.0  0.71900  0.12280  0.19950  1.0000
  C   C99       1.0  0.87720  0.71900  0.80050  1.0000
  C   C100      1.0  0.12280  0.28100  0.80050  1.0000
  C   C101      1.0  0.21900  0.87720  0.55050  1.0000
  C   C102      1.0  0.78100  0.12280  0.55050  1.0000
  C   C103      1.0  0.62280  0.71900  0.94950  1.0000
  C   C104      1.0  0.37720  0.28100  0.94950  1.0000
  C   C105      1.0  0.78100  0.37720  0.69950  1.0000
  C   C106      1.0  0.21900  0.62280  0.69950  1.0000
  C   C107      1.0  0.37720  0.21900  0.30050  1.0000
  C   C108      1.0  0.62280  0.78100  0.30050  1.0000
  C   C109      1.0  0.71900  0.37720  0.05050  1.0000
  C   C110      1.0  0.28100  0.62280  0.05050  1.0000
  C   C111      1.0  0.12280  0.21900  0.44950  1.0000
  C   C112      1.0  0.87720  0.78100  0.44950  1.0000
  C   C113      1.0  0.26930  0.89150  0.98760  1.0000
  C   C114      1.0  0.73070  0.10850  0.98760  1.0000
  C   C115      1.0  0.89150  0.73070  0.01240  1.0000
  C   C116      1.0  0.10850  0.26930  0.01240  1.0000
  C   C117      1.0  0.23070  0.89150  0.76240  1.0000
  C   C118      1.0  0.76930  0.10850  0.76240  1.0000
  C   C119      1.0  0.60850  0.73070  0.73760  1.0000
  C   C120      1.0  0.39150  0.26930  0.73760  1.0000
  C   C121      1.0  0.76930  0.39150  0.48760  1.0000
  C   C122      1.0  0.23070  0.60850  0.48760  1.0000
  C   C123      1.0  0.39150  0.23070  0.51240  1.0000
  C   C124      1.0  0.60850  0.76930  0.51240  1.0000
  C   C125      1.0  0.73070  0.39150  0.26240  1.0000
  C   C126      1.0  0.26930  0.60850  0.26240  1.0000
  C   C127      1.0  0.10850  0.23070  0.23760  1.0000
  C   C128      1.0  0.89150  0.76930  0.23760  1.0000
