data_image0
_chemical_formula_structural       Zn2O12C36H18
_chemical_formula_sum              "Zn2 O12 C36 H18"
_cell_length_a       9.9518
_cell_length_b       11.5761
_cell_length_c       15.5562
_cell_angle_alpha    72.377
_cell_angle_beta     83.165
_cell_angle_gamma    84.326

_space_group_name_H-M_alt    "P 1"
_space_group_IT_number       1

loop_
  _space_group_symop_operation_xyz
  'x, y, z'

loop_
  _atom_site_type_symbol
  _atom_site_label
  _atom_site_symmetry_multiplicity
  _atom_site_fract_x
  _atom_site_fract_y
  _atom_site_fract_z
  _atom_site_occupancy
  Zn  Zn1       1.0  0.41460  0.09270  0.88780  1.0000
  Zn  Zn2       1.0  0.58540  0.90730  0.11220  1.0000
  O   O1        1.0  0.28670  0.19060  0.94390  1.0000
  O   O2        1.0  0.71330  0.80940  0.05610  1.0000
  O   O3        1.0  0.09730  0.12750  0.91310  1.0000
  O   O4        1.0  0.90270  0.87250  0.08690  1.0000
  O   O5        1.0  0.42100  0.91860  0.90250  1.0000
  O   O6        1.0  0.57900  0.08140  0.09750  1.0000
  O   O7        1.0  0.41970  0.89510  0.04990  1.0000
  O   O8        1.0  0.58030  0.10490  0.95010  1.0000
  O   O9        1.0  0.47820  0.19350  0.76750  1.0000
  O   O10       1.0  0.52180  0.80650  0.23250  1.0000
  O   O11       1.0  0.27420  0.17370  0.72940  1.0000
  O   O12       1.0  0.72580  0.82630  0.27060  1.0000
  C   C1        1.0  0.15710  0.19760  0.93840  1.0000
  C   C2        1.0  0.84290  0.80240  0.06160  1.0000
  C   C3        1.0  0.08000  0.30230  0.96500  1.0000
  C   C4        1.0  0.92000  0.69770  0.03500  1.0000
  C   C5        1.0  0.14470  0.39190  0.97930  1.0000
  C   C6        1.0  0.85530  0.60810  0.02070  1.0000
  C   C7        1.0  0.07200  0.49610  0.99790  1.0000
  C   C8        1.0  0.92800  0.50390  0.00210  1.0000
  C   C9        1.0  0.13700  0.59150  0.01230  1.0000
  C   C10       1.0  0.86300  0.40850  0.98770  1.0000
  C   C11       1.0  0.93600  0.31210  0.97010  1.0000
  C   C12       1.0  0.06400  0.68790  0.02990  1.0000
  C   C13       1.0  0.43070  0.85360  0.98420  1.0000
  C   C14       1.0  0.56930  0.14640  0.01580  1.0000
  C   C15       1.0  0.45460  0.71710  0.00230  1.0000
  C   C16       1.0  0.54540  0.28290  0.99770  1.0000
  C   C17       1.0  0.48050  0.66660  0.93330  1.0000
  C   C18       1.0  0.51950  0.33340  0.06670  1.0000
  C   C19       1.0  0.50390  0.53330  0.95420  1.0000
  C   C20       1.0  0.49610  0.46670  0.04580  1.0000
  C   C21       1.0  0.52990  0.48300  0.88440  1.0000
  C   C22       1.0  0.47010  0.51700  0.11560  1.0000
  C   C23       1.0  0.45050  0.64210  0.09430  1.0000
  C   C24       1.0  0.54950  0.35790  0.90570  1.0000
  C   C25       1.0  0.38520  0.22150  0.71430  1.0000
  C   C26       1.0  0.61480  0.77850  0.28570  1.0000
  C   C27       1.0  0.41110  0.32100  0.62710  1.0000
  C   C28       1.0  0.58890  0.67900  0.37290  1.0000
  C   C29       1.0  0.32450  0.34480  0.55760  1.0000
  C   C30       1.0  0.67550  0.65520  0.44240  1.0000
  C   C31       1.0  0.34520  0.43750  0.47880  1.0000
  C   C32       1.0  0.65480  0.56250  0.52120  1.0000
  C   C33       1.0  0.45570  0.51190  0.46580  1.0000
  C   C34       1.0  0.54430  0.48810  0.53420  1.0000
  C   C35       1.0  0.51980  0.39170  0.61570  1.0000
  C   C36       1.0  0.48020  0.60830  0.38430  1.0000
  H   H1        1.0  0.24090  0.38530  0.97680  1.0000
  H   H2        1.0  0.75910  0.61470  0.02320  1.0000
  H   H3        1.0  0.23320  0.58750  0.00960  1.0000
  H   H4        1.0  0.76680  0.41250  0.99040  1.0000
  H   H5        1.0  0.89000  0.24930  0.96100  1.0000
  H   H6        1.0  0.11000  0.75070  0.03900  1.0000
  H   H7        1.0  0.48360  0.71650  0.87220  1.0000
  H   H8        1.0  0.51640  0.28350  0.12780  1.0000
  H   H9        1.0  0.53430  0.53250  0.82320  1.0000
  H   H10       1.0  0.46570  0.46750  0.17680  1.0000
  H   H11       1.0  0.43390  0.67890  0.14180  1.0000
  H   H12       1.0  0.56610  0.32110  0.85820  1.0000
  H   H13       1.0  0.25030  0.29580  0.56540  1.0000
  H   H14       1.0  0.74970  0.70420  0.43460  1.0000
  H   H15       1.0  0.28560  0.45190  0.43270  1.0000
  H   H16       1.0  0.71440  0.54810  0.56730  1.0000
  H   H17       1.0  0.57850  0.37590  0.66240  1.0000
  H   H18       1.0  0.42150  0.62410  0.33760  1.0000
