data_image0
_chemical_formula_structural       Cd2S6C18H12
_chemical_formula_sum              "Cd2 S6 C18 H12"
_cell_length_a       9.04393
_cell_length_b       9.60952
_cell_length_c       12.1736
_cell_angle_alpha    94.7168
_cell_angle_beta     80.1422
_cell_angle_gamma    68.6195

_space_group_name_H-M_alt    "P 1"
_space_group_IT_number       1

loop_
  _space_group_symop_operation_xyz
  'x, y, z'

loop_
  _atom_site_type_symbol
  _atom_site_label
  _atom_site_symmetry_multiplicity
  _atom_site_fract_x
  _atom_site_fract_y
  _atom_site_fract_z
  _atom_site_occupancy
  Cd  Cd1       1.0  0.93306  0.09047  0.14503  1.0000
  Cd  Cd2       1.0  0.06694  0.90953  0.85497  1.0000
  S   S1        1.0  0.20415  0.89812  0.02467  1.0000
  S   S2        1.0  0.79585  0.10188  0.97533  1.0000
  S   S3        1.0  0.84721  0.97483  0.29976  1.0000
  S   S4        1.0  0.15279  0.02517  0.70024  1.0000
  S   S5        1.0  0.93735  0.33793  0.21575  1.0000
  S   S6        1.0  0.06265  0.66207  0.78425  1.0000
  C   C1        1.0  0.06681  0.02063  0.39803  1.0000
  C   C2        1.0  0.93319  0.97937  0.60197  1.0000
  C   C3        1.0  0.86535  0.96819  0.51307  1.0000
  C   C4        1.0  0.13465  0.03181  0.48693  1.0000
  C   C5        1.0  0.93217  0.98882  0.41110  1.0000
  C   C6        1.0  0.06783  0.01118  0.58890  1.0000
  C   C7        1.0  0.97389  0.43245  0.08993  1.0000
  C   C8        1.0  0.02611  0.56755  0.91007  1.0000
  C   C9        1.0  0.92605  0.58408  0.10270  1.0000
  C   C10       1.0  0.07395  0.41592  0.89730  1.0000
  C   C11       1.0  0.04783  0.34837  0.98723  1.0000
  C   C12       1.0  0.95217  0.65163  0.01277  1.0000
  C   C13       1.0  0.42221  0.00318  0.91466  1.0000
  C   C14       1.0  0.57779  0.99682  0.08534  1.0000
  C   C15       1.0  0.45107  0.95318  0.09591  1.0000
  C   C16       1.0  0.54893  0.04682  0.90409  1.0000
  C   C17       1.0  0.37328  0.95636  0.01057  1.0000
  C   C18       1.0  0.62672  0.04364  0.98943  1.0000
  H   H1        1.0  0.11641  0.03595  0.32232  1.0000
  H   H2        1.0  0.88359  0.96405  0.67768  1.0000
  H   H3        1.0  0.76539  0.94458  0.52278  1.0000
  H   H4        1.0  0.23461  0.05542  0.47722  1.0000
  H   H5        1.0  0.87115  0.64650  0.17894  1.0000
  H   H6        1.0  0.12885  0.35350  0.82106  1.0000
  H   H7        1.0  0.08335  0.23579  0.97775  1.0000
  H   H8        1.0  0.91665  0.76421  0.02225  1.0000
  H   H9        1.0  0.36445  0.00554  0.85129  1.0000
  H   H10       1.0  0.63555  0.99446  0.14871  1.0000
  H   H11       1.0  0.41474  0.91842  0.16712  1.0000
  H   H12       1.0  0.58526  0.08158  0.83288  1.0000
