data_image0
_chemical_formula_structural       In4S8O32C40H8C8H8
_chemical_formula_sum              "In4 S8 O32 C48 H16"
_cell_length_a       13.5642
_cell_length_b       13.5642
_cell_length_c       15.6425
_cell_angle_alpha    90
_cell_angle_beta     90
_cell_angle_gamma    90

_space_group_name_H-M_alt    "P 1"
_space_group_IT_number       1

loop_
  _space_group_symop_operation_xyz
  'x, y, z'

loop_
  _atom_site_type_symbol
  _atom_site_label
  _atom_site_symmetry_multiplicity
  _atom_site_fract_x
  _atom_site_fract_y
  _atom_site_fract_z
  _atom_site_occupancy
  In  In1       1.0  0.50000  0.07660  0.00000  1.0000
  In  In2       1.0  0.50000  0.92340  0.50000  1.0000
  In  In3       1.0  0.92340  0.50000  0.75000  1.0000
  In  In4       1.0  0.07660  0.50000  0.25000  1.0000
  S   S1        1.0  0.72360  0.78470  0.89210  1.0000
  S   S2        1.0  0.27640  0.21530  0.39210  1.0000
  S   S3        1.0  0.72360  0.21530  0.60790  1.0000
  S   S4        1.0  0.27640  0.78470  0.10790  1.0000
  S   S5        1.0  0.21530  0.27640  0.85790  1.0000
  S   S6        1.0  0.78470  0.72360  0.35790  1.0000
  S   S7        1.0  0.78470  0.27640  0.14210  1.0000
  S   S8        1.0  0.21530  0.72360  0.64210  1.0000
  O   O1        1.0  0.62100  0.95130  0.98550  1.0000
  O   O2        1.0  0.37900  0.04870  0.48550  1.0000
  O   O3        1.0  0.62100  0.04870  0.51450  1.0000
  O   O4        1.0  0.37900  0.95130  0.01450  1.0000
  O   O5        1.0  0.04870  0.37900  0.76450  1.0000
  O   O6        1.0  0.95130  0.62100  0.26450  1.0000
  O   O7        1.0  0.95130  0.37900  0.23550  1.0000
  O   O8        1.0  0.04870  0.62100  0.73550  1.0000
  O   O9        1.0  0.52720  0.99700  0.87860  1.0000
  O   O10       1.0  0.47280  0.00300  0.37860  1.0000
  O   O11       1.0  0.52720  0.00300  0.62140  1.0000
  O   O12       1.0  0.47280  0.99700  0.12140  1.0000
  O   O13       1.0  0.00300  0.47280  0.87140  1.0000
  O   O14       1.0  0.99700  0.52720  0.37140  1.0000
  O   O15       1.0  0.99700  0.47280  0.12860  1.0000
  O   O16       1.0  0.00300  0.52720  0.62860  1.0000
  O   O17       1.0  0.80740  0.60660  0.70850  1.0000
  O   O18       1.0  0.19260  0.39340  0.20850  1.0000
  O   O19       1.0  0.80740  0.39340  0.79150  1.0000
  O   O20       1.0  0.19260  0.60660  0.29150  1.0000
  O   O21       1.0  0.39340  0.19260  0.04150  1.0000
  O   O22       1.0  0.60660  0.80740  0.54150  1.0000
  O   O23       1.0  0.60660  0.19260  0.95850  1.0000
  O   O24       1.0  0.39340  0.80740  0.45850  1.0000
  O   O25       1.0  0.85230  0.61430  0.84220  1.0000
  O   O26       1.0  0.14770  0.38570  0.34220  1.0000
  O   O27       1.0  0.85230  0.38570  0.65780  1.0000
  O   O28       1.0  0.14770  0.61430  0.15780  1.0000
  O   O29       1.0  0.38570  0.14770  0.90780  1.0000
  O   O30       1.0  0.61430  0.85230  0.40780  1.0000
  O   O31       1.0  0.61430  0.14770  0.09220  1.0000
  O   O32       1.0  0.38570  0.85230  0.59220  1.0000
  C   C1        1.0  0.79890  0.64450  0.78240  1.0000
  C   C2        1.0  0.20110  0.35550  0.28240  1.0000
  C   C3        1.0  0.79890  0.35550  0.71760  1.0000
  C   C4        1.0  0.20110  0.64450  0.21760  1.0000
  C   C5        1.0  0.35550  0.20110  0.96760  1.0000
  C   C6        1.0  0.64450  0.79890  0.46760  1.0000
  C   C7        1.0  0.64450  0.20110  0.03240  1.0000
  C   C8        1.0  0.35550  0.79890  0.53240  1.0000
  C   C9        1.0  0.59380  0.94210  0.91000  1.0000
  C   C10       1.0  0.40620  0.05790  0.41000  1.0000
  C   C11       1.0  0.59380  0.05790  0.59000  1.0000
  C   C12       1.0  0.40620  0.94210  0.09000  1.0000
  C   C13       1.0  0.05790  0.40620  0.84000  1.0000
  C   C14       1.0  0.94210  0.59380  0.34000  1.0000
  C   C15       1.0  0.94210  0.40620  0.16000  1.0000
  C   C16       1.0  0.05790  0.59380  0.66000  1.0000
  C   C17       1.0  0.63680  0.86480  0.85430  1.0000
  C   C18       1.0  0.36320  0.13520  0.35430  1.0000
  C   C19       1.0  0.63680  0.13520  0.64570  1.0000
  C   C20       1.0  0.36320  0.86480  0.14570  1.0000
  C   C21       1.0  0.13520  0.36320  0.89570  1.0000
  C   C22       1.0  0.86480  0.63680  0.39570  1.0000
  C   C23       1.0  0.86480  0.36320  0.10430  1.0000
  C   C24       1.0  0.13520  0.63680  0.60430  1.0000
  C   C25       1.0  0.73090  0.72700  0.79490  1.0000
  C   C26       1.0  0.26910  0.27300  0.29490  1.0000
  C   C27       1.0  0.73090  0.27300  0.70510  1.0000
  C   C28       1.0  0.26910  0.72700  0.20510  1.0000
  C   C29       1.0  0.27300  0.26910  0.95510  1.0000
  C   C30       1.0  0.72700  0.73090  0.45510  1.0000
  C   C31       1.0  0.72700  0.26910  0.04490  1.0000
  C   C32       1.0  0.27300  0.73090  0.54490  1.0000
  C   C33       1.0  0.66780  0.76580  0.73720  1.0000
  C   C34       1.0  0.33220  0.23420  0.23720  1.0000
  C   C35       1.0  0.66780  0.23420  0.76280  1.0000
  C   C36       1.0  0.33220  0.76580  0.26280  1.0000
  C   C37       1.0  0.23420  0.33220  0.01280  1.0000
  C   C38       1.0  0.76580  0.66780  0.51280  1.0000
  C   C39       1.0  0.76580  0.33220  0.98720  1.0000
  C   C40       1.0  0.23420  0.66780  0.48720  1.0000
  H   H1        1.0  0.65980  0.74210  0.68180  1.0000
  H   H2        1.0  0.34020  0.25790  0.18180  1.0000
  H   H3        1.0  0.65980  0.25790  0.81820  1.0000
  H   H4        1.0  0.34020  0.74210  0.31820  1.0000
  H   H5        1.0  0.25790  0.34020  0.06820  1.0000
  H   H6        1.0  0.74210  0.65980  0.56820  1.0000
  H   H7        1.0  0.74210  0.34020  0.93180  1.0000
  H   H8        1.0  0.25790  0.65980  0.43180  1.0000
  C   C41       1.0  0.61550  0.84710  0.77130  1.0000
  C   C42       1.0  0.38450  0.15290  0.27130  1.0000
  C   C43       1.0  0.61550  0.15290  0.72870  1.0000
  C   C44       1.0  0.38450  0.84710  0.22870  1.0000
  C   C45       1.0  0.15290  0.38450  0.97870  1.0000
  C   C46       1.0  0.84710  0.61550  0.47870  1.0000
  C   C47       1.0  0.84710  0.38450  0.02130  1.0000
  C   C48       1.0  0.15290  0.61550  0.52130  1.0000
  H   H9        1.0  0.57090  0.88450  0.73980  1.0000
  H   H10       1.0  0.42910  0.11550  0.23980  1.0000
  H   H11       1.0  0.57090  0.11550  0.76020  1.0000
  H   H12       1.0  0.42910  0.88450  0.26020  1.0000
  H   H13       1.0  0.11550  0.42910  0.01020  1.0000
  H   H14       1.0  0.88450  0.57090  0.51020  1.0000
  H   H15       1.0  0.88450  0.42910  0.98980  1.0000
  H   H16       1.0  0.11550  0.57090  0.48980  1.0000
