data_image0
_chemical_formula_structural       C16H8C16H8C16H8C24Li20O52H8
_chemical_formula_sum              "C72 H32 Li20 O52"
_cell_length_a       9.9218
_cell_length_b       14.6941
_cell_length_c       13.5697
_cell_angle_alpha    90
_cell_angle_beta     90
_cell_angle_gamma    90

_space_group_name_H-M_alt    "P 1"
_space_group_IT_number       1

loop_
  _space_group_symop_operation_xyz
  'x, y, z'

loop_
  _atom_site_type_symbol
  _atom_site_label
  _atom_site_symmetry_multiplicity
  _atom_site_fract_x
  _atom_site_fract_y
  _atom_site_fract_z
  _atom_site_occupancy
  C   C1        1.0  0.33160  0.61540  0.98985  1.0000
  C   C2        1.0  0.16840  0.38460  0.48985  1.0000
  C   C3        1.0  0.66840  0.11540  0.01015  1.0000
  C   C4        1.0  0.83160  0.88460  0.51015  1.0000
  C   C5        1.0  0.66840  0.38460  0.01015  1.0000
  C   C6        1.0  0.83160  0.61540  0.51015  1.0000
  C   C7        1.0  0.33160  0.88460  0.98985  1.0000
  C   C8        1.0  0.16840  0.11540  0.48985  1.0000
  C   C9        1.0  0.35270  0.58610  0.89394  1.0000
  C   C10       1.0  0.14730  0.41390  0.39394  1.0000
  C   C11       1.0  0.64730  0.08610  0.10606  1.0000
  C   C12       1.0  0.85270  0.91390  0.60606  1.0000
  C   C13       1.0  0.64730  0.41390  0.10606  1.0000
  C   C14       1.0  0.85270  0.58610  0.60606  1.0000
  C   C15       1.0  0.35270  0.91390  0.89394  1.0000
  C   C16       1.0  0.14730  0.08610  0.39394  1.0000
  H   H1        1.0  0.27752  0.57583  0.85205  1.0000
  H   H2        1.0  0.22248  0.42417  0.35205  1.0000
  H   H3        1.0  0.72248  0.07583  0.14795  1.0000
  H   H4        1.0  0.77752  0.92417  0.64795  1.0000
  H   H5        1.0  0.72248  0.42417  0.14795  1.0000
  H   H6        1.0  0.77752  0.57583  0.64795  1.0000
  H   H7        1.0  0.27752  0.92417  0.85205  1.0000
  H   H8        1.0  0.22248  0.07583  0.35205  1.0000
  C   C17       1.0  0.48240  0.57152  0.85810  1.0000
  C   C18       1.0  0.01760  0.42848  0.35810  1.0000
  C   C19       1.0  0.51760  0.07152  0.14190  1.0000
  C   C20       1.0  0.98240  0.92848  0.64190  1.0000
  C   C21       1.0  0.51760  0.42848  0.14190  1.0000
  C   C22       1.0  0.98240  0.57152  0.64190  1.0000
  C   C23       1.0  0.48240  0.92848  0.85810  1.0000
  C   C24       1.0  0.01760  0.07152  0.35810  1.0000
  C   C25       1.0  0.59250  0.58884  0.91913  1.0000
  C   C26       1.0  0.90750  0.41116  0.41913  1.0000
  C   C27       1.0  0.40750  0.08884  0.08087  1.0000
  C   C28       1.0  0.09250  0.91116  0.58087  1.0000
  C   C29       1.0  0.40750  0.41116  0.08087  1.0000
  C   C30       1.0  0.09250  0.58884  0.58087  1.0000
  C   C31       1.0  0.59250  0.91116  0.91913  1.0000
  C   C32       1.0  0.90750  0.08884  0.41913  1.0000
  H   H9        1.0  0.68119  0.57755  0.89576  1.0000
  H   H10       1.0  0.81881  0.42245  0.39576  1.0000
  H   H11       1.0  0.31881  0.07755  0.10424  1.0000
  H   H12       1.0  0.18119  0.92245  0.60424  1.0000
  H   H13       1.0  0.31881  0.42245  0.10424  1.0000
  H   H14       1.0  0.18119  0.57755  0.60424  1.0000
  H   H15       1.0  0.68119  0.92245  0.89576  1.0000
  H   H16       1.0  0.81881  0.07755  0.39576  1.0000
  C   C33       1.0  0.57370  0.62253  0.01400  1.0000
  C   C34       1.0  0.92630  0.37747  0.51400  1.0000
  C   C35       1.0  0.42630  0.12253  0.98600  1.0000
  C   C36       1.0  0.07370  0.87747  0.48600  1.0000
  C   C37       1.0  0.42630  0.37747  0.98600  1.0000
  C   C38       1.0  0.07370  0.62253  0.48600  1.0000
  C   C39       1.0  0.57370  0.87747  0.01400  1.0000
  C   C40       1.0  0.92630  0.12253  0.51400  1.0000
  C   C41       1.0  0.44260  0.63586  0.04877  1.0000
  C   C42       1.0  0.05740  0.36414  0.54877  1.0000
  C   C43       1.0  0.55740  0.13586  0.95123  1.0000
  C   C44       1.0  0.94260  0.86414  0.45123  1.0000
  C   C45       1.0  0.55740  0.36414  0.95123  1.0000
  C   C46       1.0  0.94260  0.63586  0.45123  1.0000
  C   C47       1.0  0.44260  0.86414  0.04877  1.0000
  C   C48       1.0  0.05740  0.13586  0.54877  1.0000
  H   H17       1.0  0.42904  0.65914  0.11333  1.0000
  H   H18       1.0  0.07096  0.34086  0.61333  1.0000
  H   H19       1.0  0.57096  0.15914  0.88667  1.0000
  H   H20       1.0  0.92904  0.84086  0.38667  1.0000
  H   H21       1.0  0.57096  0.34086  0.88667  1.0000
  H   H22       1.0  0.92904  0.65914  0.38667  1.0000
  H   H23       1.0  0.42904  0.84086  0.11333  1.0000
  H   H24       1.0  0.07096  0.15914  0.61333  1.0000
  C   C49       1.0  0.19280  0.61438  0.03547  1.0000
  C   C50       1.0  0.30720  0.38562  0.53547  1.0000
  C   C51       1.0  0.80720  0.11438  0.96453  1.0000
  C   C52       1.0  0.69280  0.88562  0.46453  1.0000
  C   C53       1.0  0.80720  0.38562  0.96453  1.0000
  C   C54       1.0  0.69280  0.61438  0.46453  1.0000
  C   C55       1.0  0.19280  0.88562  0.03547  1.0000
  C   C56       1.0  0.30720  0.11438  0.53547  1.0000
  C   C57       1.0  0.50160  0.52939  0.75820  1.0000
  C   C58       1.0  0.99840  0.47061  0.25820  1.0000
  C   C59       1.0  0.49840  0.02939  0.24180  1.0000
  C   C60       1.0  0.00160  0.97061  0.74180  1.0000
  C   C61       1.0  0.49840  0.47061  0.24180  1.0000
  C   C62       1.0  0.00160  0.52939  0.74180  1.0000
  C   C63       1.0  0.50160  0.97061  0.75820  1.0000
  C   C64       1.0  0.99840  0.02939  0.25820  1.0000
  C   C65       1.0  0.69190  0.63341  0.08296  1.0000
  C   C66       1.0  0.80810  0.36659  0.58296  1.0000
  C   C67       1.0  0.30810  0.13341  0.91704  1.0000
  C   C68       1.0  0.19190  0.86659  0.41704  1.0000
  C   C69       1.0  0.30810  0.36659  0.91704  1.0000
  C   C70       1.0  0.19190  0.63341  0.41704  1.0000
  C   C71       1.0  0.69190  0.86659  0.08296  1.0000
  C   C72       1.0  0.80810  0.13341  0.58296  1.0000
  Li  Li1       1.0  0.22580  0.56440  0.22480  1.0000
  Li  Li2       1.0  0.27420  0.43560  0.72480  1.0000
  Li  Li3       1.0  0.77420  0.06440  0.77520  1.0000
  Li  Li4       1.0  0.72580  0.93560  0.27520  1.0000
  Li  Li5       1.0  0.77420  0.43560  0.77520  1.0000
  Li  Li6       1.0  0.72580  0.56440  0.27520  1.0000
  Li  Li7       1.0  0.22580  0.93560  0.22480  1.0000
  Li  Li8       1.0  0.27420  0.06440  0.72480  1.0000
  Li  Li9       1.0  0.04940  0.46600  0.91220  1.0000
  Li  Li10      1.0  0.45060  0.53400  0.41220  1.0000
  Li  Li11      1.0  0.95060  0.96600  0.08780  1.0000
  Li  Li12      1.0  0.54940  0.03400  0.58780  1.0000
  Li  Li13      1.0  0.95060  0.53400  0.08780  1.0000
  Li  Li14      1.0  0.54940  0.46600  0.58780  1.0000
  Li  Li15      1.0  0.04940  0.03400  0.91220  1.0000
  Li  Li16      1.0  0.45060  0.96600  0.41220  1.0000
  Li  Li17      1.0  0.12970  0.75000  0.21910  1.0000
  Li  Li18      1.0  0.37030  0.25000  0.71910  1.0000
  Li  Li19      1.0  0.87030  0.25000  0.78090  1.0000
  Li  Li20      1.0  0.62970  0.75000  0.28090  1.0000
  O   O1        1.0  0.18033  0.64744  0.12066  1.0000
  O   O2        1.0  0.31967  0.35256  0.62066  1.0000
  O   O3        1.0  0.81967  0.14744  0.87934  1.0000
  O   O4        1.0  0.68033  0.85256  0.37934  1.0000
  O   O5        1.0  0.81967  0.35256  0.87934  1.0000
  O   O6        1.0  0.68033  0.64744  0.37934  1.0000
  O   O7        1.0  0.18033  0.85256  0.12066  1.0000
  O   O8        1.0  0.31967  0.14744  0.62066  1.0000
  O   O9        1.0  0.09736  0.57719  0.98906  1.0000
  O   O10       1.0  0.40264  0.42281  0.48906  1.0000
  O   O11       1.0  0.90264  0.07719  0.01094  1.0000
  O   O12       1.0  0.59736  0.92281  0.51094  1.0000
  O   O13       1.0  0.90264  0.42281  0.01094  1.0000
  O   O14       1.0  0.59736  0.57719  0.51094  1.0000
  O   O15       1.0  0.09736  0.92281  0.98906  1.0000
  O   O16       1.0  0.40264  0.07719  0.48906  1.0000
  O   O17       1.0  0.40498  0.53272  0.69771  1.0000
  O   O18       1.0  0.09502  0.46728  0.19771  1.0000
  O   O19       1.0  0.59502  0.03272  0.30229  1.0000
  O   O20       1.0  0.90498  0.96728  0.80229  1.0000
  O   O21       1.0  0.59502  0.46728  0.30229  1.0000
  O   O22       1.0  0.90498  0.53272  0.80229  1.0000
  O   O23       1.0  0.40498  0.96728  0.69771  1.0000
  O   O24       1.0  0.09502  0.03272  0.19771  1.0000
  O   O25       1.0  0.61176  0.49114  0.73767  1.0000
  O   O26       1.0  0.88824  0.50886  0.23767  1.0000
  O   O27       1.0  0.38824  0.99114  0.26233  1.0000
  O   O28       1.0  0.11176  0.00886  0.76233  1.0000
  O   O29       1.0  0.38824  0.50886  0.26233  1.0000
  O   O30       1.0  0.11176  0.49114  0.76233  1.0000
  O   O31       1.0  0.61176  0.00886  0.73767  1.0000
  O   O32       1.0  0.88824  0.99114  0.23767  1.0000
  O   O33       1.0  0.80962  0.62671  0.04832  1.0000
  O   O34       1.0  0.69038  0.37329  0.54832  1.0000
  O   O35       1.0  0.19038  0.12671  0.95168  1.0000
  O   O36       1.0  0.30962  0.87329  0.45168  1.0000
  O   O37       1.0  0.19038  0.37329  0.95168  1.0000
  O   O38       1.0  0.30962  0.62671  0.45168  1.0000
  O   O39       1.0  0.80962  0.87329  0.04832  1.0000
  O   O40       1.0  0.69038  0.12671  0.54832  1.0000
  O   O41       1.0  0.66678  0.64572  0.17317  1.0000
  O   O42       1.0  0.83322  0.35428  0.67317  1.0000
  O   O43       1.0  0.33322  0.14572  0.82683  1.0000
  O   O44       1.0  0.16678  0.85428  0.32683  1.0000
  O   O45       1.0  0.33322  0.35428  0.82683  1.0000
  O   O46       1.0  0.16678  0.64572  0.32683  1.0000
  O   O47       1.0  0.66678  0.85428  0.17317  1.0000
  O   O48       1.0  0.83322  0.14572  0.67317  1.0000
  O   O49       1.0  0.93310  0.75000  0.20898  1.0000
  O   O50       1.0  0.56690  0.25000  0.70898  1.0000
  O   O51       1.0  0.06690  0.25000  0.79102  1.0000
  O   O52       1.0  0.43310  0.75000  0.29102  1.0000
  H   H25       1.0  0.89900  0.70560  0.17840  1.0000
  H   H26       1.0  0.60100  0.29440  0.67840  1.0000
  H   H27       1.0  0.10100  0.20560  0.82160  1.0000
  H   H28       1.0  0.39900  0.79440  0.32160  1.0000
  H   H29       1.0  0.10100  0.29440  0.82160  1.0000
  H   H30       1.0  0.39900  0.70560  0.32160  1.0000
  H   H31       1.0  0.89900  0.79440  0.17840  1.0000
  H   H32       1.0  0.60100  0.20560  0.67840  1.0000
