data_image0
_chemical_formula_structural       C8H4C8H4C8H4O8H4O12H4O16H4P12Zn4
_chemical_formula_sum              "C24 H24 O36 P12 Zn4"
_cell_length_a       12.619
_cell_length_b       8.4948
_cell_length_c       13.954
_cell_angle_alpha    90
_cell_angle_beta     90.588
_cell_angle_gamma    90

_space_group_name_H-M_alt    "P 1"
_space_group_IT_number       1

loop_
  _space_group_symop_operation_xyz
  'x, y, z'

loop_
  _atom_site_type_symbol
  _atom_site_label
  _atom_site_symmetry_multiplicity
  _atom_site_fract_x
  _atom_site_fract_y
  _atom_site_fract_z
  _atom_site_occupancy
  C   C1        1.0  0.87930  0.62660  0.58380  1.0000
  C   C2        1.0  0.62070  0.12660  0.91620  1.0000
  C   C3        1.0  0.12070  0.37340  0.41620  1.0000
  C   C4        1.0  0.37930  0.87340  0.08380  1.0000
  C   C5        1.0  0.87130  0.69230  0.49190  1.0000
  C   C6        1.0  0.62870  0.19230  0.00810  1.0000
  C   C7        1.0  0.12870  0.30770  0.50810  1.0000
  C   C8        1.0  0.37130  0.80770  0.99190  1.0000
  H   H1        1.0  0.89130  0.79880  0.48200  1.0000
  H   H2        1.0  0.60870  0.29880  0.01800  1.0000
  H   H3        1.0  0.10870  0.20120  0.51800  1.0000
  H   H4        1.0  0.39130  0.70120  0.98200  1.0000
  C   C9        1.0  0.83420  0.60310  0.41540  1.0000
  C   C10       1.0  0.66580  0.10310  0.08460  1.0000
  C   C11       1.0  0.16580  0.39690  0.58460  1.0000
  C   C12       1.0  0.33420  0.89690  0.91540  1.0000
  C   C13       1.0  0.80800  0.44550  0.42980  1.0000
  C   C14       1.0  0.69200  0.94550  0.07020  1.0000
  C   C15       1.0  0.19200  0.55450  0.57020  1.0000
  C   C16       1.0  0.30800  0.05450  0.92980  1.0000
  H   H5        1.0  0.78190  0.38470  0.37750  1.0000
  H   H6        1.0  0.71810  0.88470  0.12250  1.0000
  H   H7        1.0  0.21810  0.61530  0.62250  1.0000
  H   H8        1.0  0.28190  0.11530  0.87750  1.0000
  C   C17       1.0  0.81910  0.37630  0.51890  1.0000
  C   C18       1.0  0.68090  0.87630  0.98110  1.0000
  C   C19       1.0  0.18090  0.62370  0.48110  1.0000
  C   C20       1.0  0.31910  0.12370  0.01890  1.0000
  C   C21       1.0  0.85230  0.46890  0.59520  1.0000
  C   C22       1.0  0.64770  0.96890  0.90480  1.0000
  C   C23       1.0  0.14770  0.53110  0.40480  1.0000
  C   C24       1.0  0.35230  0.03110  0.09520  1.0000
  H   H9        1.0  0.85680  0.42330  0.65730  1.0000
  H   H10       1.0  0.64320  0.92330  0.84270  1.0000
  H   H11       1.0  0.14320  0.57670  0.34270  1.0000
  H   H12       1.0  0.35680  0.07670  0.15730  1.0000
  O   O1        1.0  0.79250  0.07980  0.44930  1.0000
  O   O2        1.0  0.70750  0.57980  0.05070  1.0000
  O   O3        1.0  0.20750  0.92020  0.55070  1.0000
  O   O4        1.0  0.29250  0.42020  0.94930  1.0000
  O   O5        1.0  0.90450  0.13620  0.59600  1.0000
  O   O6        1.0  0.59550  0.63620  0.90400  1.0000
  O   O7        1.0  0.09550  0.86380  0.40400  1.0000
  O   O8        1.0  0.40450  0.36380  0.09600  1.0000
  H   H13       1.0  0.91050  0.03890  0.60520  1.0000
  H   H14       1.0  0.58950  0.53890  0.89480  1.0000
  H   H15       1.0  0.08950  0.96110  0.39480  1.0000
  H   H16       1.0  0.41050  0.46110  0.10520  1.0000
  O   O9        1.0  0.70650  0.14130  0.60300  1.0000
  O   O10       1.0  0.79350  0.64130  0.89700  1.0000
  O   O11       1.0  0.29350  0.85870  0.39700  1.0000
  O   O12       1.0  0.20650  0.35870  0.10300  1.0000
  O   O13       1.0  0.98930  0.87160  0.65547  1.0000
  O   O14       1.0  0.51070  0.37160  0.84453  1.0000
  O   O15       1.0  0.01070  0.12840  0.34453  1.0000
  O   O16       1.0  0.48930  0.62840  0.15547  1.0000
  O   O17       1.0  0.82610  0.79360  0.73960  1.0000
  O   O18       1.0  0.67390  0.29360  0.76040  1.0000
  O   O19       1.0  0.17390  0.20640  0.26040  1.0000
  O   O20       1.0  0.32610  0.70640  0.23960  1.0000
  H   H17       1.0  0.81910  0.74760  0.79250  1.0000
  H   H18       1.0  0.68090  0.24760  0.70750  1.0000
  H   H19       1.0  0.18090  0.25240  0.20750  1.0000
  H   H20       1.0  0.31910  0.75240  0.29250  1.0000
  O   O21       1.0  0.98270  0.61630  0.75222  1.0000
  O   O22       1.0  0.51730  0.11630  0.74778  1.0000
  O   O23       1.0  0.01730  0.38370  0.24778  1.0000
  O   O24       1.0  0.48270  0.88370  0.25222  1.0000
  O   O25       1.0  0.87230  0.84450  0.29502  1.0000
  O   O26       1.0  0.62770  0.34450  0.20498  1.0000
  O   O27       1.0  0.12770  0.15550  0.70498  1.0000
  O   O28       1.0  0.37230  0.65550  0.79502  1.0000
  O   O29       1.0  0.70320  0.69100  0.27114  1.0000
  O   O30       1.0  0.79680  0.19100  0.22886  1.0000
  O   O31       1.0  0.29680  0.30900  0.72886  1.0000
  O   O32       1.0  0.20320  0.80900  0.77114  1.0000
  O   O33       1.0  0.87210  0.57310  0.22500  1.0000
  O   O34       1.0  0.62790  0.07310  0.27500  1.0000
  O   O35       1.0  0.12790  0.42690  0.77500  1.0000
  O   O36       1.0  0.37210  0.92690  0.72500  1.0000
  H   H21       1.0  0.92140  0.52390  0.25260  1.0000
  H   H22       1.0  0.57860  0.02390  0.24740  1.0000
  H   H23       1.0  0.07860  0.47610  0.74740  1.0000
  H   H24       1.0  0.42140  0.97610  0.75260  1.0000
  P   P1        1.0  0.92645  0.72922  0.68808  1.0000
  P   P2        1.0  0.57355  0.22922  0.81192  1.0000
  P   P3        1.0  0.07355  0.27078  0.31192  1.0000
  P   P4        1.0  0.42645  0.77078  0.18808  1.0000
  P   P5        1.0  0.79970  0.17005  0.54090  1.0000
  P   P6        1.0  0.70030  0.67005  0.95910  1.0000
  P   P7        1.0  0.20030  0.82995  0.45910  1.0000
  P   P8        1.0  0.29970  0.32995  0.04090  1.0000
  P   P9        1.0  0.81958  0.68718  0.29698  1.0000
  P   P10       1.0  0.68042  0.18718  0.20302  1.0000
  P   P11       1.0  0.18042  0.31282  0.70302  1.0000
  P   P12       1.0  0.31958  0.81282  0.79698  1.0000
  Zn  Zn1       1.0  0.86114  0.06319  0.32777  1.0000
  Zn  Zn2       1.0  0.63886  0.56319  0.17223  1.0000
  Zn  Zn3       1.0  0.13886  0.93681  0.67223  1.0000
  Zn  Zn4       1.0  0.36114  0.43681  0.82777  1.0000
