data_image0
_chemical_formula_structural       Mn4O24C12H12
_chemical_formula_sum              "Mn4 O24 C12 H12"
_cell_length_a       8.7056
_cell_length_b       8.7056
_cell_length_c       13.6719
_cell_angle_alpha    90
_cell_angle_beta     90
_cell_angle_gamma    120

_space_group_name_H-M_alt    "P 1"
_space_group_IT_number       1

loop_
  _space_group_symop_operation_xyz
  'x, y, z'

loop_
  _atom_site_type_symbol
  _atom_site_label
  _atom_site_symmetry_multiplicity
  _atom_site_fract_x
  _atom_site_fract_y
  _atom_site_fract_z
  _atom_site_occupancy
  Mn  Mn1       1.0  0.00000  0.00000  0.50000  1.0000
  Mn  Mn2       1.0  0.00000  0.00000  0.00000  1.0000
  Mn  Mn3       1.0  0.33330  0.66670  0.25000  1.0000
  Mn  Mn4       1.0  0.66670  0.33330  0.75000  1.0000
  O   O1        1.0  0.21807  0.20626  0.41584  1.0000
  O   O2        1.0  0.79374  0.01181  0.41584  1.0000
  O   O3        1.0  0.98819  0.78193  0.41584  1.0000
  O   O4        1.0  0.79374  0.78193  0.08416  1.0000
  O   O5        1.0  0.98819  0.20626  0.08416  1.0000
  O   O6        1.0  0.21807  0.01181  0.08416  1.0000
  O   O7        1.0  0.78193  0.79374  0.58416  1.0000
  O   O8        1.0  0.20626  0.98819  0.58416  1.0000
  O   O9        1.0  0.01181  0.21807  0.58416  1.0000
  O   O10       1.0  0.20626  0.21807  0.91584  1.0000
  O   O11       1.0  0.01181  0.79374  0.91584  1.0000
  O   O12       1.0  0.78193  0.98819  0.91584  1.0000
  O   O13       1.0  0.33837  0.46836  0.34489  1.0000
  O   O14       1.0  0.53164  0.87001  0.34489  1.0000
  O   O15       1.0  0.12999  0.66163  0.34489  1.0000
  O   O16       1.0  0.53164  0.66163  0.15511  1.0000
  O   O17       1.0  0.12999  0.46836  0.15511  1.0000
  O   O18       1.0  0.33837  0.87001  0.15511  1.0000
  O   O19       1.0  0.66163  0.53164  0.65511  1.0000
  O   O20       1.0  0.46836  0.12999  0.65511  1.0000
  O   O21       1.0  0.87001  0.33837  0.65511  1.0000
  O   O22       1.0  0.46836  0.33837  0.84489  1.0000
  O   O23       1.0  0.87001  0.53164  0.84489  1.0000
  O   O24       1.0  0.66163  0.12999  0.84489  1.0000
  C   C1        1.0  0.21390  0.32590  0.37102  1.0000
  C   C2        1.0  0.67410  0.88800  0.37102  1.0000
  C   C3        1.0  0.11200  0.78610  0.37102  1.0000
  C   C4        1.0  0.67410  0.78610  0.12898  1.0000
  C   C5        1.0  0.11200  0.32590  0.12898  1.0000
  C   C6        1.0  0.21390  0.88800  0.12898  1.0000
  C   C7        1.0  0.78610  0.67410  0.62898  1.0000
  C   C8        1.0  0.32590  0.11200  0.62898  1.0000
  C   C9        1.0  0.88800  0.21390  0.62898  1.0000
  C   C10       1.0  0.32590  0.21390  0.87102  1.0000
  C   C11       1.0  0.88800  0.67410  0.87102  1.0000
  C   C12       1.0  0.78610  0.11200  0.87102  1.0000
  H   H1        1.0  0.10160  0.30590  0.35480  1.0000
  H   H2        1.0  0.69410  0.79570  0.35480  1.0000
  H   H3        1.0  0.20430  0.89840  0.35480  1.0000
  H   H4        1.0  0.69410  0.89840  0.14520  1.0000
  H   H5        1.0  0.20430  0.30590  0.14520  1.0000
  H   H6        1.0  0.10160  0.79570  0.14520  1.0000
  H   H7        1.0  0.89840  0.69410  0.64520  1.0000
  H   H8        1.0  0.30590  0.20430  0.64520  1.0000
  H   H9        1.0  0.79570  0.10160  0.64520  1.0000
  H   H10       1.0  0.30590  0.10160  0.85480  1.0000
  H   H11       1.0  0.79570  0.69410  0.85480  1.0000
  H   H12       1.0  0.89840  0.20430  0.85480  1.0000
