data_image0
_chemical_formula_structural       Mn8O48C4H4C4H4C4H4C4H4C4H4C4H4
_chemical_formula_sum              "Mn8 O48 C24 H24"
_cell_length_a       8.5514
_cell_length_b       15.2754
_cell_length_c       13.6038
_cell_angle_alpha    90
_cell_angle_beta     90.017
_cell_angle_gamma    90

_space_group_name_H-M_alt    "P 1"
_space_group_IT_number       1

loop_
  _space_group_symop_operation_xyz
  'x, y, z'

loop_
  _atom_site_type_symbol
  _atom_site_label
  _atom_site_symmetry_multiplicity
  _atom_site_fract_x
  _atom_site_fract_y
  _atom_site_fract_z
  _atom_site_occupancy
  Mn  Mn1       1.0  0.11684  0.33647  0.31992  1.0000
  Mn  Mn2       1.0  0.11684  0.66353  0.81992  1.0000
  Mn  Mn3       1.0  0.61684  0.83647  0.31992  1.0000
  Mn  Mn4       1.0  0.61684  0.16353  0.81992  1.0000
  Mn  Mn5       1.0  0.11652  0.99860  0.56736  1.0000
  Mn  Mn6       1.0  0.11652  0.00140  0.06736  1.0000
  Mn  Mn7       1.0  0.61652  0.49860  0.56736  1.0000
  Mn  Mn8       1.0  0.61652  0.50140  0.06736  1.0000
  O   O1        1.0  0.03039  0.24140  0.42871  1.0000
  O   O2        1.0  0.03039  0.75860  0.92871  1.0000
  O   O3        1.0  0.53039  0.74140  0.42871  1.0000
  O   O4        1.0  0.53039  0.25860  0.92871  1.0000
  O   O5        1.0  0.00753  0.10532  0.48449  1.0000
  O   O6        1.0  0.00753  0.89468  0.98449  1.0000
  O   O7        1.0  0.50753  0.60532  0.48449  1.0000
  O   O8        1.0  0.50753  0.39468  0.98449  1.0000
  O   O9        1.0  0.20774  0.23658  0.22169  1.0000
  O   O10       1.0  0.20774  0.76342  0.72169  1.0000
  O   O11       1.0  0.70774  0.73658  0.22169  1.0000
  O   O12       1.0  0.70774  0.26342  0.72169  1.0000
  O   O13       1.0  0.22088  0.10583  0.15207  1.0000
  O   O14       1.0  0.22088  0.89417  0.65207  1.0000
  O   O15       1.0  0.72088  0.60583  0.15207  1.0000
  O   O16       1.0  0.72088  0.39417  0.65207  1.0000
  O   O17       1.0  0.34527  0.33264  0.38361  1.0000
  O   O18       1.0  0.34527  0.66736  0.88361  1.0000
  O   O19       1.0  0.84527  0.83264  0.38361  1.0000
  O   O20       1.0  0.84527  0.16736  0.88361  1.0000
  O   O21       1.0  0.53398  0.40168  0.46507  1.0000
  O   O22       1.0  0.53398  0.59832  0.96507  1.0000
  O   O23       1.0  0.03398  0.90168  0.46507  1.0000
  O   O24       1.0  0.03398  0.09832  0.96507  1.0000
  O   O25       1.0  0.20412  0.43148  0.21294  1.0000
  O   O26       1.0  0.20412  0.56852  0.71294  1.0000
  O   O27       1.0  0.70412  0.93148  0.21294  1.0000
  O   O28       1.0  0.70412  0.06852  0.71294  1.0000
  O   O29       1.0  0.39120  0.50853  0.14020  1.0000
  O   O30       1.0  0.39120  0.49147  0.64020  1.0000
  O   O31       1.0  0.89120  0.00853  0.14020  1.0000
  O   O32       1.0  0.89120  0.99147  0.64020  1.0000
  O   O33       1.0  0.89534  0.33211  0.24156  1.0000
  O   O34       1.0  0.89534  0.66789  0.74156  1.0000
  O   O35       1.0  0.39534  0.83211  0.24156  1.0000
  O   O36       1.0  0.39534  0.16789  0.74156  1.0000
  O   O37       1.0  0.69461  0.39533  0.16505  1.0000
  O   O38       1.0  0.69461  0.60467  0.66505  1.0000
  O   O39       1.0  0.19461  0.89533  0.16505  1.0000
  O   O40       1.0  0.19461  0.10467  0.66505  1.0000
  O   O41       1.0  0.03604  0.44145  0.41716  1.0000
  O   O42       1.0  0.03604  0.55855  0.91716  1.0000
  O   O43       1.0  0.53604  0.94145  0.41716  1.0000
  O   O44       1.0  0.53604  0.05855  0.91716  1.0000
  O   O45       1.0  0.84033  0.50966  0.49281  1.0000
  O   O46       1.0  0.84033  0.49034  0.99281  1.0000
  O   O47       1.0  0.34033  0.00966  0.49281  1.0000
  O   O48       1.0  0.34033  0.99034  0.99281  1.0000
  C   C1        1.0  0.07680  0.16416  0.43705  1.0000
  C   C2        1.0  0.07680  0.83584  0.93705  1.0000
  C   C3        1.0  0.57680  0.66416  0.43705  1.0000
  C   C4        1.0  0.57680  0.33584  0.93705  1.0000
  H   H1        1.0  0.17170  0.14880  0.40510  1.0000
  H   H2        1.0  0.17170  0.85120  0.90510  1.0000
  H   H3        1.0  0.67170  0.64880  0.40510  1.0000
  H   H4        1.0  0.67170  0.35120  0.90510  1.0000
  C   C5        1.0  0.14660  0.16610  0.19218  1.0000
  C   C6        1.0  0.14660  0.83390  0.69218  1.0000
  C   C7        1.0  0.64660  0.66610  0.19218  1.0000
  C   C8        1.0  0.64660  0.33390  0.69218  1.0000
  H   H5        1.0  0.03730  0.15860  0.20110  1.0000
  H   H6        1.0  0.03730  0.84140  0.70110  1.0000
  H   H7        1.0  0.53730  0.65860  0.20110  1.0000
  H   H8        1.0  0.53730  0.34140  0.70110  1.0000
  C   C9        1.0  0.39480  0.37971  0.45166  1.0000
  C   C10       1.0  0.39480  0.62029  0.95166  1.0000
  C   C11       1.0  0.89480  0.87971  0.45166  1.0000
  C   C12       1.0  0.89480  0.12029  0.95166  1.0000
  H   H9        1.0  0.32000  0.40080  0.49750  1.0000
  H   H10       1.0  0.32000  0.59920  0.99750  1.0000
  H   H11       1.0  0.82000  0.90080  0.49750  1.0000
  H   H12       1.0  0.82000  0.09920  0.99750  1.0000
  C   C13       1.0  0.33850  0.46497  0.20999  1.0000
  C   C14       1.0  0.33850  0.53503  0.70999  1.0000
  C   C15       1.0  0.83850  0.96497  0.20999  1.0000
  C   C16       1.0  0.83850  0.03503  0.70999  1.0000
  H   H13       1.0  0.40470  0.45630  0.26520  1.0000
  H   H14       1.0  0.40470  0.54370  0.76520  1.0000
  H   H15       1.0  0.90470  0.95630  0.26520  1.0000
  H   H16       1.0  0.90470  0.04370  0.76520  1.0000
  C   C17       1.0  0.82780  0.39650  0.20495  1.0000
  C   C18       1.0  0.82780  0.60350  0.70495  1.0000
  C   C19       1.0  0.32780  0.89650  0.20495  1.0000
  C   C20       1.0  0.32780  0.10350  0.70495  1.0000
  H   H17       1.0  0.88090  0.45110  0.20730  1.0000
  H   H18       1.0  0.88090  0.54890  0.70730  1.0000
  H   H19       1.0  0.38090  0.95110  0.20730  1.0000
  H   H20       1.0  0.38090  0.04890  0.70730  1.0000
  C   C21       1.0  0.89560  0.44557  0.44700  1.0000
  C   C22       1.0  0.89560  0.55443  0.94700  1.0000
  C   C23       1.0  0.39560  0.94557  0.44700  1.0000
  C   C24       1.0  0.39560  0.05443  0.94700  1.0000
  H   H21       1.0  0.82860  0.39740  0.43390  1.0000
  H   H22       1.0  0.82860  0.60260  0.93390  1.0000
  H   H23       1.0  0.32860  0.89740  0.43390  1.0000
  H   H24       1.0  0.32860  0.10260  0.93390  1.0000
