data_image0
_chemical_formula_structural       Mn8O48C4H4C4H4C4H4C4H4C4H4C4H4
_chemical_formula_sum              "Mn8 O48 C24 H24"
_cell_length_a       8.5685
_cell_length_b       15.3292
_cell_length_c       13.6602
_cell_angle_alpha    90
_cell_angle_beta     90.226
_cell_angle_gamma    90

_space_group_name_H-M_alt    "P 1"
_space_group_IT_number       1

loop_
  _space_group_symop_operation_xyz
  'x, y, z'

loop_
  _atom_site_type_symbol
  _atom_site_label
  _atom_site_symmetry_multiplicity
  _atom_site_fract_x
  _atom_site_fract_y
  _atom_site_fract_z
  _atom_site_occupancy
  Mn  Mn1       1.0  0.21840  0.83558  0.98772  1.0000
  Mn  Mn2       1.0  0.21840  0.16442  0.48772  1.0000
  Mn  Mn3       1.0  0.71840  0.33558  0.98772  1.0000
  Mn  Mn4       1.0  0.71840  0.66442  0.48772  1.0000
  Mn  Mn5       1.0  0.21630  0.50213  0.73527  1.0000
  Mn  Mn6       1.0  0.21630  0.49787  0.23527  1.0000
  Mn  Mn7       1.0  0.71630  0.00213  0.73527  1.0000
  Mn  Mn8       1.0  0.71630  0.99787  0.23527  1.0000
  O   O1        1.0  0.31110  0.93030  0.88260  1.0000
  O   O2        1.0  0.31110  0.06970  0.38260  1.0000
  O   O3        1.0  0.81110  0.43030  0.88260  1.0000
  O   O4        1.0  0.81110  0.56970  0.38260  1.0000
  O   O5        1.0  0.13390  0.93920  0.08500  1.0000
  O   O6        1.0  0.13390  0.06080  0.58500  1.0000
  O   O7        1.0  0.63390  0.43920  0.08500  1.0000
  O   O8        1.0  0.63390  0.56080  0.58500  1.0000
  O   O9        1.0  0.31300  0.73680  0.88940  1.0000
  O   O10       1.0  0.31300  0.26320  0.38940  1.0000
  O   O11       1.0  0.81300  0.23680  0.88940  1.0000
  O   O12       1.0  0.81300  0.76320  0.38940  1.0000
  O   O13       1.0  0.13120  0.73800  0.09190  1.0000
  O   O14       1.0  0.13120  0.26200  0.59190  1.0000
  O   O15       1.0  0.63120  0.23800  0.09190  1.0000
  O   O16       1.0  0.63120  0.76200  0.59190  1.0000
  O   O17       1.0  0.44310  0.83280  0.05630  1.0000
  O   O18       1.0  0.44310  0.16720  0.55630  1.0000
  O   O19       1.0  0.94310  0.33280  0.05630  1.0000
  O   O20       1.0  0.94310  0.66720  0.55630  1.0000
  O   O21       1.0  0.00150  0.83420  0.90580  1.0000
  O   O22       1.0  0.00150  0.16580  0.40580  1.0000
  O   O23       1.0  0.50150  0.33420  0.90580  1.0000
  O   O24       1.0  0.50150  0.66580  0.40580  1.0000
  O   O25       1.0  0.93810  0.00490  0.16100  1.0000
  O   O26       1.0  0.93810  0.99510  0.66100  1.0000
  O   O27       1.0  0.43810  0.50490  0.16100  1.0000
  O   O28       1.0  0.43810  0.49510  0.66100  1.0000
  O   O29       1.0  0.31960  0.60850  0.81720  1.0000
  O   O30       1.0  0.31960  0.39150  0.31720  1.0000
  O   O31       1.0  0.81960  0.10850  0.81720  1.0000
  O   O32       1.0  0.81960  0.89150  0.31720  1.0000
  O   O33       1.0  0.49390  0.00680  0.81120  1.0000
  O   O34       1.0  0.49390  0.99320  0.31120  1.0000
  O   O35       1.0  0.99390  0.50680  0.81120  1.0000
  O   O36       1.0  0.99390  0.49320  0.31120  1.0000
  O   O37       1.0  0.10920  0.60530  0.15240  1.0000
  O   O38       1.0  0.10920  0.39470  0.65240  1.0000
  O   O39       1.0  0.60920  0.10530  0.15240  1.0000
  O   O40       1.0  0.60920  0.89470  0.65240  1.0000
  O   O41       1.0  0.62980  0.90290  0.13380  1.0000
  O   O42       1.0  0.62980  0.09710  0.63380  1.0000
  O   O43       1.0  0.12980  0.40290  0.13380  1.0000
  O   O44       1.0  0.12980  0.59710  0.63380  1.0000
  O   O45       1.0  0.80130  0.89680  0.83070  1.0000
  O   O46       1.0  0.80130  0.10320  0.33070  1.0000
  O   O47       1.0  0.30130  0.39680  0.83070  1.0000
  O   O48       1.0  0.30130  0.60320  0.33070  1.0000
  C   C1        1.0  0.24890  0.66850  0.85780  1.0000
  C   C2        1.0  0.24890  0.33150  0.35780  1.0000
  C   C3        1.0  0.74890  0.16850  0.85780  1.0000
  C   C4        1.0  0.74890  0.83150  0.35780  1.0000
  H   H1        1.0  0.14160  0.66290  0.86560  1.0000
  H   H2        1.0  0.14160  0.33710  0.36560  1.0000
  H   H3        1.0  0.64160  0.16290  0.86560  1.0000
  H   H4        1.0  0.64160  0.83710  0.36560  1.0000
  C   C5        1.0  0.17460  0.66240  0.10430  1.0000
  C   C6        1.0  0.17460  0.33760  0.60430  1.0000
  C   C7        1.0  0.67460  0.16240  0.10430  1.0000
  C   C8        1.0  0.67460  0.83760  0.60430  1.0000
  H   H5        1.0  0.26720  0.64660  0.07390  1.0000
  H   H6        1.0  0.26720  0.35340  0.57390  1.0000
  H   H7        1.0  0.76720  0.14660  0.07390  1.0000
  H   H8        1.0  0.76720  0.85340  0.57390  1.0000
  C   C9        1.0  0.93230  0.89770  0.87090  1.0000
  C   C10       1.0  0.93230  0.10230  0.37090  1.0000
  C   C11       1.0  0.43230  0.39770  0.87090  1.0000
  C   C12       1.0  0.43230  0.60230  0.37090  1.0000
  H   H9        1.0  0.98250  0.95140  0.87500  1.0000
  H   H10       1.0  0.98250  0.04860  0.37500  1.0000
  H   H11       1.0  0.48250  0.45140  0.87500  1.0000
  H   H12       1.0  0.48250  0.54860  0.37500  1.0000
  C   C13       1.0  0.49780  0.87990  0.11900  1.0000
  C   C14       1.0  0.49780  0.12010  0.61900  1.0000
  C   C15       1.0  0.99780  0.37990  0.11900  1.0000
  C   C16       1.0  0.99780  0.62010  0.61900  1.0000
  H   H13       1.0  0.42530  0.90200  0.16300  1.0000
  H   H14       1.0  0.42530  0.09800  0.66300  1.0000
  H   H15       1.0  0.92530  0.40200  0.16300  1.0000
  H   H16       1.0  0.92530  0.59800  0.66300  1.0000
  C   C17       1.0  0.99420  0.94210  0.11480  1.0000
  C   C18       1.0  0.99420  0.05790  0.61480  1.0000
  C   C19       1.0  0.49420  0.44210  0.11480  1.0000
  C   C20       1.0  0.49420  0.55790  0.61480  1.0000
  H   H17       1.0  0.92980  0.89470  0.10140  1.0000
  H   H18       1.0  0.92980  0.10530  0.60140  1.0000
  H   H19       1.0  0.42980  0.39470  0.10140  1.0000
  H   H20       1.0  0.42980  0.60530  0.60140  1.0000
  C   C21       1.0  0.43990  0.96470  0.87880  1.0000
  C   C22       1.0  0.43990  0.03530  0.37880  1.0000
  C   C23       1.0  0.93990  0.46470  0.87880  1.0000
  C   C24       1.0  0.93990  0.53530  0.37880  1.0000
  H   H21       1.0  0.50360  0.95800  0.93350  1.0000
  H   H22       1.0  0.50360  0.04200  0.43350  1.0000
  H   H23       1.0  0.00360  0.45800  0.93350  1.0000
  H   H24       1.0  0.00360  0.54200  0.43350  1.0000
