data_image0
_chemical_formula_structural       Zn4S4C8H4C4H4C4H4C4H4C8O8S4C8H4C4H4C4H4C4H4C8O8Na4O4H8
_chemical_formula_sum              "Zn4 S8 C56 H40 O20 Na4"
_cell_length_a       7.8669
_cell_length_b       14.358
_cell_length_c       21.503
_cell_angle_alpha    90
_cell_angle_beta     90
_cell_angle_gamma    90

_space_group_name_H-M_alt    "P 1"
_space_group_IT_number       1

loop_
  _space_group_symop_operation_xyz
  'x, y, z'

loop_
  _atom_site_type_symbol
  _atom_site_label
  _atom_site_symmetry_multiplicity
  _atom_site_fract_x
  _atom_site_fract_y
  _atom_site_fract_z
  _atom_site_occupancy
  Zn  Zn1       1.0  0.28508  0.08577  0.88812  1.0000
  Zn  Zn2       1.0  0.21492  0.91423  0.38812  1.0000
  Zn  Zn3       1.0  0.71492  0.58577  0.61188  1.0000
  Zn  Zn4       1.0  0.78508  0.41423  0.11188  1.0000
  S   S1        1.0  0.27446  0.09116  0.78329  1.0000
  S   S2        1.0  0.22554  0.90884  0.28329  1.0000
  S   S3        1.0  0.72554  0.59116  0.71671  1.0000
  S   S4        1.0  0.77446  0.40884  0.21671  1.0000
  C   C1        1.0  0.41190  0.18290  0.76130  1.0000
  C   C2        1.0  0.08810  0.81710  0.26130  1.0000
  C   C3        1.0  0.58810  0.68290  0.73870  1.0000
  C   C4        1.0  0.91190  0.31710  0.23870  1.0000
  C   C5        1.0  0.40490  0.20330  0.69700  1.0000
  C   C6        1.0  0.09510  0.79670  0.19700  1.0000
  C   C7        1.0  0.59510  0.70330  0.80300  1.0000
  C   C8        1.0  0.90490  0.29670  0.30300  1.0000
  H   H1        1.0  0.32590  0.17030  0.67190  1.0000
  H   H2        1.0  0.17410  0.82970  0.17190  1.0000
  H   H3        1.0  0.67410  0.67030  0.82810  1.0000
  H   H4        1.0  0.82590  0.32970  0.32810  1.0000
  C   C9        1.0  0.50730  0.26890  0.66930  1.0000
  C   C10       1.0  0.99270  0.73110  0.16930  1.0000
  C   C11       1.0  0.49270  0.76890  0.83070  1.0000
  C   C12       1.0  0.00730  0.23110  0.33070  1.0000
  H   H5        1.0  0.50120  0.27900  0.62570  1.0000
  H   H6        1.0  0.99880  0.72100  0.12570  1.0000
  H   H7        1.0  0.49880  0.77900  0.87430  1.0000
  H   H8        1.0  0.00120  0.22100  0.37430  1.0000
  C   C13       1.0  0.61930  0.32020  0.70530  1.0000
  C   C14       1.0  0.88070  0.67980  0.20530  1.0000
  C   C15       1.0  0.38070  0.82020  0.79470  1.0000
  C   C16       1.0  0.11930  0.17980  0.29470  1.0000
  H   H9        1.0  0.69090  0.36580  0.68690  1.0000
  H   H10       1.0  0.80910  0.63420  0.18690  1.0000
  H   H11       1.0  0.30910  0.86580  0.81310  1.0000
  H   H12       1.0  0.19090  0.13420  0.31310  1.0000
  C   C17       1.0  0.62490  0.30380  0.76840  1.0000
  C   C18       1.0  0.87510  0.69620  0.26840  1.0000
  C   C19       1.0  0.37510  0.80380  0.73160  1.0000
  C   C20       1.0  0.12490  0.19620  0.23160  1.0000
  H   H13       1.0  0.69950  0.34030  0.79320  1.0000
  H   H14       1.0  0.80050  0.65970  0.29320  1.0000
  H   H15       1.0  0.30050  0.84030  0.70680  1.0000
  H   H16       1.0  0.19950  0.15970  0.20680  1.0000
  C   C21       1.0  0.52550  0.23550  0.79790  1.0000
  C   C22       1.0  0.97450  0.76450  0.29790  1.0000
  C   C23       1.0  0.47450  0.73550  0.70210  1.0000
  C   C24       1.0  0.02550  0.26450  0.20210  1.0000
  C   C25       1.0  0.55560  0.22850  0.86740  1.0000
  C   C26       1.0  0.94440  0.77150  0.36740  1.0000
  C   C27       1.0  0.44440  0.72850  0.63260  1.0000
  C   C28       1.0  0.05560  0.27150  0.13260  1.0000
  O   O1        1.0  0.47720  0.16960  0.90119  1.0000
  O   O2        1.0  0.02280  0.83040  0.40119  1.0000
  O   O3        1.0  0.52280  0.66960  0.59881  1.0000
  O   O4        1.0  0.97720  0.33040  0.09881  1.0000
  O   O5        1.0  0.65920  0.28320  0.89156  1.0000
  O   O6        1.0  0.84080  0.71680  0.39156  1.0000
  O   O7        1.0  0.34080  0.78320  0.60844  1.0000
  O   O8        1.0  0.15920  0.21680  0.10844  1.0000
  S   S5        1.0  0.29905  0.95641  0.94924  1.0000
  S   S6        1.0  0.20095  0.04359  0.44924  1.0000
  S   S7        1.0  0.70095  0.45641  0.55076  1.0000
  S   S8        1.0  0.79905  0.54359  0.05076  1.0000
  C   C29       1.0  0.07670  0.93440  0.95580  1.0000
  C   C30       1.0  0.42330  0.06560  0.45580  1.0000
  C   C31       1.0  0.92330  0.43440  0.54420  1.0000
  C   C32       1.0  0.57670  0.56560  0.04420  1.0000
  C   C33       1.0  0.03150  0.84010  0.95630  1.0000
  C   C34       1.0  0.46850  0.15990  0.45630  1.0000
  C   C35       1.0  0.96850  0.34010  0.54370  1.0000
  C   C36       1.0  0.53150  0.65990  0.04370  1.0000
  H   H17       1.0  0.11820  0.79450  0.95180  1.0000
  H   H18       1.0  0.38180  0.20550  0.45180  1.0000
  H   H19       1.0  0.88180  0.29450  0.54820  1.0000
  H   H20       1.0  0.61820  0.70550  0.04820  1.0000
  C   C37       1.0  0.86500  0.81120  0.96310  1.0000
  C   C38       1.0  0.63500  0.18880  0.46310  1.0000
  C   C39       1.0  0.13500  0.31120  0.53690  1.0000
  C   C40       1.0  0.36500  0.68880  0.03690  1.0000
  H   H21       1.0  0.83800  0.74670  0.96320  1.0000
  H   H22       1.0  0.66200  0.25330  0.46320  1.0000
  H   H23       1.0  0.16200  0.24670  0.53680  1.0000
  H   H24       1.0  0.33800  0.75330  0.03680  1.0000
  C   C41       1.0  0.73780  0.87720  0.96990  1.0000
  C   C42       1.0  0.76220  0.12280  0.46990  1.0000
  C   C43       1.0  0.26220  0.37720  0.53010  1.0000
  C   C44       1.0  0.23780  0.62280  0.03010  1.0000
  H   H25       1.0  0.62270  0.85830  0.97440  1.0000
  H   H26       1.0  0.87730  0.14170  0.47440  1.0000
  H   H27       1.0  0.37730  0.35830  0.52560  1.0000
  H   H28       1.0  0.12270  0.64170  0.02560  1.0000
  C   C45       1.0  0.77930  0.97070  0.96991  1.0000
  C   C46       1.0  0.72070  0.02930  0.46991  1.0000
  C   C47       1.0  0.22070  0.47070  0.53009  1.0000
  C   C48       1.0  0.27930  0.52930  0.03009  1.0000
  H   H29       1.0  0.69140  0.01540  0.97487  1.0000
  H   H30       1.0  0.80860  0.98460  0.47487  1.0000
  H   H31       1.0  0.30860  0.51540  0.52513  1.0000
  H   H32       1.0  0.19140  0.48460  0.02513  1.0000
  C   C49       1.0  0.94710  0.00150  0.96290  1.0000
  C   C50       1.0  0.55290  0.99850  0.46290  1.0000
  C   C51       1.0  0.05290  0.50150  0.53710  1.0000
  C   C52       1.0  0.44710  0.49850  0.03710  1.0000
  C   C53       1.0  0.97270  0.10540  0.96520  1.0000
  C   C54       1.0  0.52730  0.89460  0.46520  1.0000
  C   C55       1.0  0.02730  0.60540  0.53480  1.0000
  C   C56       1.0  0.47270  0.39460  0.03480  1.0000
  O   O9        1.0  0.09680  0.14420  0.93635  1.0000
  O   O10       1.0  0.40320  0.85580  0.43635  1.0000
  O   O11       1.0  0.90320  0.64420  0.56365  1.0000
  O   O12       1.0  0.59680  0.35580  0.06365  1.0000
  O   O13       1.0  0.87050  0.15220  0.99699  1.0000
  O   O14       1.0  0.62950  0.84780  0.49699  1.0000
  O   O15       1.0  0.12950  0.65220  0.50301  1.0000
  O   O16       1.0  0.37050  0.34780  0.00301  1.0000
  Na  Na1       1.0  0.60070  0.22049  0.99778  1.0000
  Na  Na2       1.0  0.89930  0.77951  0.49778  1.0000
  Na  Na3       1.0  0.39930  0.72049  0.50222  1.0000
  Na  Na4       1.0  0.10070  0.27951  0.00222  1.0000
  O   O17       1.0  0.42190  0.11740  0.05174  1.0000
  O   O18       1.0  0.07810  0.88260  0.55174  1.0000
  O   O19       1.0  0.57810  0.61740  0.44826  1.0000
  O   O20       1.0  0.92190  0.38260  0.94826  1.0000
  H   H33       1.0  0.34690  0.14540  0.06440  1.0000
  H   H34       1.0  0.15310  0.85460  0.56440  1.0000
  H   H35       1.0  0.65310  0.64540  0.43560  1.0000
  H   H36       1.0  0.84690  0.35460  0.93560  1.0000
  H   H37       1.0  0.37970  0.07730  0.03350  1.0000
  H   H38       1.0  0.12030  0.92270  0.53350  1.0000
  H   H39       1.0  0.62030  0.57730  0.46650  1.0000
  H   H40       1.0  0.87970  0.42270  0.96650  1.0000
