data_image0
_chemical_formula_structural       Zn12O48N24C24H8C24H8C24H8C24H24C8H24
_chemical_formula_sum              "Zn12 O48 N24 C104 H72"
_cell_length_a       19.322
_cell_length_b       18.552
_cell_length_c       15.606
_cell_angle_alpha    90
_cell_angle_beta     90.411
_cell_angle_gamma    90

_space_group_name_H-M_alt    "P 1"
_space_group_IT_number       1

loop_
  _space_group_symop_operation_xyz
  'x, y, z'

loop_
  _atom_site_type_symbol
  _atom_site_label
  _atom_site_symmetry_multiplicity
  _atom_site_fract_x
  _atom_site_fract_y
  _atom_site_fract_z
  _atom_site_occupancy
  Zn  Zn1       1.0  0.50000  0.77399  0.25000  1.0000
  Zn  Zn2       1.0  0.00000  0.27399  0.25000  1.0000
  Zn  Zn3       1.0  0.50000  0.22601  0.75000  1.0000
  Zn  Zn4       1.0  0.00000  0.72601  0.75000  1.0000
  Zn  Zn5       1.0  0.40681  0.01845  0.47939  1.0000
  Zn  Zn6       1.0  0.59319  0.01845  0.02061  1.0000
  Zn  Zn7       1.0  0.90681  0.51845  0.47939  1.0000
  Zn  Zn8       1.0  0.09319  0.51845  0.02061  1.0000
  Zn  Zn9       1.0  0.59319  0.98155  0.52061  1.0000
  Zn  Zn10      1.0  0.40681  0.98155  0.97939  1.0000
  Zn  Zn11      1.0  0.09319  0.48155  0.52061  1.0000
  Zn  Zn12      1.0  0.90681  0.48155  0.97939  1.0000
  O   O1        1.0  0.36086  0.06533  0.38454  1.0000
  O   O2        1.0  0.63914  0.06533  0.11546  1.0000
  O   O3        1.0  0.86086  0.56533  0.38454  1.0000
  O   O4        1.0  0.13914  0.56533  0.11546  1.0000
  O   O5        1.0  0.63914  0.93467  0.61546  1.0000
  O   O6        1.0  0.36086  0.93467  0.88454  1.0000
  O   O7        1.0  0.13914  0.43467  0.61546  1.0000
  O   O8        1.0  0.86086  0.43467  0.88454  1.0000
  O   O9        1.0  0.26744  0.10667  0.44968  1.0000
  O   O10       1.0  0.73256  0.10667  0.05032  1.0000
  O   O11       1.0  0.76744  0.60667  0.44968  1.0000
  O   O12       1.0  0.23256  0.60667  0.05032  1.0000
  O   O13       1.0  0.73256  0.89333  0.55032  1.0000
  O   O14       1.0  0.26744  0.89333  0.94968  1.0000
  O   O15       1.0  0.23256  0.39333  0.55032  1.0000
  O   O16       1.0  0.76744  0.39333  0.94968  1.0000
  O   O17       1.0  0.35777  0.01535  0.07980  1.0000
  O   O18       1.0  0.64223  0.01535  0.42020  1.0000
  O   O19       1.0  0.85777  0.51535  0.07980  1.0000
  O   O20       1.0  0.14223  0.51535  0.42020  1.0000
  O   O21       1.0  0.64223  0.98465  0.92020  1.0000
  O   O22       1.0  0.35777  0.98465  0.57980  1.0000
  O   O23       1.0  0.14223  0.48465  0.92020  1.0000
  O   O24       1.0  0.85777  0.48465  0.57980  1.0000
  O   O25       1.0  0.29124  0.07839  0.99392  1.0000
  O   O26       1.0  0.70876  0.07839  0.50608  1.0000
  O   O27       1.0  0.79124  0.57839  0.99392  1.0000
  O   O28       1.0  0.20876  0.57839  0.50608  1.0000
  O   O29       1.0  0.70876  0.92161  0.00608  1.0000
  O   O30       1.0  0.29124  0.92161  0.49392  1.0000
  O   O31       1.0  0.20876  0.42161  0.00608  1.0000
  O   O32       1.0  0.79124  0.42161  0.49392  1.0000
  O   O33       1.0  0.07884  0.18970  0.12857  1.0000
  O   O34       1.0  0.92116  0.18970  0.37143  1.0000
  O   O35       1.0  0.57884  0.68970  0.12857  1.0000
  O   O36       1.0  0.42116  0.68970  0.37143  1.0000
  O   O37       1.0  0.92116  0.81030  0.87143  1.0000
  O   O38       1.0  0.07884  0.81030  0.62857  1.0000
  O   O39       1.0  0.42116  0.31030  0.87143  1.0000
  O   O40       1.0  0.57884  0.31030  0.62857  1.0000
  O   O41       1.0  0.08424  0.21755  0.26454  1.0000
  O   O42       1.0  0.91576  0.21755  0.23546  1.0000
  O   O43       1.0  0.58424  0.71755  0.26454  1.0000
  O   O44       1.0  0.41576  0.71755  0.23546  1.0000
  O   O45       1.0  0.91576  0.78245  0.73546  1.0000
  O   O46       1.0  0.08424  0.78245  0.76454  1.0000
  O   O47       1.0  0.41576  0.28245  0.73546  1.0000
  O   O48       1.0  0.58424  0.28245  0.76454  1.0000
  N   N1        1.0  0.46284  0.93939  0.42468  1.0000
  N   N2        1.0  0.53716  0.93939  0.07532  1.0000
  N   N3        1.0  0.96284  0.43939  0.42468  1.0000
  N   N4        1.0  0.03716  0.43939  0.07532  1.0000
  N   N5        1.0  0.53716  0.06061  0.57532  1.0000
  N   N6        1.0  0.46284  0.06061  0.92468  1.0000
  N   N7        1.0  0.03716  0.56061  0.57532  1.0000
  N   N8        1.0  0.96284  0.56061  0.92468  1.0000
  N   N9        1.0  0.52620  0.91650  0.45711  1.0000
  N   N10       1.0  0.47380  0.91650  0.04289  1.0000
  N   N11       1.0  0.02620  0.41650  0.45711  1.0000
  N   N12       1.0  0.97380  0.41650  0.04289  1.0000
  N   N13       1.0  0.47380  0.08350  0.54289  1.0000
  N   N14       1.0  0.52620  0.08350  0.95711  1.0000
  N   N15       1.0  0.97380  0.58350  0.54289  1.0000
  N   N16       1.0  0.02620  0.58350  0.95711  1.0000
  N   N17       1.0  0.49593  0.84440  0.34954  1.0000
  N   N18       1.0  0.50407  0.84440  0.15046  1.0000
  N   N19       1.0  0.99593  0.34440  0.34954  1.0000
  N   N20       1.0  0.00407  0.34440  0.15046  1.0000
  N   N21       1.0  0.50407  0.15560  0.65046  1.0000
  N   N22       1.0  0.49593  0.15560  0.84954  1.0000
  N   N23       1.0  0.00407  0.65560  0.65046  1.0000
  N   N24       1.0  0.99593  0.65560  0.84954  1.0000
  C   C1        1.0  0.30001  0.09166  0.38490  1.0000
  C   C2        1.0  0.69999  0.09166  0.11510  1.0000
  C   C3        1.0  0.80001  0.59166  0.38490  1.0000
  C   C4        1.0  0.19999  0.59166  0.11510  1.0000
  C   C5        1.0  0.69999  0.90834  0.61510  1.0000
  C   C6        1.0  0.30001  0.90834  0.88490  1.0000
  C   C7        1.0  0.19999  0.40834  0.61510  1.0000
  C   C8        1.0  0.80001  0.40834  0.88490  1.0000
  C   C9        1.0  0.26801  0.10374  0.29740  1.0000
  C   C10       1.0  0.73199  0.10374  0.20260  1.0000
  C   C11       1.0  0.76801  0.60374  0.29740  1.0000
  C   C12       1.0  0.23199  0.60374  0.20260  1.0000
  C   C13       1.0  0.73199  0.89626  0.70260  1.0000
  C   C14       1.0  0.26801  0.89626  0.79740  1.0000
  C   C15       1.0  0.23199  0.39626  0.70260  1.0000
  C   C16       1.0  0.76801  0.39626  0.79740  1.0000
  C   C17       1.0  0.30065  0.07763  0.22460  1.0000
  C   C18       1.0  0.69935  0.07763  0.27540  1.0000
  C   C19       1.0  0.80065  0.57763  0.22460  1.0000
  C   C20       1.0  0.19935  0.57763  0.27540  1.0000
  C   C21       1.0  0.69935  0.92237  0.77540  1.0000
  C   C22       1.0  0.30065  0.92237  0.72460  1.0000
  C   C23       1.0  0.19935  0.42237  0.77540  1.0000
  C   C24       1.0  0.80065  0.42237  0.72460  1.0000
  H   H1        1.0  0.34340  0.05273  0.23036  1.0000
  H   H2        1.0  0.65660  0.05273  0.26964  1.0000
  H   H3        1.0  0.84340  0.55273  0.23036  1.0000
  H   H4        1.0  0.15660  0.55273  0.26964  1.0000
  H   H5        1.0  0.65660  0.94727  0.76964  1.0000
  H   H6        1.0  0.34340  0.94727  0.73036  1.0000
  H   H7        1.0  0.15660  0.44727  0.76964  1.0000
  H   H8        1.0  0.84340  0.44727  0.73036  1.0000
  C   C25       1.0  0.27189  0.08730  0.14400  1.0000
  C   C26       1.0  0.72811  0.08730  0.35600  1.0000
  C   C27       1.0  0.77189  0.58730  0.14400  1.0000
  C   C28       1.0  0.22811  0.58730  0.35600  1.0000
  C   C29       1.0  0.72811  0.91270  0.85600  1.0000
  C   C30       1.0  0.27189  0.91270  0.64400  1.0000
  C   C31       1.0  0.22811  0.41270  0.85600  1.0000
  C   C32       1.0  0.77189  0.41270  0.64400  1.0000
  C   C33       1.0  0.30901  0.05934  0.06540  1.0000
  C   C34       1.0  0.69099  0.05934  0.43460  1.0000
  C   C35       1.0  0.80901  0.55934  0.06540  1.0000
  C   C36       1.0  0.19099  0.55934  0.43460  1.0000
  C   C37       1.0  0.69099  0.94066  0.93460  1.0000
  C   C38       1.0  0.30901  0.94066  0.56540  1.0000
  C   C39       1.0  0.19099  0.44066  0.93460  1.0000
  C   C40       1.0  0.80901  0.44066  0.56540  1.0000
  C   C41       1.0  0.20886  0.12330  0.13600  1.0000
  C   C42       1.0  0.79114  0.12330  0.36400  1.0000
  C   C43       1.0  0.70886  0.62330  0.13600  1.0000
  C   C44       1.0  0.29114  0.62330  0.36400  1.0000
  C   C45       1.0  0.79114  0.87670  0.86400  1.0000
  C   C46       1.0  0.20886  0.87670  0.63600  1.0000
  C   C47       1.0  0.29114  0.37670  0.86400  1.0000
  C   C48       1.0  0.70886  0.37670  0.63600  1.0000
  H   H9        1.0  0.18853  0.12989  0.08096  1.0000
  H   H10       1.0  0.81147  0.12989  0.41904  1.0000
  H   H11       1.0  0.68853  0.62989  0.08096  1.0000
  H   H12       1.0  0.31147  0.62989  0.41904  1.0000
  H   H13       1.0  0.81147  0.87011  0.91904  1.0000
  H   H14       1.0  0.18853  0.87011  0.58096  1.0000
  H   H15       1.0  0.31147  0.37011  0.91904  1.0000
  H   H16       1.0  0.68853  0.37011  0.58096  1.0000
  C   C49       1.0  0.17581  0.14946  0.20790  1.0000
  C   C50       1.0  0.82419  0.14946  0.29210  1.0000
  C   C51       1.0  0.67581  0.64946  0.20790  1.0000
  C   C52       1.0  0.32419  0.64946  0.29210  1.0000
  C   C53       1.0  0.82419  0.85054  0.79210  1.0000
  C   C54       1.0  0.17581  0.85054  0.70790  1.0000
  C   C55       1.0  0.32419  0.35054  0.79210  1.0000
  C   C56       1.0  0.67581  0.35054  0.70790  1.0000
  C   C57       1.0  0.10840  0.18796  0.19810  1.0000
  C   C58       1.0  0.89160  0.18796  0.30190  1.0000
  C   C59       1.0  0.60840  0.68796  0.19810  1.0000
  C   C60       1.0  0.39160  0.68796  0.30190  1.0000
  C   C61       1.0  0.89160  0.81204  0.80190  1.0000
  C   C62       1.0  0.10840  0.81204  0.69810  1.0000
  C   C63       1.0  0.39160  0.31204  0.80190  1.0000
  C   C64       1.0  0.60840  0.31204  0.69810  1.0000
  C   C65       1.0  0.20567  0.13958  0.28880  1.0000
  C   C66       1.0  0.79433  0.13958  0.21120  1.0000
  C   C67       1.0  0.70567  0.63958  0.28880  1.0000
  C   C68       1.0  0.29433  0.63958  0.21120  1.0000
  C   C69       1.0  0.79433  0.86042  0.71120  1.0000
  C   C70       1.0  0.20567  0.86042  0.78880  1.0000
  C   C71       1.0  0.29433  0.36042  0.71120  1.0000
  C   C72       1.0  0.70567  0.36042  0.78880  1.0000
  H   H17       1.0  0.18300  0.15761  0.33816  1.0000
  H   H18       1.0  0.81700  0.15761  0.16184  1.0000
  H   H19       1.0  0.68300  0.65761  0.33816  1.0000
  H   H20       1.0  0.31700  0.65761  0.16184  1.0000
  H   H21       1.0  0.81700  0.84239  0.66184  1.0000
  H   H22       1.0  0.18300  0.84239  0.83816  1.0000
  H   H23       1.0  0.31700  0.34239  0.66184  1.0000
  H   H24       1.0  0.68300  0.34239  0.83816  1.0000
  C   C73       1.0  0.44703  0.89513  0.36148  1.0000
  C   C74       1.0  0.55297  0.89513  0.13852  1.0000
  C   C75       1.0  0.94703  0.39513  0.36148  1.0000
  C   C76       1.0  0.05297  0.39513  0.13852  1.0000
  C   C77       1.0  0.55297  0.10487  0.63852  1.0000
  C   C78       1.0  0.44703  0.10487  0.86148  1.0000
  C   C79       1.0  0.05297  0.60487  0.63852  1.0000
  C   C80       1.0  0.94703  0.60487  0.86148  1.0000
  C   C81       1.0  0.54440  0.86055  0.41100  1.0000
  C   C82       1.0  0.45560  0.86055  0.08900  1.0000
  C   C83       1.0  0.04440  0.36055  0.41100  1.0000
  C   C84       1.0  0.95560  0.36055  0.08900  1.0000
  C   C85       1.0  0.45560  0.13945  0.58900  1.0000
  C   C86       1.0  0.54440  0.13945  0.91100  1.0000
  C   C87       1.0  0.95560  0.63945  0.58900  1.0000
  C   C88       1.0  0.04440  0.63945  0.91100  1.0000
  C   C89       1.0  0.38195  0.89924  0.30930  1.0000
  C   C90       1.0  0.61805  0.89924  0.19070  1.0000
  C   C91       1.0  0.88195  0.39924  0.30930  1.0000
  C   C92       1.0  0.11805  0.39924  0.19070  1.0000
  C   C93       1.0  0.61805  0.10076  0.69070  1.0000
  C   C94       1.0  0.38195  0.10076  0.80930  1.0000
  C   C95       1.0  0.11805  0.60076  0.69070  1.0000
  C   C96       1.0  0.88195  0.60076  0.80930  1.0000
  H   H25       1.0  0.34754  0.92809  0.33982  1.0000
  H   H26       1.0  0.65246  0.92809  0.16018  1.0000
  H   H27       1.0  0.84754  0.42809  0.33982  1.0000
  H   H28       1.0  0.15246  0.42809  0.16018  1.0000
  H   H29       1.0  0.65246  0.07191  0.66018  1.0000
  H   H30       1.0  0.34754  0.07191  0.83982  1.0000
  H   H31       1.0  0.15246  0.57191  0.66018  1.0000
  H   H32       1.0  0.84754  0.57191  0.83982  1.0000
  H   H33       1.0  0.36379  0.85053  0.29986  1.0000
  H   H34       1.0  0.63621  0.85053  0.20014  1.0000
  H   H35       1.0  0.86379  0.35053  0.29986  1.0000
  H   H36       1.0  0.13621  0.35053  0.20014  1.0000
  H   H37       1.0  0.63621  0.14947  0.70014  1.0000
  H   H38       1.0  0.36379  0.14947  0.79986  1.0000
  H   H39       1.0  0.13621  0.64947  0.70014  1.0000
  H   H40       1.0  0.86379  0.64947  0.79986  1.0000
  H   H41       1.0  0.39185  0.92178  0.25390  1.0000
  H   H42       1.0  0.60815  0.92178  0.24610  1.0000
  H   H43       1.0  0.89185  0.42178  0.25390  1.0000
  H   H44       1.0  0.10815  0.42178  0.24610  1.0000
  H   H45       1.0  0.60815  0.07822  0.74610  1.0000
  H   H46       1.0  0.39185  0.07822  0.75390  1.0000
  H   H47       1.0  0.10815  0.57822  0.74610  1.0000
  H   H48       1.0  0.89185  0.57822  0.75390  1.0000
  C   C97       1.0  0.60894  0.81900  0.42570  1.0000
  C   C98       1.0  0.39106  0.81900  0.07430  1.0000
  C   C99       1.0  0.10894  0.31900  0.42570  1.0000
  C   C100      1.0  0.89106  0.31900  0.07430  1.0000
  C   C101      1.0  0.39106  0.18100  0.57430  1.0000
  C   C102      1.0  0.60894  0.18100  0.92570  1.0000
  C   C103      1.0  0.89106  0.68100  0.57430  1.0000
  C   C104      1.0  0.10894  0.68100  0.92570  1.0000
  H   H49       1.0  0.63698  0.84302  0.46979  1.0000
  H   H50       1.0  0.36302  0.84302  0.03021  1.0000
  H   H51       1.0  0.13698  0.34302  0.46979  1.0000
  H   H52       1.0  0.86302  0.34302  0.03021  1.0000
  H   H53       1.0  0.36302  0.15698  0.53021  1.0000
  H   H54       1.0  0.63698  0.15698  0.96979  1.0000
  H   H55       1.0  0.86302  0.65698  0.53021  1.0000
  H   H56       1.0  0.13698  0.65698  0.96979  1.0000
  H   H57       1.0  0.63517  0.81647  0.37224  1.0000
  H   H58       1.0  0.36483  0.81647  0.12776  1.0000
  H   H59       1.0  0.13517  0.31647  0.37224  1.0000
  H   H60       1.0  0.86483  0.31647  0.12776  1.0000
  H   H61       1.0  0.36483  0.18353  0.62776  1.0000
  H   H62       1.0  0.63517  0.18353  0.87224  1.0000
  H   H63       1.0  0.86483  0.68353  0.62776  1.0000
  H   H64       1.0  0.13517  0.68353  0.87224  1.0000
  H   H65       1.0  0.59734  0.77020  0.44468  1.0000
  H   H66       1.0  0.40266  0.77020  0.05532  1.0000
  H   H67       1.0  0.09734  0.27020  0.44468  1.0000
  H   H68       1.0  0.90266  0.27020  0.05532  1.0000
  H   H69       1.0  0.40266  0.22980  0.55532  1.0000
  H   H70       1.0  0.59734  0.22980  0.94468  1.0000
  H   H71       1.0  0.90266  0.72980  0.55532  1.0000
  H   H72       1.0  0.09734  0.72980  0.94468  1.0000
