data_image0
_chemical_formula_structural       Zn12C24H8C16H8C16H8C24H24C16H24N56C8O32
_chemical_formula_sum              "Zn12 C104 H72 N56 O32"
_cell_length_a       15.629
_cell_length_b       22.225
_cell_length_c       17.895
_cell_angle_alpha    90
_cell_angle_beta     90
_cell_angle_gamma    90

_space_group_name_H-M_alt    "P 1"
_space_group_IT_number       1

loop_
  _space_group_symop_operation_xyz
  'x, y, z'

loop_
  _atom_site_type_symbol
  _atom_site_label
  _atom_site_symmetry_multiplicity
  _atom_site_fract_x
  _atom_site_fract_y
  _atom_site_fract_z
  _atom_site_occupancy
  Zn  Zn1       1.0  0.50000  0.16268  0.37820  1.0000
  Zn  Zn2       1.0  0.50000  0.83732  0.87820  1.0000
  Zn  Zn3       1.0  0.00000  0.66268  0.37820  1.0000
  Zn  Zn4       1.0  0.00000  0.33732  0.87820  1.0000
  Zn  Zn5       1.0  0.38083  0.00027  0.12900  1.0000
  Zn  Zn6       1.0  0.61917  0.99973  0.62900  1.0000
  Zn  Zn7       1.0  0.38083  0.99973  0.62900  1.0000
  Zn  Zn8       1.0  0.61917  0.00027  0.12900  1.0000
  Zn  Zn9       1.0  0.88083  0.50027  0.12900  1.0000
  Zn  Zn10      1.0  0.11917  0.49973  0.62900  1.0000
  Zn  Zn11      1.0  0.88083  0.49973  0.62900  1.0000
  Zn  Zn12      1.0  0.11917  0.50027  0.12900  1.0000
  C   C1        1.0  0.27600  0.91470  0.20920  1.0000
  C   C2        1.0  0.72400  0.08530  0.70920  1.0000
  C   C3        1.0  0.27600  0.08530  0.70920  1.0000
  C   C4        1.0  0.72400  0.91470  0.20920  1.0000
  C   C5        1.0  0.77600  0.41470  0.20920  1.0000
  C   C6        1.0  0.22400  0.58530  0.70920  1.0000
  C   C7        1.0  0.77600  0.58530  0.70920  1.0000
  C   C8        1.0  0.22400  0.41470  0.20920  1.0000
  C   C9        1.0  0.24310  0.88580  0.27740  1.0000
  C   C10       1.0  0.75690  0.11420  0.77740  1.0000
  C   C11       1.0  0.24310  0.11420  0.77740  1.0000
  C   C12       1.0  0.75690  0.88580  0.27740  1.0000
  C   C13       1.0  0.74310  0.38580  0.27740  1.0000
  C   C14       1.0  0.25690  0.61420  0.77740  1.0000
  C   C15       1.0  0.74310  0.61420  0.77740  1.0000
  C   C16       1.0  0.25690  0.38580  0.27740  1.0000
  C   C17       1.0  0.26250  0.90540  0.34880  1.0000
  C   C18       1.0  0.73750  0.09460  0.84880  1.0000
  C   C19       1.0  0.26250  0.09460  0.84880  1.0000
  C   C20       1.0  0.73750  0.90540  0.34880  1.0000
  C   C21       1.0  0.76250  0.40540  0.34880  1.0000
  C   C22       1.0  0.23750  0.59460  0.84880  1.0000
  C   C23       1.0  0.76250  0.59460  0.84880  1.0000
  C   C24       1.0  0.23750  0.40540  0.34880  1.0000
  H   H1        1.0  0.29670  0.93922  0.35552  1.0000
  H   H2        1.0  0.70330  0.06078  0.85552  1.0000
  H   H3        1.0  0.29670  0.06078  0.85552  1.0000
  H   H4        1.0  0.70330  0.93922  0.35552  1.0000
  H   H5        1.0  0.79670  0.43922  0.35552  1.0000
  H   H6        1.0  0.20330  0.56078  0.85552  1.0000
  H   H7        1.0  0.79670  0.56078  0.85552  1.0000
  H   H8        1.0  0.20330  0.43922  0.35552  1.0000
  C   C25       1.0  0.23100  0.87470  0.41020  1.0000
  C   C26       1.0  0.76900  0.12530  0.91020  1.0000
  C   C27       1.0  0.23100  0.12530  0.91020  1.0000
  C   C28       1.0  0.76900  0.87470  0.41020  1.0000
  C   C29       1.0  0.73100  0.37470  0.41020  1.0000
  C   C30       1.0  0.26900  0.62530  0.91020  1.0000
  C   C31       1.0  0.73100  0.62530  0.91020  1.0000
  C   C32       1.0  0.26900  0.37470  0.41020  1.0000
  C   C33       1.0  0.18010  0.82450  0.40030  1.0000
  C   C34       1.0  0.81990  0.17550  0.90030  1.0000
  C   C35       1.0  0.18010  0.17550  0.90030  1.0000
  C   C36       1.0  0.81990  0.82450  0.40030  1.0000
  C   C37       1.0  0.68010  0.32450  0.40030  1.0000
  C   C38       1.0  0.31990  0.67550  0.90030  1.0000
  C   C39       1.0  0.68010  0.67550  0.90030  1.0000
  C   C40       1.0  0.31990  0.32450  0.40030  1.0000
  H   H9        1.0  0.15898  0.80384  0.44154  1.0000
  H   H10       1.0  0.84102  0.19616  0.94154  1.0000
  H   H11       1.0  0.15898  0.19616  0.94154  1.0000
  H   H12       1.0  0.84102  0.80384  0.44154  1.0000
  H   H13       1.0  0.65898  0.30384  0.44154  1.0000
  H   H14       1.0  0.34102  0.69616  0.94154  1.0000
  H   H15       1.0  0.65898  0.69616  0.94154  1.0000
  H   H16       1.0  0.34102  0.30384  0.44154  1.0000
  C   C41       1.0  0.16070  0.80480  0.32890  1.0000
  C   C42       1.0  0.83930  0.19520  0.82890  1.0000
  C   C43       1.0  0.16070  0.19520  0.82890  1.0000
  C   C44       1.0  0.83930  0.80480  0.32890  1.0000
  C   C45       1.0  0.66070  0.30480  0.32890  1.0000
  C   C46       1.0  0.33930  0.69520  0.82890  1.0000
  C   C47       1.0  0.66070  0.69520  0.82890  1.0000
  C   C48       1.0  0.33930  0.30480  0.32890  1.0000
  C   C49       1.0  0.19220  0.83550  0.26750  1.0000
  C   C50       1.0  0.80780  0.16450  0.76750  1.0000
  C   C51       1.0  0.19220  0.16450  0.76750  1.0000
  C   C52       1.0  0.80780  0.83550  0.26750  1.0000
  C   C53       1.0  0.69220  0.33550  0.26750  1.0000
  C   C54       1.0  0.30780  0.66450  0.76750  1.0000
  C   C55       1.0  0.69220  0.66450  0.76750  1.0000
  C   C56       1.0  0.30780  0.33550  0.26750  1.0000
  H   H17       1.0  0.17909  0.82230  0.21950  1.0000
  H   H18       1.0  0.82091  0.17770  0.71950  1.0000
  H   H19       1.0  0.17909  0.17770  0.71950  1.0000
  H   H20       1.0  0.82091  0.82230  0.21950  1.0000
  H   H21       1.0  0.67909  0.32230  0.21950  1.0000
  H   H22       1.0  0.32091  0.67770  0.71950  1.0000
  H   H23       1.0  0.67909  0.67770  0.71950  1.0000
  H   H24       1.0  0.32091  0.32230  0.21950  1.0000
  C   C57       1.0  0.10630  0.74670  0.32650  1.0000
  C   C58       1.0  0.89370  0.25330  0.82650  1.0000
  C   C59       1.0  0.10630  0.25330  0.82650  1.0000
  C   C60       1.0  0.89370  0.74670  0.32650  1.0000
  C   C61       1.0  0.60630  0.24670  0.32650  1.0000
  C   C62       1.0  0.39370  0.75330  0.82650  1.0000
  C   C63       1.0  0.60630  0.75330  0.82650  1.0000
  C   C64       1.0  0.39370  0.24670  0.32650  1.0000
  C   C65       1.0  0.43980  0.91290  0.00490  1.0000
  C   C66       1.0  0.56020  0.08710  0.50490  1.0000
  C   C67       1.0  0.43980  0.08710  0.50490  1.0000
  C   C68       1.0  0.56020  0.91290  0.00490  1.0000
  C   C69       1.0  0.93980  0.41290  0.00490  1.0000
  C   C70       1.0  0.06020  0.58710  0.50490  1.0000
  C   C71       1.0  0.93980  0.58710  0.50490  1.0000
  C   C72       1.0  0.06020  0.41290  0.00490  1.0000
  C   C73       1.0  0.33730  0.89910  0.98810  1.0000
  C   C74       1.0  0.66270  0.10090  0.48810  1.0000
  C   C75       1.0  0.33730  0.10090  0.48810  1.0000
  C   C76       1.0  0.66270  0.89910  0.98810  1.0000
  C   C77       1.0  0.83730  0.39910  0.98810  1.0000
  C   C78       1.0  0.16270  0.60090  0.48810  1.0000
  C   C79       1.0  0.83730  0.60090  0.48810  1.0000
  C   C80       1.0  0.16270  0.39910  0.98810  1.0000
  H   H25       1.0  0.30738  0.93639  0.98124  1.0000
  H   H26       1.0  0.69262  0.06361  0.48124  1.0000
  H   H27       1.0  0.30738  0.06361  0.48124  1.0000
  H   H28       1.0  0.69262  0.93639  0.98124  1.0000
  H   H29       1.0  0.80738  0.43639  0.98124  1.0000
  H   H30       1.0  0.19262  0.56361  0.48124  1.0000
  H   H31       1.0  0.80738  0.56361  0.48124  1.0000
  H   H32       1.0  0.19262  0.43639  0.98124  1.0000
  H   H33       1.0  0.31299  0.87773  0.02965  1.0000
  H   H34       1.0  0.68701  0.12227  0.52965  1.0000
  H   H35       1.0  0.31299  0.12227  0.52965  1.0000
  H   H36       1.0  0.68701  0.87773  0.02965  1.0000
  H   H37       1.0  0.81299  0.37773  0.02965  1.0000
  H   H38       1.0  0.18701  0.62227  0.52965  1.0000
  H   H39       1.0  0.81299  0.62227  0.52965  1.0000
  H   H40       1.0  0.18701  0.37773  0.02965  1.0000
  H   H41       1.0  0.33214  0.87507  0.94372  1.0000
  H   H42       1.0  0.66786  0.12493  0.44372  1.0000
  H   H43       1.0  0.33214  0.12493  0.44372  1.0000
  H   H44       1.0  0.66786  0.87507  0.94372  1.0000
  H   H45       1.0  0.83214  0.37507  0.94372  1.0000
  H   H46       1.0  0.16786  0.62493  0.44372  1.0000
  H   H47       1.0  0.83214  0.62493  0.44372  1.0000
  H   H48       1.0  0.16786  0.37507  0.94372  1.0000
  C   C81       1.0  0.42640  0.08200  0.25290  1.0000
  C   C82       1.0  0.57360  0.91800  0.75290  1.0000
  C   C83       1.0  0.42640  0.91800  0.75290  1.0000
  C   C84       1.0  0.57360  0.08200  0.25290  1.0000
  C   C85       1.0  0.92640  0.58200  0.25290  1.0000
  C   C86       1.0  0.07360  0.41800  0.75290  1.0000
  C   C87       1.0  0.92640  0.41800  0.75290  1.0000
  C   C88       1.0  0.07360  0.58200  0.25290  1.0000
  C   C89       1.0  0.34600  0.09170  0.27640  1.0000
  C   C90       1.0  0.65400  0.90830  0.77640  1.0000
  C   C91       1.0  0.34600  0.90830  0.77640  1.0000
  C   C92       1.0  0.65400  0.09170  0.27640  1.0000
  C   C93       1.0  0.84600  0.59170  0.27640  1.0000
  C   C94       1.0  0.15400  0.40830  0.77640  1.0000
  C   C95       1.0  0.84600  0.40830  0.77640  1.0000
  C   C96       1.0  0.15400  0.59170  0.27640  1.0000
  H   H49       1.0  0.34699  0.11623  0.32060  1.0000
  H   H50       1.0  0.65301  0.88377  0.82060  1.0000
  H   H51       1.0  0.34699  0.88377  0.82060  1.0000
  H   H52       1.0  0.65301  0.11623  0.32060  1.0000
  H   H53       1.0  0.84699  0.61623  0.32060  1.0000
  H   H54       1.0  0.15301  0.38377  0.82060  1.0000
  H   H55       1.0  0.84699  0.38377  0.82060  1.0000
  H   H56       1.0  0.15301  0.61623  0.32060  1.0000
  H   H57       1.0  0.31426  0.11196  0.23796  1.0000
  H   H58       1.0  0.68574  0.88804  0.73796  1.0000
  H   H59       1.0  0.31426  0.88804  0.73796  1.0000
  H   H60       1.0  0.68574  0.11196  0.23796  1.0000
  H   H61       1.0  0.81426  0.61196  0.23796  1.0000
  H   H62       1.0  0.18574  0.38804  0.73796  1.0000
  H   H63       1.0  0.81426  0.38804  0.73796  1.0000
  H   H64       1.0  0.18574  0.61196  0.23796  1.0000
  H   H65       1.0  0.31912  0.05391  0.28756  1.0000
  H   H66       1.0  0.68088  0.94609  0.78756  1.0000
  H   H67       1.0  0.31912  0.94609  0.78756  1.0000
  H   H68       1.0  0.68088  0.05391  0.28756  1.0000
  H   H69       1.0  0.81912  0.55391  0.28756  1.0000
  H   H70       1.0  0.18088  0.44609  0.78756  1.0000
  H   H71       1.0  0.81912  0.44609  0.78756  1.0000
  H   H72       1.0  0.18088  0.55391  0.28756  1.0000
  N   N1        1.0  0.45090  0.05030  0.19380  1.0000
  N   N2        1.0  0.54910  0.94970  0.69380  1.0000
  N   N3        1.0  0.45090  0.94970  0.69380  1.0000
  N   N4        1.0  0.54910  0.05030  0.19380  1.0000
  N   N5        1.0  0.95090  0.55030  0.19380  1.0000
  N   N6        1.0  0.04910  0.44970  0.69380  1.0000
  N   N7        1.0  0.95090  0.44970  0.69380  1.0000
  N   N8        1.0  0.04910  0.55030  0.19380  1.0000
  N   N9        1.0  0.50000  0.11110  0.28900  1.0000
  N   N10       1.0  0.50000  0.88890  0.78900  1.0000
  N   N11       1.0  0.00000  0.61110  0.28900  1.0000
  N   N12       1.0  0.00000  0.38890  0.78900  1.0000
  N   N13       1.0  0.46210  0.94820  0.06310  1.0000
  N   N14       1.0  0.53790  0.05180  0.56310  1.0000
  N   N15       1.0  0.46210  0.05180  0.56310  1.0000
  N   N16       1.0  0.53790  0.94820  0.06310  1.0000
  N   N17       1.0  0.96210  0.44820  0.06310  1.0000
  N   N18       1.0  0.03790  0.55180  0.56310  1.0000
  N   N19       1.0  0.96210  0.55180  0.56310  1.0000
  N   N20       1.0  0.03790  0.44820  0.06310  1.0000
  N   N21       1.0  0.50000  0.89580  0.96740  1.0000
  N   N22       1.0  0.50000  0.10420  0.46740  1.0000
  N   N23       1.0  0.00000  0.39580  0.96740  1.0000
  N   N24       1.0  0.00000  0.60420  0.46740  1.0000
  N   N25       1.0  0.30550  0.94020  0.49900  1.0000
  N   N26       1.0  0.69450  0.05980  0.99900  1.0000
  N   N27       1.0  0.30550  0.05980  0.99900  1.0000
  N   N28       1.0  0.69450  0.94020  0.49900  1.0000
  N   N29       1.0  0.80550  0.44020  0.49900  1.0000
  N   N30       1.0  0.19450  0.55980  0.99900  1.0000
  N   N31       1.0  0.80550  0.55980  0.99900  1.0000
  N   N32       1.0  0.19450  0.44020  0.49900  1.0000
  N   N33       1.0  0.30130  0.95120  0.57380  1.0000
  N   N34       1.0  0.69870  0.04880  0.07380  1.0000
  N   N35       1.0  0.30130  0.04880  0.07380  1.0000
  N   N36       1.0  0.69870  0.95120  0.57380  1.0000
  N   N37       1.0  0.80130  0.45120  0.57380  1.0000
  N   N38       1.0  0.19870  0.54880  0.07380  1.0000
  N   N39       1.0  0.80130  0.54880  0.07380  1.0000
  N   N40       1.0  0.19870  0.45120  0.57380  1.0000
  N   N41       1.0  0.23920  0.91540  0.60320  1.0000
  N   N42       1.0  0.76080  0.08460  0.10320  1.0000
  N   N43       1.0  0.23920  0.08460  0.10320  1.0000
  N   N44       1.0  0.76080  0.91540  0.60320  1.0000
  N   N45       1.0  0.73920  0.41540  0.60320  1.0000
  N   N46       1.0  0.26080  0.58460  0.10320  1.0000
  N   N47       1.0  0.73920  0.58460  0.10320  1.0000
  N   N48       1.0  0.26080  0.41540  0.60320  1.0000
  N   N49       1.0  0.20490  0.88220  0.54660  1.0000
  N   N50       1.0  0.79510  0.11780  0.04660  1.0000
  N   N51       1.0  0.20490  0.11780  0.04660  1.0000
  N   N52       1.0  0.79510  0.88220  0.54660  1.0000
  N   N53       1.0  0.70490  0.38220  0.54660  1.0000
  N   N54       1.0  0.29510  0.61780  0.04660  1.0000
  N   N55       1.0  0.70490  0.61780  0.04660  1.0000
  N   N56       1.0  0.29510  0.38220  0.54660  1.0000
  C   C97       1.0  0.24590  0.89760  0.48220  1.0000
  C   C98       1.0  0.75410  0.10240  0.98220  1.0000
  C   C99       1.0  0.24590  0.10240  0.98220  1.0000
  C   C100      1.0  0.75410  0.89760  0.48220  1.0000
  C   C101      1.0  0.74590  0.39760  0.48220  1.0000
  C   C102      1.0  0.25410  0.60240  0.98220  1.0000
  C   C103      1.0  0.74590  0.60240  0.98220  1.0000
  C   C104      1.0  0.25410  0.39760  0.48220  1.0000
  O   O1        1.0  0.32900  0.95670  0.22320  1.0000
  O   O2        1.0  0.67100  0.04330  0.72320  1.0000
  O   O3        1.0  0.32900  0.04330  0.72320  1.0000
  O   O4        1.0  0.67100  0.95670  0.22320  1.0000
  O   O5        1.0  0.82900  0.45670  0.22320  1.0000
  O   O6        1.0  0.17100  0.54330  0.72320  1.0000
  O   O7        1.0  0.82900  0.54330  0.72320  1.0000
  O   O8        1.0  0.17100  0.45670  0.22320  1.0000
  O   O9        1.0  0.25350  0.90540  0.14510  1.0000
  O   O10       1.0  0.74650  0.09460  0.64510  1.0000
  O   O11       1.0  0.25350  0.09460  0.64510  1.0000
  O   O12       1.0  0.74650  0.90540  0.14510  1.0000
  O   O13       1.0  0.75350  0.40540  0.14510  1.0000
  O   O14       1.0  0.24650  0.59460  0.64510  1.0000
  O   O15       1.0  0.75350  0.59460  0.64510  1.0000
  O   O16       1.0  0.24650  0.40540  0.14510  1.0000
  O   O17       1.0  0.09960  0.71500  0.37540  1.0000
  O   O18       1.0  0.90040  0.28500  0.87540  1.0000
  O   O19       1.0  0.09960  0.28500  0.87540  1.0000
  O   O20       1.0  0.90040  0.71500  0.37540  1.0000
  O   O21       1.0  0.59960  0.21500  0.37540  1.0000
  O   O22       1.0  0.40040  0.78500  0.87540  1.0000
  O   O23       1.0  0.59960  0.78500  0.87540  1.0000
  O   O24       1.0  0.40040  0.21500  0.37540  1.0000
  O   O25       1.0  0.07330  0.74210  0.25990  1.0000
  O   O26       1.0  0.92670  0.25790  0.75990  1.0000
  O   O27       1.0  0.07330  0.25790  0.75990  1.0000
  O   O28       1.0  0.92670  0.74210  0.25990  1.0000
  O   O29       1.0  0.57330  0.24210  0.25990  1.0000
  O   O30       1.0  0.42670  0.75790  0.75990  1.0000
  O   O31       1.0  0.57330  0.75790  0.75990  1.0000
  O   O32       1.0  0.42670  0.24210  0.25990  1.0000
