data_image0
_chemical_formula_structural       Cu3O15N3C6H3C12H3C3H3C3H3C3H3C3H3
_chemical_formula_sum              "Cu3 O15 N3 C30 H18"
_cell_length_a       10.1431
_cell_length_b       10.1431
_cell_length_c       14.428
_cell_angle_alpha    90
_cell_angle_beta     90
_cell_angle_gamma    120

_space_group_name_H-M_alt    "P 1"
_space_group_IT_number       1

loop_
  _space_group_symop_operation_xyz
  'x, y, z'

loop_
  _atom_site_type_symbol
  _atom_site_label
  _atom_site_symmetry_multiplicity
  _atom_site_fract_x
  _atom_site_fract_y
  _atom_site_fract_z
  _atom_site_occupancy
  Cu  Cu1       1.0  0.71509  0.23332  0.31715  1.0000
  Cu  Cu2       1.0  0.76668  0.48177  0.65048  1.0000
  Cu  Cu3       1.0  0.51823  0.28491  0.98382  1.0000
  O   O1        1.0  0.72080  0.04540  0.34750  1.0000
  O   O2        1.0  0.95460  0.67540  0.68083  1.0000
  O   O3        1.0  0.32460  0.27920  0.01417  1.0000
  O   O4        1.0  0.64450  0.81050  0.29390  1.0000
  O   O5        1.0  0.18950  0.83400  0.62723  1.0000
  O   O6        1.0  0.16600  0.35550  0.96057  1.0000
  O   O7        1.0  0.50840  0.13380  0.07090  1.0000
  O   O8        1.0  0.86620  0.37460  0.40423  1.0000
  O   O9        1.0  0.62540  0.49160  0.73757  1.0000
  O   O10       1.0  0.71010  0.40270  0.24690  1.0000
  O   O11       1.0  0.59730  0.30740  0.58023  1.0000
  O   O12       1.0  0.69260  0.28990  0.91357  1.0000
  O   O13       1.0  0.64250  0.43870  0.10530  1.0000
  O   O14       1.0  0.56130  0.20380  0.43863  1.0000
  O   O15       1.0  0.79620  0.35750  0.77197  1.0000
  N   N1        1.0  0.60310  0.11520  0.21420  1.0000
  N   N2        1.0  0.88480  0.48790  0.54753  1.0000
  N   N3        1.0  0.51210  0.39690  0.88087  1.0000
  C   C1        1.0  0.64780  0.93170  0.28970  1.0000
  C   C2        1.0  0.06830  0.71610  0.62303  1.0000
  C   C3        1.0  0.28390  0.35220  0.95637  1.0000
  C   C4        1.0  0.56940  0.95950  0.20750  1.0000
  C   C5        1.0  0.04050  0.60990  0.54083  1.0000
  C   C6        1.0  0.39010  0.43060  0.87417  1.0000
  H   H1        1.0  0.61560  0.94810  0.14900  1.0000
  H   H2        1.0  0.05190  0.66750  0.48233  1.0000
  H   H3        1.0  0.33250  0.38440  0.81567  1.0000
  C   C7        1.0  0.57730  0.18790  0.14740  1.0000
  C   C8        1.0  0.81210  0.38940  0.48073  1.0000
  C   C9        1.0  0.61060  0.42270  0.81407  1.0000
  C   C10       1.0  0.65060  0.35740  0.16740  1.0000
  C   C11       1.0  0.64260  0.29320  0.50073  1.0000
  C   C12       1.0  0.70680  0.34940  0.83407  1.0000
  C   C13       1.0  0.39820  0.84350  0.20610  1.0000
  C   C14       1.0  0.15650  0.55470  0.53943  1.0000
  C   C15       1.0  0.44530  0.60180  0.87277  1.0000
  C   C16       1.0  0.30490  0.84750  0.27020  1.0000
  C   C17       1.0  0.15250  0.45740  0.60353  1.0000
  C   C18       1.0  0.54260  0.69510  0.93687  1.0000
  H   H4        1.0  0.34410  0.92360  0.31700  1.0000
  H   H5        1.0  0.07640  0.42050  0.65033  1.0000
  H   H6        1.0  0.57950  0.65590  0.98367  1.0000
  C   C19       1.0  0.15200  0.74100  0.26830  1.0000
  C   C20       1.0  0.25900  0.41100  0.60163  1.0000
  C   C21       1.0  0.58900  0.84800  0.93497  1.0000
  H   H7        1.0  0.08540  0.74550  0.31320  1.0000
  H   H8        1.0  0.25450  0.33990  0.64653  1.0000
  H   H9        1.0  0.66010  0.91460  0.97987  1.0000
  C   C22       1.0  0.09100  0.62400  0.19950  1.0000
  C   C23       1.0  0.37600  0.46700  0.53283  1.0000
  C   C24       1.0  0.53300  0.90900  0.86617  1.0000
  H   H10       1.0  0.98550  0.55150  0.19730  1.0000
  H   H11       1.0  0.44850  0.43400  0.53063  1.0000
  H   H12       1.0  0.56600  0.01450  0.86397  1.0000
  C   C25       1.0  0.19000  0.61900  0.13700  1.0000
  C   C26       1.0  0.38100  0.57100  0.47033  1.0000
  C   C27       1.0  0.42900  0.81000  0.80367  1.0000
  H   H13       1.0  0.15480  0.53800  0.09410  1.0000
  H   H14       1.0  0.46200  0.61680  0.42743  1.0000
  H   H15       1.0  0.38320  0.84520  0.76077  1.0000
  C   C28       1.0  0.33400  0.72860  0.13730  1.0000
  C   C29       1.0  0.27140  0.60540  0.47063  1.0000
  C   C30       1.0  0.39460  0.66600  0.80397  1.0000
  H   H16       1.0  0.39830  0.72990  0.08880  1.0000
  H   H17       1.0  0.27010  0.66840  0.42213  1.0000
  H   H18       1.0  0.33160  0.60170  0.75547  1.0000
