data_image0
_chemical_formula_structural       Eu4O4C12H4C8H4C8H4C8H8C8H4C4H4C8H4C4H4C8H8C8H4C4H4C8H4C4H4C4N4O28
_chemical_formula_sum              "Eu4 O32 C96 H60 N4"
_cell_length_a       15.849
_cell_length_b       10.271
_cell_length_c       21.178
_cell_angle_alpha    90
_cell_angle_beta     108.936
_cell_angle_gamma    90

_space_group_name_H-M_alt    "P 1"
_space_group_IT_number       1

loop_
  _space_group_symop_operation_xyz
  'x, y, z'

loop_
  _atom_site_type_symbol
  _atom_site_label
  _atom_site_symmetry_multiplicity
  _atom_site_fract_x
  _atom_site_fract_y
  _atom_site_fract_z
  _atom_site_occupancy
  Eu  Eu1       1.0  0.39255  0.54098  0.53337  1.0000
  Eu  Eu2       1.0  0.60745  0.54098  0.96663  1.0000
  Eu  Eu3       1.0  0.60745  0.45902  0.46663  1.0000
  Eu  Eu4       1.0  0.39255  0.45902  0.03337  1.0000
  O   O1        1.0  0.38950  0.65990  0.43480  1.0000
  O   O2        1.0  0.61050  0.65990  0.06520  1.0000
  O   O3        1.0  0.61050  0.34010  0.56520  1.0000
  O   O4        1.0  0.38950  0.34010  0.93480  1.0000
  C   C1        1.0  0.41620  0.63170  0.38600  1.0000
  C   C2        1.0  0.58380  0.63170  0.11400  1.0000
  C   C3        1.0  0.58380  0.36830  0.61400  1.0000
  C   C4        1.0  0.41620  0.36830  0.88600  1.0000
  C   C5        1.0  0.35540  0.66090  0.31560  1.0000
  C   C6        1.0  0.64460  0.66090  0.18440  1.0000
  C   C7        1.0  0.64460  0.33910  0.68440  1.0000
  C   C8        1.0  0.35540  0.33910  0.81560  1.0000
  C   C9        1.0  0.37180  0.60050  0.26180  1.0000
  C   C10       1.0  0.62820  0.60050  0.23820  1.0000
  C   C11       1.0  0.62820  0.39950  0.73820  1.0000
  C   C12       1.0  0.37180  0.39950  0.76180  1.0000
  H   H1        1.0  0.41920  0.54280  0.26870  1.0000
  H   H2        1.0  0.58080  0.54280  0.23130  1.0000
  H   H3        1.0  0.58080  0.45720  0.73130  1.0000
  H   H4        1.0  0.41920  0.45720  0.76870  1.0000
  C   C13       1.0  0.31610  0.62850  0.19790  1.0000
  C   C14       1.0  0.68390  0.62850  0.30210  1.0000
  C   C15       1.0  0.68390  0.37150  0.80210  1.0000
  C   C16       1.0  0.31610  0.37150  0.69790  1.0000
  C   C17       1.0  0.24860  0.71730  0.18650  1.0000
  C   C18       1.0  0.75140  0.71730  0.31350  1.0000
  C   C19       1.0  0.75140  0.28270  0.81350  1.0000
  C   C20       1.0  0.24860  0.28270  0.68650  1.0000
  H   H5        1.0  0.21410  0.73640  0.14280  1.0000
  H   H6        1.0  0.78590  0.73640  0.35720  1.0000
  H   H7        1.0  0.78590  0.26360  0.85720  1.0000
  H   H8        1.0  0.21410  0.26360  0.64280  1.0000
  C   C21       1.0  0.22990  0.78180  0.24070  1.0000
  C   C22       1.0  0.77010  0.78180  0.25930  1.0000
  C   C23       1.0  0.77010  0.21820  0.75930  1.0000
  C   C24       1.0  0.22990  0.21820  0.74070  1.0000
  C   C25       1.0  0.28490  0.74800  0.30600  1.0000
  C   C26       1.0  0.71510  0.74800  0.19400  1.0000
  C   C27       1.0  0.71510  0.25200  0.69400  1.0000
  C   C28       1.0  0.28490  0.25200  0.80600  1.0000
  H   H9        1.0  0.27380  0.78430  0.34280  1.0000
  H   H10       1.0  0.72620  0.78430  0.15720  1.0000
  H   H11       1.0  0.72620  0.21570  0.65720  1.0000
  H   H12       1.0  0.27380  0.21570  0.84280  1.0000
  C   C29       1.0  0.33460  0.56480  0.13830  1.0000
  C   C30       1.0  0.66540  0.56480  0.36170  1.0000
  C   C31       1.0  0.66540  0.43520  0.86170  1.0000
  C   C32       1.0  0.33460  0.43520  0.63830  1.0000
  C   C33       1.0  0.11160  0.91920  0.16450  1.0000
  C   C34       1.0  0.88840  0.91920  0.33550  1.0000
  C   C35       1.0  0.88840  0.08080  0.83550  1.0000
  C   C36       1.0  0.11160  0.08080  0.66450  1.0000
  H   H13       1.0  0.14930  0.91330  0.13650  1.0000
  H   H14       1.0  0.85070  0.91330  0.36350  1.0000
  H   H15       1.0  0.85070  0.08670  0.86350  1.0000
  H   H16       1.0  0.14930  0.08670  0.63650  1.0000
  H   H17       1.0  0.09800  0.01050  0.16790  1.0000
  H   H18       1.0  0.90200  0.01050  0.33210  1.0000
  H   H19       1.0  0.90200  0.98950  0.83210  1.0000
  H   H20       1.0  0.09800  0.98950  0.66790  1.0000
  C   C37       1.0  0.02600  0.84790  0.13070  1.0000
  C   C38       1.0  0.97400  0.84790  0.36930  1.0000
  C   C39       1.0  0.97400  0.15210  0.86930  1.0000
  C   C40       1.0  0.02600  0.15210  0.63070  1.0000
  C   C41       1.0  0.00360  0.73060  0.15260  1.0000
  C   C42       1.0  0.99640  0.73060  0.34740  1.0000
  C   C43       1.0  0.99640  0.26940  0.84740  1.0000
  C   C44       1.0  0.00360  0.26940  0.65260  1.0000
  H   H21       1.0  0.04190  0.69290  0.19130  1.0000
  H   H22       1.0  0.95810  0.69290  0.30870  1.0000
  H   H23       1.0  0.95810  0.30710  0.80870  1.0000
  H   H24       1.0  0.04190  0.30710  0.69130  1.0000
  C   C45       1.0  0.92450  0.66800  0.11780  1.0000
  C   C46       1.0  0.07550  0.66800  0.38220  1.0000
  C   C47       1.0  0.07550  0.33200  0.88220  1.0000
  C   C48       1.0  0.92450  0.33200  0.61780  1.0000
  H   H25       1.0  0.91130  0.58820  0.13320  1.0000
  H   H26       1.0  0.08870  0.58820  0.36680  1.0000
  H   H27       1.0  0.08870  0.41180  0.86680  1.0000
  H   H28       1.0  0.91130  0.41180  0.63320  1.0000
  C   C49       1.0  0.86470  0.72160  0.06050  1.0000
  C   C50       1.0  0.13530  0.72160  0.43950  1.0000
  C   C51       1.0  0.13530  0.27840  0.93950  1.0000
  C   C52       1.0  0.86470  0.27840  0.56050  1.0000
  C   C53       1.0  0.88430  0.84440  0.03950  1.0000
  C   C54       1.0  0.11570  0.84440  0.46050  1.0000
  C   C55       1.0  0.11570  0.15560  0.96050  1.0000
  C   C56       1.0  0.88430  0.15560  0.53950  1.0000
  H   H29       1.0  0.84330  0.88530  0.00320  1.0000
  H   H30       1.0  0.15670  0.88530  0.49680  1.0000
  H   H31       1.0  0.15670  0.11470  0.99680  1.0000
  H   H32       1.0  0.84330  0.11470  0.50320  1.0000
  C   C57       1.0  0.96490  0.90480  0.07300  1.0000
  C   C58       1.0  0.03510  0.90480  0.42700  1.0000
  C   C59       1.0  0.03510  0.09520  0.92700  1.0000
  C   C60       1.0  0.96490  0.09520  0.57300  1.0000
  H   H33       1.0  0.97890  0.98380  0.05730  1.0000
  H   H34       1.0  0.02110  0.98380  0.44270  1.0000
  H   H35       1.0  0.02110  0.01620  0.94270  1.0000
  H   H36       1.0  0.97890  0.01620  0.55730  1.0000
  C   C61       1.0  0.77960  0.65440  0.02370  1.0000
  C   C62       1.0  0.22040  0.65440  0.47630  1.0000
  C   C63       1.0  0.22040  0.34560  0.97630  1.0000
  C   C64       1.0  0.77960  0.34560  0.52370  1.0000
  C   C65       1.0  0.14890  0.94170  0.28710  1.0000
  C   C66       1.0  0.85110  0.94170  0.21290  1.0000
  C   C67       1.0  0.85110  0.05830  0.71290  1.0000
  C   C68       1.0  0.14890  0.05830  0.78710  1.0000
  H   H37       1.0  0.14640  0.87960  0.32100  1.0000
  H   H38       1.0  0.85360  0.87960  0.17900  1.0000
  H   H39       1.0  0.85360  0.12040  0.67900  1.0000
  H   H40       1.0  0.14640  0.12040  0.82100  1.0000
  H   H41       1.0  0.09160  0.98550  0.27130  1.0000
  H   H42       1.0  0.90840  0.98550  0.22870  1.0000
  H   H43       1.0  0.90840  0.01450  0.72870  1.0000
  H   H44       1.0  0.09160  0.01450  0.77130  1.0000
  C   C69       1.0  0.21990  0.04160  0.31920  1.0000
  C   C70       1.0  0.78010  0.04160  0.18080  1.0000
  C   C71       1.0  0.78010  0.95840  0.68080  1.0000
  C   C72       1.0  0.21990  0.95840  0.81920  1.0000
  C   C73       1.0  0.21780  0.10980  0.37390  1.0000
  C   C74       1.0  0.78220  0.10980  0.12610  1.0000
  C   C75       1.0  0.78220  0.89020  0.62610  1.0000
  C   C76       1.0  0.21780  0.89020  0.87390  1.0000
  H   H45       1.0  0.17080  0.09590  0.39030  1.0000
  H   H46       1.0  0.82920  0.09590  0.10970  1.0000
  H   H47       1.0  0.82920  0.90410  0.60970  1.0000
  H   H48       1.0  0.17080  0.90410  0.89030  1.0000
  C   C77       1.0  0.28360  0.19940  0.40580  1.0000
  C   C78       1.0  0.71640  0.19940  0.09420  1.0000
  C   C79       1.0  0.71640  0.80060  0.59420  1.0000
  C   C80       1.0  0.28360  0.80060  0.90580  1.0000
  H   H49       1.0  0.27860  0.24570  0.44220  1.0000
  H   H50       1.0  0.72140  0.24570  0.05780  1.0000
  H   H51       1.0  0.72140  0.75430  0.55780  1.0000
  H   H52       1.0  0.27860  0.75430  0.94220  1.0000
  C   C81       1.0  0.35570  0.22080  0.38490  1.0000
  C   C82       1.0  0.64430  0.22080  0.11510  1.0000
  C   C83       1.0  0.64430  0.77920  0.61510  1.0000
  C   C84       1.0  0.35570  0.77920  0.88490  1.0000
  C   C85       1.0  0.35640  0.15550  0.32590  1.0000
  C   C86       1.0  0.64360  0.15550  0.17410  1.0000
  C   C87       1.0  0.64360  0.84450  0.67410  1.0000
  C   C88       1.0  0.35640  0.84450  0.82590  1.0000
  H   H53       1.0  0.40230  0.17070  0.30850  1.0000
  H   H54       1.0  0.59770  0.17070  0.19150  1.0000
  H   H55       1.0  0.59770  0.82930  0.69150  1.0000
  H   H56       1.0  0.40230  0.82930  0.80850  1.0000
  C   C89       1.0  0.29000  0.07060  0.29500  1.0000
  C   C90       1.0  0.71000  0.07060  0.20500  1.0000
  C   C91       1.0  0.71000  0.92940  0.70500  1.0000
  C   C92       1.0  0.29000  0.92940  0.79500  1.0000
  H   H57       1.0  0.29130  0.03010  0.25600  1.0000
  H   H58       1.0  0.70870  0.03010  0.24400  1.0000
  H   H59       1.0  0.70870  0.96990  0.74400  1.0000
  H   H60       1.0  0.29130  0.96990  0.75600  1.0000
  C   C93       1.0  0.43340  0.30390  0.42180  1.0000
  C   C94       1.0  0.56660  0.30390  0.07820  1.0000
  C   C95       1.0  0.56660  0.69610  0.57820  1.0000
  C   C96       1.0  0.43340  0.69610  0.92180  1.0000
  N   N1        1.0  0.16200  0.87050  0.23160  1.0000
  N   N2        1.0  0.83800  0.87050  0.26840  1.0000
  N   N3        1.0  0.83800  0.12950  0.76840  1.0000
  N   N4        1.0  0.16200  0.12950  0.73160  1.0000
  O   O5        1.0  0.36910  0.45640  0.14520  1.0000
  O   O6        1.0  0.63090  0.45640  0.35480  1.0000
  O   O7        1.0  0.63090  0.54360  0.85480  1.0000
  O   O8        1.0  0.36910  0.54360  0.64520  1.0000
  O   O9        1.0  0.31510  0.62830  0.08310  1.0000
  O   O10       1.0  0.68490  0.62830  0.41690  1.0000
  O   O11       1.0  0.68490  0.37170  0.91690  1.0000
  O   O12       1.0  0.31510  0.37170  0.58310  1.0000
  O   O13       1.0  0.76580  0.53830  0.04000  1.0000
  O   O14       1.0  0.23420  0.53830  0.46000  1.0000
  O   O15       1.0  0.23420  0.46170  0.96000  1.0000
  O   O16       1.0  0.76580  0.46170  0.54000  1.0000
  O   O17       1.0  0.71940  0.71660  0.97730  1.0000
  O   O18       1.0  0.28060  0.71660  0.52270  1.0000
  O   O19       1.0  0.28060  0.28340  0.02270  1.0000
  O   O20       1.0  0.71940  0.28340  0.47730  1.0000
  O   O21       1.0  0.42340  0.38380  0.46460  1.0000
  O   O22       1.0  0.57660  0.38380  0.03540  1.0000
  O   O23       1.0  0.57660  0.61620  0.53540  1.0000
  O   O24       1.0  0.42340  0.61620  0.96460  1.0000
  O   O25       1.0  0.50690  0.28940  0.41020  1.0000
  O   O26       1.0  0.49310  0.28940  0.08980  1.0000
  O   O27       1.0  0.49310  0.71060  0.58980  1.0000
  O   O28       1.0  0.50690  0.71060  0.91020  1.0000
  O   O29       1.0  0.49050  0.58210  0.39150  1.0000
  O   O30       1.0  0.50950  0.58210  0.10850  1.0000
  O   O31       1.0  0.50950  0.41790  0.60850  1.0000
  O   O32       1.0  0.49050  0.41790  0.89150  1.0000
