data_image0
_chemical_formula_structural       Cu8O40C8H12C8H12C8H12C8H12C8H12
_chemical_formula_sum              "Cu8 O40 C40 H60"
_cell_length_a       12.152
_cell_length_b       12.2726
_cell_length_c       18.7306
_cell_angle_alpha    90
_cell_angle_beta     112.956
_cell_angle_gamma    90

_space_group_name_H-M_alt    "P 1"
_space_group_IT_number       1

loop_
  _space_group_symop_operation_xyz
  'x, y, z'

loop_
  _atom_site_type_symbol
  _atom_site_label
  _atom_site_symmetry_multiplicity
  _atom_site_fract_x
  _atom_site_fract_y
  _atom_site_fract_z
  _atom_site_occupancy
  Cu  Cu1       1.0  0.58451  0.50513  0.57081  1.0000
  Cu  Cu2       1.0  0.41549  0.00513  0.92919  1.0000
  Cu  Cu3       1.0  0.41549  0.49487  0.42919  1.0000
  Cu  Cu4       1.0  0.58451  0.99487  0.07081  1.0000
  Cu  Cu5       1.0  0.93795  0.50220  0.92394  1.0000
  Cu  Cu6       1.0  0.06205  0.00220  0.57606  1.0000
  Cu  Cu7       1.0  0.06205  0.49780  0.07606  1.0000
  Cu  Cu8       1.0  0.93795  0.99780  0.42394  1.0000
  O   O1        1.0  0.45990  0.43975  0.59966  1.0000
  O   O2        1.0  0.54010  0.93975  0.90034  1.0000
  O   O3        1.0  0.54010  0.56025  0.40034  1.0000
  O   O4        1.0  0.45990  0.06025  0.09966  1.0000
  O   O5        1.0  0.51683  0.65182  0.57030  1.0000
  O   O6        1.0  0.48317  0.15182  0.92970  1.0000
  O   O7        1.0  0.48317  0.34818  0.42970  1.0000
  O   O8        1.0  0.51683  0.84818  0.07030  1.0000
  O   O9        1.0  0.31686  0.43082  0.48086  1.0000
  O   O10       1.0  0.68314  0.93082  0.01914  1.0000
  O   O11       1.0  0.68314  0.56918  0.51914  1.0000
  O   O12       1.0  0.31686  0.06918  0.98086  1.0000
  O   O13       1.0  0.37201  0.64168  0.45215  1.0000
  O   O14       1.0  0.62799  0.14168  0.04785  1.0000
  O   O15       1.0  0.62799  0.35832  0.54785  1.0000
  O   O16       1.0  0.37201  0.85832  0.95215  1.0000
  O   O17       1.0  0.72384  0.52443  0.68184  1.0000
  O   O18       1.0  0.27616  0.02443  0.81816  1.0000
  O   O19       1.0  0.27616  0.47557  0.31816  1.0000
  O   O20       1.0  0.72384  0.97557  0.18184  1.0000
  O   O21       1.0  0.85592  0.52508  0.80224  1.0000
  O   O22       1.0  0.14408  0.02508  0.69776  1.0000
  O   O23       1.0  0.14408  0.47492  0.19776  1.0000
  O   O24       1.0  0.85592  0.97492  0.30224  1.0000
  O   O25       1.0  0.80423  0.54543  0.95269  1.0000
  O   O26       1.0  0.19577  0.04543  0.54731  1.0000
  O   O27       1.0  0.19577  0.45457  0.04731  1.0000
  O   O28       1.0  0.80423  0.95457  0.45269  1.0000
  O   O29       1.0  0.90257  0.34674  0.93393  1.0000
  O   O30       1.0  0.09743  0.84674  0.56607  1.0000
  O   O31       1.0  0.09743  0.65326  0.06607  1.0000
  O   O32       1.0  0.90257  0.15326  0.43393  1.0000
  O   O33       1.0  0.90880  0.54285  0.08117  1.0000
  O   O34       1.0  0.09120  0.04285  0.41883  1.0000
  O   O35       1.0  0.09120  0.45715  0.91883  1.0000
  O   O36       1.0  0.90880  0.95715  0.58117  1.0000
  O   O37       1.0  0.00712  0.34410  0.06224  1.0000
  O   O38       1.0  0.99288  0.84410  0.43776  1.0000
  O   O39       1.0  0.99288  0.65590  0.93776  1.0000
  O   O40       1.0  0.00712  0.15590  0.56224  1.0000
  C   C1        1.0  0.35629  0.41637  0.55266  1.0000
  C   C2        1.0  0.64371  0.91637  0.94734  1.0000
  C   C3        1.0  0.64371  0.58363  0.44734  1.0000
  C   C4        1.0  0.35629  0.08363  0.05266  1.0000
  C   C5        1.0  0.27189  0.36747  0.58551  1.0000
  C   C6        1.0  0.72811  0.86747  0.91449  1.0000
  C   C7        1.0  0.72811  0.63253  0.41449  1.0000
  C   C8        1.0  0.27189  0.13253  0.08551  1.0000
  H   H1        1.0  0.31710  0.34470  0.63920  1.0000
  H   H2        1.0  0.68290  0.84470  0.86080  1.0000
  H   H3        1.0  0.68290  0.65530  0.36080  1.0000
  H   H4        1.0  0.31710  0.15530  0.13920  1.0000
  H   H5        1.0  0.23170  0.30410  0.55440  1.0000
  H   H6        1.0  0.76830  0.80410  0.94560  1.0000
  H   H7        1.0  0.76830  0.69590  0.44560  1.0000
  H   H8        1.0  0.23170  0.19590  0.05440  1.0000
  H   H9        1.0  0.21210  0.42190  0.58420  1.0000
  H   H10       1.0  0.78790  0.92190  0.91580  1.0000
  H   H11       1.0  0.78790  0.57810  0.41580  1.0000
  H   H12       1.0  0.21210  0.07810  0.08420  1.0000
  C   C9        1.0  0.42955  0.69004  0.51461  1.0000
  C   C10       1.0  0.57045  0.19004  0.98539  1.0000
  C   C11       1.0  0.57045  0.30996  0.48539  1.0000
  C   C12       1.0  0.42955  0.80996  0.01461  1.0000
  C   C13       1.0  0.39020  0.80429  0.52395  1.0000
  C   C14       1.0  0.60980  0.30429  0.97605  1.0000
  C   C15       1.0  0.60980  0.19571  0.47605  1.0000
  C   C16       1.0  0.39020  0.69571  0.02395  1.0000
  H   H13       1.0  0.34870  0.80300  0.55950  1.0000
  H   H14       1.0  0.65130  0.30300  0.94050  1.0000
  H   H15       1.0  0.65130  0.19700  0.44050  1.0000
  H   H16       1.0  0.34870  0.69700  0.05950  1.0000
  H   H17       1.0  0.33600  0.83200  0.47340  1.0000
  H   H18       1.0  0.66400  0.33200  0.02660  1.0000
  H   H19       1.0  0.66400  0.16800  0.52660  1.0000
  H   H20       1.0  0.33600  0.66800  0.97340  1.0000
  H   H21       1.0  0.46030  0.85180  0.54500  1.0000
  H   H22       1.0  0.53970  0.35180  0.95500  1.0000
  H   H23       1.0  0.53970  0.14820  0.45500  1.0000
  H   H24       1.0  0.46030  0.64820  0.04500  1.0000
  C   C17       1.0  0.75337  0.49915  0.75148  1.0000
  C   C18       1.0  0.24663  0.99915  0.74852  1.0000
  C   C19       1.0  0.24663  0.50085  0.24852  1.0000
  C   C20       1.0  0.75337  0.00085  0.25148  1.0000
  C   C21       1.0  0.66926  0.43909  0.77852  1.0000
  C   C22       1.0  0.33074  0.93909  0.72148  1.0000
  C   C23       1.0  0.33074  0.56091  0.22148  1.0000
  C   C24       1.0  0.66926  0.06091  0.27852  1.0000
  H   H25       1.0  0.65130  0.48420  0.81580  1.0000
  H   H26       1.0  0.34870  0.98420  0.68420  1.0000
  H   H27       1.0  0.34870  0.51580  0.18420  1.0000
  H   H28       1.0  0.65130  0.01580  0.31580  1.0000
  H   H29       1.0  0.70640  0.37080  0.80340  1.0000
  H   H30       1.0  0.29360  0.87080  0.69660  1.0000
  H   H31       1.0  0.29360  0.62920  0.19660  1.0000
  H   H32       1.0  0.70640  0.12920  0.30340  1.0000
  H   H33       1.0  0.59510  0.42300  0.73400  1.0000
  H   H34       1.0  0.40490  0.92300  0.76600  1.0000
  H   H35       1.0  0.40490  0.57700  0.26600  1.0000
  H   H36       1.0  0.59510  0.07700  0.23400  1.0000
  C   C25       1.0  0.81493  0.55813  0.02184  1.0000
  C   C26       1.0  0.18507  0.05813  0.47816  1.0000
  C   C27       1.0  0.18507  0.44187  0.97816  1.0000
  C   C28       1.0  0.81493  0.94187  0.52184  1.0000
  C   C29       1.0  0.70571  0.59690  0.03438  1.0000
  C   C30       1.0  0.29429  0.09690  0.46562  1.0000
  C   C31       1.0  0.29429  0.40310  0.96562  1.0000
  C   C32       1.0  0.70571  0.90310  0.53438  1.0000
  H   H37       1.0  0.69980  0.67640  0.02930  1.0000
  H   H38       1.0  0.30020  0.17640  0.47070  1.0000
  H   H39       1.0  0.30020  0.32360  0.97070  1.0000
  H   H40       1.0  0.69980  0.82360  0.52930  1.0000
  H   H41       1.0  0.71250  0.57590  0.08640  1.0000
  H   H42       1.0  0.28750  0.07590  0.41360  1.0000
  H   H43       1.0  0.28750  0.42410  0.91360  1.0000
  H   H44       1.0  0.71250  0.92410  0.58640  1.0000
  H   H45       1.0  0.63400  0.56350  0.99560  1.0000
  H   H46       1.0  0.36600  0.06350  0.50440  1.0000
  H   H47       1.0  0.36600  0.43650  0.00440  1.0000
  H   H48       1.0  0.63400  0.93650  0.49560  1.0000
  C   C33       1.0  0.94290  0.30002  0.99907  1.0000
  C   C34       1.0  0.05710  0.80002  0.50093  1.0000
  C   C35       1.0  0.05710  0.69998  0.00093  1.0000
  C   C36       1.0  0.94290  0.19998  0.49907  1.0000
  C   C37       1.0  0.91147  0.18182  0.00283  1.0000
  C   C38       1.0  0.08853  0.68182  0.49717  1.0000
  C   C39       1.0  0.08853  0.81818  0.99717  1.0000
  C   C40       1.0  0.91147  0.31818  0.50283  1.0000
  H   H49       1.0  0.85070  0.17620  0.02500  1.0000
  H   H50       1.0  0.14930  0.67620  0.47500  1.0000
  H   H51       1.0  0.14930  0.82380  0.97500  1.0000
  H   H52       1.0  0.85070  0.32380  0.52500  1.0000
  H   H53       1.0  0.98320  0.14160  0.03550  1.0000
  H   H54       1.0  0.01680  0.64160  0.46450  1.0000
  H   H55       1.0  0.01680  0.85840  0.96450  1.0000
  H   H56       1.0  0.98320  0.35840  0.53550  1.0000
  H   H57       1.0  0.88010  0.15080  0.95050  1.0000
  H   H58       1.0  0.11990  0.65080  0.54950  1.0000
  H   H59       1.0  0.11990  0.84920  0.04950  1.0000
  H   H60       1.0  0.88010  0.34920  0.45050  1.0000
