data_image0
_chemical_formula_structural       Cd12O16C8O8C8H8C8H8O8C16O8C16H8C8H8C8H8C8H8C16H8C8H8C8O8C8O8C8H8C8H8O16C8H8O24C24H8C24Li8
_chemical_formula_sum              "Cd12 O96 C192 H96 Li8"
_cell_length_a       6.5914
_cell_length_b       34.784
_cell_length_c       30.396
_cell_angle_alpha    90
_cell_angle_beta     90
_cell_angle_gamma    90

_space_group_name_H-M_alt    "P 1"
_space_group_IT_number       1

loop_
  _space_group_symop_operation_xyz
  'x, y, z'

loop_
  _atom_site_type_symbol
  _atom_site_label
  _atom_site_symmetry_multiplicity
  _atom_site_fract_x
  _atom_site_fract_y
  _atom_site_fract_z
  _atom_site_occupancy
  Cd  Cd1       1.0  0.83405  0.13012  0.41663  1.0000
  Cd  Cd2       1.0  0.16595  0.13012  0.08337  1.0000
  Cd  Cd3       1.0  0.33405  0.63011  0.41663  1.0000
  Cd  Cd4       1.0  0.66595  0.63011  0.08337  1.0000
  Cd  Cd5       1.0  0.16595  0.86989  0.58337  1.0000
  Cd  Cd6       1.0  0.83405  0.86989  0.91663  1.0000
  Cd  Cd7       1.0  0.66595  0.36989  0.58337  1.0000
  Cd  Cd8       1.0  0.33405  0.36989  0.91663  1.0000
  Cd  Cd9       1.0  0.00000  0.36998  0.25000  1.0000
  Cd  Cd10      1.0  0.50000  0.86998  0.25000  1.0000
  Cd  Cd11      1.0  0.00000  0.63002  0.75000  1.0000
  Cd  Cd12      1.0  0.50000  0.13002  0.75000  1.0000
  O   O1        1.0  0.85030  0.18220  0.47170  1.0000
  O   O2        1.0  0.14970  0.18220  0.02830  1.0000
  O   O3        1.0  0.35030  0.68220  0.47170  1.0000
  O   O4        1.0  0.64970  0.68220  0.02830  1.0000
  O   O5        1.0  0.14970  0.81780  0.52830  1.0000
  O   O6        1.0  0.85030  0.81780  0.97170  1.0000
  O   O7        1.0  0.64970  0.31780  0.52830  1.0000
  O   O8        1.0  0.35030  0.31780  0.97170  1.0000
  O   O9        1.0  0.82480  0.08000  0.46570  1.0000
  O   O10       1.0  0.17520  0.08000  0.03430  1.0000
  O   O11       1.0  0.32480  0.58000  0.46570  1.0000
  O   O12       1.0  0.67520  0.58000  0.03430  1.0000
  O   O13       1.0  0.17520  0.92000  0.53430  1.0000
  O   O14       1.0  0.82480  0.92000  0.96570  1.0000
  O   O15       1.0  0.67520  0.42000  0.53430  1.0000
  O   O16       1.0  0.32480  0.42000  0.96570  1.0000
  C   C1        1.0  0.30600  0.28230  0.31620  1.0000
  C   C2        1.0  0.69400  0.28230  0.18380  1.0000
  C   C3        1.0  0.80600  0.78230  0.31620  1.0000
  C   C4        1.0  0.19400  0.78230  0.18380  1.0000
  C   C5        1.0  0.69400  0.71770  0.68380  1.0000
  C   C6        1.0  0.30600  0.71770  0.81620  1.0000
  C   C7        1.0  0.19400  0.21770  0.68380  1.0000
  C   C8        1.0  0.80600  0.21770  0.81620  1.0000
  O   O17       1.0  0.14420  0.09540  0.38420  1.0000
  O   O18       1.0  0.85580  0.09540  0.11580  1.0000
  O   O19       1.0  0.64420  0.59540  0.38420  1.0000
  O   O20       1.0  0.35580  0.59540  0.11580  1.0000
  O   O21       1.0  0.85580  0.90460  0.61580  1.0000
  O   O22       1.0  0.14420  0.90460  0.88420  1.0000
  O   O23       1.0  0.35580  0.40460  0.61580  1.0000
  O   O24       1.0  0.64420  0.40460  0.88420  1.0000
  C   C9        1.0  0.69870  0.00790  0.50460  1.0000
  C   C10       1.0  0.30130  0.00790  0.99540  1.0000
  C   C11       1.0  0.19870  0.50790  0.50460  1.0000
  C   C12       1.0  0.80130  0.50790  0.99540  1.0000
  C   C13       1.0  0.30130  0.99210  0.49540  1.0000
  C   C14       1.0  0.69870  0.99210  0.00460  1.0000
  C   C15       1.0  0.80130  0.49210  0.49540  1.0000
  C   C16       1.0  0.19870  0.49210  0.00460  1.0000
  H   H1        1.0  0.83900  0.01370  0.50750  1.0000
  H   H2        1.0  0.16100  0.01370  0.99250  1.0000
  H   H3        1.0  0.33900  0.51370  0.50750  1.0000
  H   H4        1.0  0.66100  0.51370  0.99250  1.0000
  H   H5        1.0  0.16100  0.98630  0.49250  1.0000
  H   H6        1.0  0.83900  0.98630  0.00750  1.0000
  H   H7        1.0  0.66100  0.48630  0.49250  1.0000
  H   H8        1.0  0.33900  0.48630  0.00750  1.0000
  C   C17       1.0  0.61760  0.24690  0.32520  1.0000
  C   C18       1.0  0.38240  0.24690  0.17480  1.0000
  C   C19       1.0  0.11760  0.74690  0.32520  1.0000
  C   C20       1.0  0.88240  0.74690  0.17480  1.0000
  C   C21       1.0  0.38240  0.75310  0.67480  1.0000
  C   C22       1.0  0.61760  0.75310  0.82520  1.0000
  C   C23       1.0  0.88240  0.25310  0.67480  1.0000
  C   C24       1.0  0.11760  0.25310  0.82520  1.0000
  H   H9        1.0  0.75970  0.24520  0.32040  1.0000
  H   H10       1.0  0.24030  0.24520  0.17960  1.0000
  H   H11       1.0  0.25970  0.74520  0.32040  1.0000
  H   H12       1.0  0.74030  0.74520  0.17960  1.0000
  H   H13       1.0  0.24030  0.75480  0.67960  1.0000
  H   H14       1.0  0.75970  0.75480  0.82040  1.0000
  H   H15       1.0  0.74030  0.25480  0.67960  1.0000
  H   H16       1.0  0.25970  0.25480  0.82040  1.0000
  O   O25       1.0  0.12470  0.15940  0.44500  1.0000
  O   O26       1.0  0.87530  0.15940  0.05500  1.0000
  O   O27       1.0  0.62470  0.65940  0.44500  1.0000
  O   O28       1.0  0.37530  0.65940  0.05500  1.0000
  O   O29       1.0  0.87530  0.84060  0.55500  1.0000
  O   O30       1.0  0.12470  0.84060  0.94500  1.0000
  O   O31       1.0  0.37530  0.34060  0.55500  1.0000
  O   O32       1.0  0.62470  0.34060  0.94500  1.0000
  C   C25       1.0  0.65600  0.07330  0.46760  1.0000
  C   C26       1.0  0.34400  0.07330  0.03240  1.0000
  C   C27       1.0  0.15600  0.57330  0.46760  1.0000
  C   C28       1.0  0.84400  0.57330  0.03240  1.0000
  C   C29       1.0  0.34400  0.92670  0.53240  1.0000
  C   C30       1.0  0.65600  0.92670  0.96760  1.0000
  C   C31       1.0  0.84400  0.42670  0.53240  1.0000
  C   C32       1.0  0.15600  0.42670  0.96760  1.0000
  C   C33       1.0  0.64000  0.18450  0.36510  1.0000
  C   C34       1.0  0.36000  0.18450  0.13490  1.0000
  C   C35       1.0  0.14000  0.68450  0.36510  1.0000
  C   C36       1.0  0.86000  0.68450  0.13490  1.0000
  C   C37       1.0  0.36000  0.81550  0.63490  1.0000
  C   C38       1.0  0.64000  0.81550  0.86510  1.0000
  C   C39       1.0  0.86000  0.31550  0.63490  1.0000
  C   C40       1.0  0.14000  0.31550  0.86510  1.0000
  O   O33       1.0  0.29630  0.34150  0.27700  1.0000
  O   O34       1.0  0.70370  0.34150  0.22300  1.0000
  O   O35       1.0  0.79630  0.84150  0.27700  1.0000
  O   O36       1.0  0.20370  0.84150  0.22300  1.0000
  O   O37       1.0  0.70370  0.65850  0.72300  1.0000
  O   O38       1.0  0.29630  0.65850  0.77700  1.0000
  O   O39       1.0  0.20370  0.15850  0.72300  1.0000
  O   O40       1.0  0.79630  0.15850  0.77700  1.0000
  C   C41       1.0  0.19710  0.31600  0.29760  1.0000
  C   C42       1.0  0.80290  0.31600  0.20240  1.0000
  C   C43       1.0  0.69710  0.81600  0.29760  1.0000
  C   C44       1.0  0.30290  0.81600  0.20240  1.0000
  C   C45       1.0  0.80290  0.68400  0.70240  1.0000
  C   C46       1.0  0.19710  0.68400  0.79760  1.0000
  C   C47       1.0  0.30290  0.18400  0.70240  1.0000
  C   C48       1.0  0.69710  0.18400  0.79760  1.0000
  C   C49       1.0  0.31180  0.22300  0.35760  1.0000
  C   C50       1.0  0.68820  0.22300  0.14240  1.0000
  C   C51       1.0  0.81180  0.72300  0.35760  1.0000
  C   C52       1.0  0.18820  0.72300  0.14240  1.0000
  C   C53       1.0  0.68820  0.77700  0.64240  1.0000
  C   C54       1.0  0.31180  0.77700  0.85760  1.0000
  C   C55       1.0  0.18820  0.27700  0.64240  1.0000
  C   C56       1.0  0.81180  0.27700  0.85760  1.0000
  H   H17       1.0  0.24230  0.20450  0.37510  1.0000
  H   H18       1.0  0.75770  0.20450  0.12490  1.0000
  H   H19       1.0  0.74230  0.70450  0.37510  1.0000
  H   H20       1.0  0.25770  0.70450  0.12490  1.0000
  H   H21       1.0  0.75770  0.79550  0.62490  1.0000
  H   H22       1.0  0.24230  0.79550  0.87510  1.0000
  H   H23       1.0  0.25770  0.29550  0.62490  1.0000
  H   H24       1.0  0.74230  0.29550  0.87510  1.0000
  C   C57       1.0  0.35180  0.22270  0.47610  1.0000
  C   C58       1.0  0.64820  0.22270  0.02390  1.0000
  C   C59       1.0  0.85180  0.72270  0.47610  1.0000
  C   C60       1.0  0.14820  0.72270  0.02390  1.0000
  C   C61       1.0  0.64820  0.77730  0.52390  1.0000
  C   C62       1.0  0.35180  0.77730  0.97610  1.0000
  C   C63       1.0  0.14820  0.27730  0.52390  1.0000
  C   C64       1.0  0.85180  0.27730  0.97610  1.0000
  H   H25       1.0  0.42210  0.20380  0.45940  1.0000
  H   H26       1.0  0.57790  0.20380  0.04060  1.0000
  H   H27       1.0  0.92210  0.70380  0.45940  1.0000
  H   H28       1.0  0.07790  0.70380  0.04060  1.0000
  H   H29       1.0  0.57790  0.79620  0.54060  1.0000
  H   H30       1.0  0.42210  0.79620  0.95940  1.0000
  H   H31       1.0  0.07790  0.29620  0.54060  1.0000
  H   H32       1.0  0.92210  0.29620  0.95940  1.0000
  C   C65       1.0  0.02760  0.97563  0.31170  1.0000
  C   C66       1.0  0.97240  0.97563  0.18830  1.0000
  C   C67       1.0  0.52760  0.47563  0.31170  1.0000
  C   C68       1.0  0.47240  0.47563  0.18830  1.0000
  C   C69       1.0  0.97240  0.02437  0.68830  1.0000
  C   C70       1.0  0.02760  0.02437  0.81170  1.0000
  C   C71       1.0  0.47240  0.52437  0.68830  1.0000
  C   C72       1.0  0.52760  0.52437  0.81170  1.0000
  H   H33       1.0  0.93370  0.95920  0.29720  1.0000
  H   H34       1.0  0.06630  0.95920  0.20280  1.0000
  H   H35       1.0  0.43370  0.45920  0.29720  1.0000
  H   H36       1.0  0.56630  0.45920  0.20280  1.0000
  H   H37       1.0  0.06630  0.04080  0.70280  1.0000
  H   H38       1.0  0.93370  0.04080  0.79720  1.0000
  H   H39       1.0  0.56630  0.54080  0.70280  1.0000
  H   H40       1.0  0.43370  0.54080  0.79720  1.0000
  C   C73       1.0  0.96440  0.01100  0.32770  1.0000
  C   C74       1.0  0.03560  0.01100  0.17230  1.0000
  C   C75       1.0  0.46440  0.51100  0.32770  1.0000
  C   C76       1.0  0.53560  0.51100  0.17230  1.0000
  C   C77       1.0  0.03560  0.98900  0.67230  1.0000
  C   C78       1.0  0.96440  0.98900  0.82770  1.0000
  C   C79       1.0  0.53560  0.48900  0.67230  1.0000
  C   C80       1.0  0.46440  0.48900  0.82770  1.0000
  H   H41       1.0  0.82730  0.01880  0.32420  1.0000
  H   H42       1.0  0.17270  0.01880  0.17580  1.0000
  H   H43       1.0  0.32730  0.51880  0.32420  1.0000
  H   H44       1.0  0.67270  0.51880  0.17580  1.0000
  H   H45       1.0  0.17270  0.98120  0.67580  1.0000
  H   H46       1.0  0.82730  0.98120  0.82420  1.0000
  H   H47       1.0  0.67270  0.48120  0.67580  1.0000
  H   H48       1.0  0.32730  0.48120  0.82420  1.0000
  C   C81       1.0  0.10190  0.03514  0.34890  1.0000
  C   C82       1.0  0.89810  0.03514  0.15110  1.0000
  C   C83       1.0  0.60190  0.53514  0.34890  1.0000
  C   C84       1.0  0.39810  0.53514  0.15110  1.0000
  C   C85       1.0  0.89810  0.96486  0.65110  1.0000
  C   C86       1.0  0.10190  0.96486  0.84890  1.0000
  C   C87       1.0  0.39810  0.46486  0.65110  1.0000
  C   C88       1.0  0.60190  0.46486  0.84890  1.0000
  C   C89       1.0  0.30250  0.02380  0.35410  1.0000
  C   C90       1.0  0.69750  0.02380  0.14590  1.0000
  C   C91       1.0  0.80250  0.52380  0.35410  1.0000
  C   C92       1.0  0.19750  0.52380  0.14590  1.0000
  C   C93       1.0  0.69750  0.97620  0.64590  1.0000
  C   C94       1.0  0.30250  0.97620  0.85410  1.0000
  C   C95       1.0  0.19750  0.47620  0.64590  1.0000
  C   C96       1.0  0.80250  0.47620  0.85410  1.0000
  H   H49       1.0  0.39640  0.04030  0.36860  1.0000
  H   H50       1.0  0.60360  0.04030  0.13140  1.0000
  H   H51       1.0  0.89640  0.54030  0.36860  1.0000
  H   H52       1.0  0.10360  0.54030  0.13140  1.0000
  H   H53       1.0  0.60360  0.95970  0.63140  1.0000
  H   H54       1.0  0.39640  0.95970  0.86860  1.0000
  H   H55       1.0  0.10360  0.45970  0.63140  1.0000
  H   H56       1.0  0.89640  0.45970  0.86860  1.0000
  C   C97       1.0  0.36570  0.98840  0.33810  1.0000
  C   C98       1.0  0.63430  0.98840  0.16190  1.0000
  C   C99       1.0  0.86570  0.48840  0.33810  1.0000
  C   C100      1.0  0.13430  0.48840  0.16190  1.0000
  C   C101      1.0  0.63430  0.01160  0.66190  1.0000
  C   C102      1.0  0.36570  0.01160  0.83810  1.0000
  C   C103      1.0  0.13430  0.51160  0.66190  1.0000
  C   C104      1.0  0.86570  0.51160  0.83810  1.0000
  H   H57       1.0  0.50280  0.98070  0.34160  1.0000
  H   H58       1.0  0.49720  0.98070  0.15840  1.0000
  H   H59       1.0  0.00280  0.48070  0.34160  1.0000
  H   H60       1.0  0.99720  0.48070  0.15840  1.0000
  H   H61       1.0  0.49720  0.01930  0.65840  1.0000
  H   H62       1.0  0.50280  0.01930  0.84160  1.0000
  H   H63       1.0  0.99720  0.51930  0.65840  1.0000
  H   H64       1.0  0.00280  0.51930  0.84160  1.0000
  C   C105      1.0  0.22830  0.96431  0.31690  1.0000
  C   C106      1.0  0.77170  0.96431  0.18310  1.0000
  C   C107      1.0  0.72830  0.46431  0.31690  1.0000
  C   C108      1.0  0.27170  0.46431  0.18310  1.0000
  C   C109      1.0  0.77170  0.03569  0.68310  1.0000
  C   C110      1.0  0.22830  0.03569  0.81690  1.0000
  C   C111      1.0  0.27170  0.53569  0.68310  1.0000
  C   C112      1.0  0.72830  0.53569  0.81690  1.0000
  O   O41       1.0  0.53460  0.15960  0.38860  1.0000
  O   O42       1.0  0.46540  0.15960  0.11140  1.0000
  O   O43       1.0  0.03460  0.65960  0.38860  1.0000
  O   O44       1.0  0.96540  0.65960  0.11140  1.0000
  O   O45       1.0  0.46540  0.84040  0.61140  1.0000
  O   O46       1.0  0.53460  0.84040  0.88860  1.0000
  O   O47       1.0  0.96540  0.34040  0.61140  1.0000
  O   O48       1.0  0.03460  0.34040  0.88860  1.0000
  C   C113      1.0  0.04100  0.07290  0.36670  1.0000
  C   C114      1.0  0.95900  0.07290  0.13330  1.0000
  C   C115      1.0  0.54100  0.57290  0.36670  1.0000
  C   C116      1.0  0.45900  0.57290  0.13330  1.0000
  C   C117      1.0  0.95900  0.92710  0.63330  1.0000
  C   C118      1.0  0.04100  0.92710  0.86670  1.0000
  C   C119      1.0  0.45900  0.42710  0.63330  1.0000
  C   C120      1.0  0.54100  0.42710  0.86670  1.0000
  O   O49       1.0  0.17920  0.90510  0.28270  1.0000
  O   O50       1.0  0.82080  0.90510  0.21730  1.0000
  O   O51       1.0  0.67920  0.40510  0.28270  1.0000
  O   O52       1.0  0.32080  0.40510  0.21730  1.0000
  O   O53       1.0  0.82080  0.09490  0.71730  1.0000
  O   O54       1.0  0.17920  0.09490  0.78270  1.0000
  O   O55       1.0  0.32080  0.59490  0.71730  1.0000
  O   O56       1.0  0.67920  0.59490  0.78270  1.0000
  C   C121      1.0  0.45400  0.25380  0.49230  1.0000
  C   C122      1.0  0.54600  0.25380  0.00770  1.0000
  C   C123      1.0  0.95400  0.75380  0.49230  1.0000
  C   C124      1.0  0.04600  0.75380  0.00770  1.0000
  C   C125      1.0  0.54600  0.74620  0.50770  1.0000
  C   C126      1.0  0.45400  0.74620  0.99230  1.0000
  C   C127      1.0  0.04600  0.24620  0.50770  1.0000
  C   C128      1.0  0.95400  0.24620  0.99230  1.0000
  H   H65       1.0  0.59590  0.25650  0.48710  1.0000
  H   H66       1.0  0.40410  0.25650  0.01290  1.0000
  H   H67       1.0  0.09590  0.75650  0.48710  1.0000
  H   H68       1.0  0.90410  0.75650  0.01290  1.0000
  H   H69       1.0  0.40410  0.74350  0.51290  1.0000
  H   H70       1.0  0.59590  0.74350  0.98710  1.0000
  H   H71       1.0  0.90410  0.24350  0.51290  1.0000
  H   H72       1.0  0.09590  0.24350  0.98710  1.0000
  C   C129      1.0  0.36970  0.02490  0.48010  1.0000
  C   C130      1.0  0.63030  0.02490  0.01990  1.0000
  C   C131      1.0  0.86970  0.52490  0.48010  1.0000
  C   C132      1.0  0.13030  0.52490  0.01990  1.0000
  C   C133      1.0  0.63030  0.97510  0.51990  1.0000
  C   C134      1.0  0.36970  0.97510  0.98010  1.0000
  C   C135      1.0  0.13030  0.47510  0.51990  1.0000
  C   C136      1.0  0.86970  0.47510  0.98010  1.0000
  H   H73       1.0  0.27690  0.04180  0.46610  1.0000
  H   H74       1.0  0.72310  0.04180  0.03390  1.0000
  H   H75       1.0  0.77690  0.54180  0.46610  1.0000
  H   H76       1.0  0.22310  0.54180  0.03390  1.0000
  H   H77       1.0  0.72310  0.95820  0.53390  1.0000
  H   H78       1.0  0.27690  0.95820  0.96610  1.0000
  H   H79       1.0  0.22310  0.45820  0.53390  1.0000
  H   H80       1.0  0.77690  0.45820  0.96610  1.0000
  O   O57       1.0  0.85170  0.08050  0.36550  1.0000
  O   O58       1.0  0.14830  0.08050  0.13450  1.0000
  O   O59       1.0  0.35170  0.58050  0.36550  1.0000
  O   O60       1.0  0.64830  0.58050  0.13450  1.0000
  O   O61       1.0  0.14830  0.91950  0.63450  1.0000
  O   O62       1.0  0.85170  0.91950  0.86550  1.0000
  O   O63       1.0  0.64830  0.41950  0.63450  1.0000
  O   O64       1.0  0.35170  0.41950  0.86550  1.0000
  O   O65       1.0  0.50060  0.92030  0.30300  1.0000
  O   O66       1.0  0.49940  0.92030  0.19700  1.0000
  O   O67       1.0  0.00060  0.42030  0.30300  1.0000
  O   O68       1.0  0.99940  0.42030  0.19700  1.0000
  O   O69       1.0  0.49940  0.07970  0.69700  1.0000
  O   O70       1.0  0.50060  0.07970  0.80300  1.0000
  O   O71       1.0  0.99940  0.57970  0.69700  1.0000
  O   O72       1.0  0.00060  0.57970  0.80300  1.0000
  C   C137      1.0  0.50400  0.27800  0.30970  1.0000
  C   C138      1.0  0.49600  0.27800  0.19030  1.0000
  C   C139      1.0  0.00400  0.77800  0.30970  1.0000
  C   C140      1.0  0.99600  0.77800  0.19030  1.0000
  C   C141      1.0  0.49600  0.72200  0.69030  1.0000
  C   C142      1.0  0.50400  0.72200  0.80970  1.0000
  C   C143      1.0  0.99600  0.22200  0.69030  1.0000
  C   C144      1.0  0.00400  0.22200  0.80970  1.0000
  H   H81       1.0  0.57300  0.29730  0.29350  1.0000
  H   H82       1.0  0.42700  0.29730  0.20650  1.0000
  H   H83       1.0  0.07300  0.79730  0.29350  1.0000
  H   H84       1.0  0.92700  0.79730  0.20650  1.0000
  H   H85       1.0  0.42700  0.70270  0.70650  1.0000
  H   H86       1.0  0.57300  0.70270  0.79350  1.0000
  H   H87       1.0  0.92700  0.20270  0.70650  1.0000
  H   H88       1.0  0.07300  0.20270  0.79350  1.0000
  O   O73       1.0  0.00250  0.31770  0.30180  1.0000
  O   O74       1.0  0.99750  0.31770  0.19820  1.0000
  O   O75       1.0  0.50250  0.81770  0.30180  1.0000
  O   O76       1.0  0.49750  0.81770  0.19820  1.0000
  O   O77       1.0  0.99750  0.68230  0.69820  1.0000
  O   O78       1.0  0.00250  0.68230  0.80180  1.0000
  O   O79       1.0  0.49750  0.18230  0.69820  1.0000
  O   O80       1.0  0.50250  0.18230  0.80180  1.0000
  O   O81       1.0  0.51240  0.09660  0.45110  1.0000
  O   O82       1.0  0.48760  0.09660  0.04890  1.0000
  O   O83       1.0  0.01240  0.59660  0.45110  1.0000
  O   O84       1.0  0.98760  0.59660  0.04890  1.0000
  O   O85       1.0  0.48760  0.90340  0.54890  1.0000
  O   O86       1.0  0.51240  0.90340  0.95110  1.0000
  O   O87       1.0  0.98760  0.40340  0.54890  1.0000
  O   O88       1.0  0.01240  0.40340  0.95110  1.0000
  O   O89       1.0  0.82140  0.18320  0.36480  1.0000
  O   O90       1.0  0.17860  0.18320  0.13520  1.0000
  O   O91       1.0  0.32140  0.68320  0.36480  1.0000
  O   O92       1.0  0.67860  0.68320  0.13520  1.0000
  O   O93       1.0  0.17860  0.81680  0.63520  1.0000
  O   O94       1.0  0.82140  0.81680  0.86480  1.0000
  O   O95       1.0  0.67860  0.31680  0.63520  1.0000
  O   O96       1.0  0.32140  0.31680  0.86480  1.0000
  C   C145      1.0  0.14850  0.21850  0.48370  1.0000
  C   C146      1.0  0.85150  0.21850  0.01630  1.0000
  C   C147      1.0  0.64850  0.71850  0.48370  1.0000
  C   C148      1.0  0.35150  0.71850  0.01630  1.0000
  C   C149      1.0  0.85150  0.78150  0.51630  1.0000
  C   C150      1.0  0.14850  0.78150  0.98370  1.0000
  C   C151      1.0  0.35150  0.28150  0.51630  1.0000
  C   C152      1.0  0.64850  0.28150  0.98370  1.0000
  C   C153      1.0  0.50910  0.21780  0.34850  1.0000
  C   C154      1.0  0.49090  0.21780  0.15150  1.0000
  C   C155      1.0  0.00910  0.71780  0.34850  1.0000
  C   C156      1.0  0.99090  0.71780  0.15150  1.0000
  C   C157      1.0  0.49090  0.78220  0.65150  1.0000
  C   C158      1.0  0.50910  0.78220  0.84850  1.0000
  C   C159      1.0  0.99090  0.28220  0.65150  1.0000
  C   C160      1.0  0.00910  0.28220  0.84850  1.0000
  C   C161      1.0  0.20800  0.25450  0.34210  1.0000
  C   C162      1.0  0.79200  0.25450  0.15790  1.0000
  C   C163      1.0  0.70800  0.75450  0.34210  1.0000
  C   C164      1.0  0.29200  0.75450  0.15790  1.0000
  C   C165      1.0  0.79200  0.74550  0.65790  1.0000
  C   C166      1.0  0.20800  0.74550  0.84210  1.0000
  C   C167      1.0  0.29200  0.24550  0.65790  1.0000
  C   C168      1.0  0.70800  0.24550  0.84210  1.0000
  H   H89       1.0  0.06830  0.25750  0.34900  1.0000
  H   H90       1.0  0.93170  0.25750  0.15100  1.0000
  H   H91       1.0  0.56830  0.75750  0.34900  1.0000
  H   H92       1.0  0.43170  0.75750  0.15100  1.0000
  H   H93       1.0  0.93170  0.74250  0.65100  1.0000
  H   H94       1.0  0.06830  0.74250  0.84900  1.0000
  H   H95       1.0  0.43170  0.24250  0.65100  1.0000
  H   H96       1.0  0.56830  0.24250  0.84900  1.0000
  C   C169      1.0  0.04240  0.18570  0.46480  1.0000
  C   C170      1.0  0.95760  0.18570  0.03520  1.0000
  C   C171      1.0  0.54240  0.68570  0.46480  1.0000
  C   C172      1.0  0.45760  0.68570  0.03520  1.0000
  C   C173      1.0  0.95760  0.81430  0.53520  1.0000
  C   C174      1.0  0.04240  0.81430  0.96480  1.0000
  C   C175      1.0  0.45760  0.31430  0.53520  1.0000
  C   C176      1.0  0.54240  0.31430  0.96480  1.0000
  C   C177      1.0  0.31600  0.92630  0.29760  1.0000
  C   C178      1.0  0.68400  0.92630  0.20240  1.0000
  C   C179      1.0  0.81600  0.42630  0.29760  1.0000
  C   C180      1.0  0.18400  0.42630  0.20240  1.0000
  C   C181      1.0  0.68400  0.07370  0.70240  1.0000
  C   C182      1.0  0.31600  0.07370  0.79760  1.0000
  C   C183      1.0  0.18400  0.57370  0.70240  1.0000
  C   C184      1.0  0.81600  0.57370  0.79760  1.0000
  C   C185      1.0  0.56470  0.03570  0.48330  1.0000
  C   C186      1.0  0.43530  0.03570  0.01670  1.0000
  C   C187      1.0  0.06470  0.53570  0.48330  1.0000
  C   C188      1.0  0.93530  0.53570  0.01670  1.0000
  C   C189      1.0  0.43530  0.96430  0.51670  1.0000
  C   C190      1.0  0.56470  0.96430  0.98330  1.0000
  C   C191      1.0  0.93530  0.46430  0.51670  1.0000
  C   C192      1.0  0.06470  0.46430  0.98330  1.0000
  Li  Li1       1.0  0.33200  0.12790  0.41730  1.0000
  Li  Li2       1.0  0.66800  0.12790  0.08270  1.0000
  Li  Li3       1.0  0.83200  0.62790  0.41730  1.0000
  Li  Li4       1.0  0.16800  0.62790  0.08270  1.0000
  Li  Li5       1.0  0.66800  0.87210  0.58270  1.0000
  Li  Li6       1.0  0.33200  0.87210  0.91730  1.0000
  Li  Li7       1.0  0.16800  0.37210  0.58270  1.0000
  Li  Li8       1.0  0.83200  0.37210  0.91730  1.0000
