data_image0
_chemical_formula_structural       C4H6C4H6O12H2O14H2O2H2O2H4P8Zn6
_chemical_formula_sum              "C8 H22 O30 P8 Zn6"
_cell_length_a       8.1301
_cell_length_b       11.6623
_cell_length_c       11.8071
_cell_angle_alpha    78.467
_cell_angle_beta     78.512
_cell_angle_gamma    84.936

_space_group_name_H-M_alt    "P 1"
_space_group_IT_number       1

loop_
  _space_group_symop_operation_xyz
  'x, y, z'

loop_
  _atom_site_type_symbol
  _atom_site_label
  _atom_site_symmetry_multiplicity
  _atom_site_fract_x
  _atom_site_fract_y
  _atom_site_fract_z
  _atom_site_occupancy
  C   C1        1.0  0.20110  0.69110  0.93800  1.0000
  C   C2        1.0  0.79890  0.30890  0.06200  1.0000
  C   C3        1.0  0.26780  0.61130  0.03710  1.0000
  C   C4        1.0  0.73220  0.38870  0.96290  1.0000
  H   H1        1.0  0.18772  0.61044  0.10893  1.0000
  H   H2        1.0  0.81228  0.38956  0.89107  1.0000
  H   H3        1.0  0.37185  0.63904  0.04518  1.0000
  H   H4        1.0  0.62815  0.36096  0.95482  1.0000
  H   H5        1.0  0.28660  0.53344  0.02044  1.0000
  H   H6        1.0  0.71340  0.46656  0.97956  1.0000
  C   C5        1.0  0.59560  0.13200  0.72060  1.0000
  C   C6        1.0  0.40440  0.86800  0.27940  1.0000
  C   C7        1.0  0.62890  0.25930  0.70990  1.0000
  C   C8        1.0  0.37110  0.74070  0.29010  1.0000
  H   H7        1.0  0.53070  0.29887  0.74728  1.0000
  H   H8        1.0  0.46930  0.70113  0.25272  1.0000
  H   H9        1.0  0.65567  0.29493  0.62828  1.0000
  H   H10       1.0  0.34433  0.70507  0.37172  1.0000
  H   H11       1.0  0.72162  0.26502  0.74737  1.0000
  H   H12       1.0  0.27838  0.73498  0.25263  1.0000
  O   O1        1.0  0.32940  0.88840  0.97010  1.0000
  O   O2        1.0  0.67060  0.11160  0.02990  1.0000
  O   O3        1.0  0.06660  0.91090  0.88040  1.0000
  O   O4        1.0  0.93340  0.08910  0.11960  1.0000
  O   O5        1.0  0.05360  0.82130  0.09340  1.0000
  O   O6        1.0  0.94640  0.17870  0.90660  1.0000
  O   O7        1.0  0.27100  0.73960  0.69650  1.0000
  O   O8        1.0  0.72900  0.26040  0.30350  1.0000
  O   O9        1.0  0.51110  0.73510  0.80780  1.0000
  O   O10       1.0  0.48890  0.26490  0.19220  1.0000
  O   O11       1.0  0.39460  0.54990  0.79930  1.0000
  O   O12       1.0  0.60540  0.45010  0.20070  1.0000
  H   H13       1.0  0.33266  0.49228  0.80566  1.0000
  H   H14       1.0  0.66734  0.50772  0.19434  1.0000
  O   O13       1.0  0.74780  0.92210  0.72250  1.0000
  O   O14       1.0  0.25220  0.07790  0.27750  1.0000
  O   O15       1.0  0.79100  0.06150  0.52550  1.0000
  O   O16       1.0  0.20900  0.93850  0.47450  1.0000
  O   O17       1.0  0.93380  0.09230  0.68260  1.0000
  O   O18       1.0  0.06620  0.90770  0.31740  1.0000
  O   O19       1.0  0.26020  0.16630  0.73040  1.0000
  O   O20       1.0  0.73980  0.83370  0.26960  1.0000
  O   O21       1.0  0.44490  0.16740  0.53060  1.0000
  O   O22       1.0  0.55510  0.83260  0.46940  1.0000
  O   O23       1.0  0.40200  0.97760  0.68210  1.0000
  O   O24       1.0  0.59800  0.02240  0.31790  1.0000
  O   O25       1.0  0.04360  0.64820  0.92950  1.0000
  O   O26       1.0  0.95640  0.35180  0.07050  1.0000
  H   H15       1.0  0.02582  0.67022  0.86242  1.0000
  H   H16       1.0  0.97418  0.32978  0.13758  1.0000
  O   O27       1.0  0.54930  0.07670  0.84450  1.0000
  O   O28       1.0  0.45070  0.92330  0.15550  1.0000
  H   H17       1.0  0.59504  0.08973  0.90868  1.0000
  H   H18       1.0  0.40496  0.91027  0.09132  1.0000
  O   O29       1.0  0.69990  0.84400  0.96900  1.0000
  O   O30       1.0  0.30010  0.15600  0.03100  1.0000
  H   H19       1.0  0.81758  0.83157  0.95783  1.0000
  H   H20       1.0  0.18242  0.16843  0.04217  1.0000
  H   H21       1.0  0.67918  0.84613  0.05067  1.0000
  H   H22       1.0  0.32082  0.15387  0.94933  1.0000
  P   P1        1.0  0.16164  0.83925  0.97141  1.0000
  P   P2        1.0  0.83836  0.16075  0.02859  1.0000
  P   P3        1.0  0.35139  0.68350  0.80061  1.0000
  P   P4        1.0  0.64861  0.31650  0.19939  1.0000
  P   P5        1.0  0.78159  0.04635  0.65647  1.0000
  P   P6        1.0  0.21841  0.95365  0.34353  1.0000
  P   P7        1.0  0.41333  0.11155  0.65945  1.0000
  P   P8        1.0  0.58667  0.88845  0.34055  1.0000
  Zn  Zn1       1.0  0.53831  0.88921  0.84580  1.0000
  Zn  Zn2       1.0  0.46169  0.11079  0.15420  1.0000
  Zn  Zn3       1.0  0.35632  0.87430  0.58279  1.0000
  Zn  Zn4       1.0  0.64368  0.12570  0.41721  1.0000
  Zn  Zn5       1.0  0.06306  0.07417  0.80465  1.0000
  Zn  Zn6       1.0  0.93694  0.92583  0.19535  1.0000
