data_image0
_chemical_formula_structural       Cd6Cl16N16C4H4C4H12
_chemical_formula_sum              "Cd6 Cl16 N16 C8 H16"
_cell_length_a       12.685
_cell_length_b       15.498
_cell_length_c       7.375
_cell_angle_alpha    90
_cell_angle_beta     97.12
_cell_angle_gamma    90

_space_group_name_H-M_alt    "P 1"
_space_group_IT_number       1

loop_
  _space_group_symop_operation_xyz
  'x, y, z'

loop_
  _atom_site_type_symbol
  _atom_site_label
  _atom_site_symmetry_multiplicity
  _atom_site_fract_x
  _atom_site_fract_y
  _atom_site_fract_z
  _atom_site_occupancy
  Cd  Cd1       1.0  0.72922  0.36225  0.60671  1.0000
  Cd  Cd2       1.0  0.27078  0.86225  0.89329  1.0000
  Cd  Cd3       1.0  0.27078  0.63775  0.39329  1.0000
  Cd  Cd4       1.0  0.72922  0.13775  0.10671  1.0000
  Cd  Cd5       1.0  0.50000  0.50000  0.50000  1.0000
  Cd  Cd6       1.0  0.50000  0.00000  0.00000  1.0000
  Cl  Cl1       1.0  0.65520  0.45547  0.31268  1.0000
  Cl  Cl2       1.0  0.34480  0.95547  0.18732  1.0000
  Cl  Cl3       1.0  0.34480  0.54453  0.68732  1.0000
  Cl  Cl4       1.0  0.65520  0.04453  0.81268  1.0000
  Cl  Cl5       1.0  0.78296  0.26723  0.89644  1.0000
  Cl  Cl6       1.0  0.21704  0.76723  0.60356  1.0000
  Cl  Cl7       1.0  0.21704  0.73277  0.10356  1.0000
  Cl  Cl8       1.0  0.78296  0.23277  0.39644  1.0000
  Cl  Cl9       1.0  0.63396  0.47886  0.79095  1.0000
  Cl  Cl10      1.0  0.36604  0.97886  0.70905  1.0000
  Cl  Cl11      1.0  0.36604  0.52114  0.20905  1.0000
  Cl  Cl12      1.0  0.63396  0.02114  0.29095  1.0000
  Cl  Cl13      1.0  0.91217  0.42626  0.62500  1.0000
  Cl  Cl14      1.0  0.08783  0.92626  0.87500  1.0000
  Cl  Cl15      1.0  0.08783  0.57374  0.37500  1.0000
  Cl  Cl16      1.0  0.91217  0.07374  0.12500  1.0000
  N   N1        1.0  0.55910  0.29780  0.55990  1.0000
  N   N2        1.0  0.44090  0.79780  0.94010  1.0000
  N   N3        1.0  0.44090  0.70220  0.44010  1.0000
  N   N4        1.0  0.55910  0.20220  0.05990  1.0000
  N   N5        1.0  0.47090  0.34740  0.50150  1.0000
  N   N6        1.0  0.52910  0.84740  0.99850  1.0000
  N   N7        1.0  0.52910  0.65260  0.49850  1.0000
  N   N8        1.0  0.47090  0.15260  0.00150  1.0000
  N   N9        1.0  0.43030  0.21300  0.45730  1.0000
  N   N10       1.0  0.56970  0.71300  0.04270  1.0000
  N   N11       1.0  0.56970  0.78700  0.54270  1.0000
  N   N12       1.0  0.43030  0.28700  0.95730  1.0000
  N   N13       1.0  0.37040  0.13900  0.39520  1.0000
  N   N14       1.0  0.62960  0.63900  0.10480  1.0000
  N   N15       1.0  0.62960  0.86100  0.60480  1.0000
  N   N16       1.0  0.37040  0.36100  0.89520  1.0000
  C   C1        1.0  0.53140  0.21720  0.53260  1.0000
  C   C2        1.0  0.46860  0.71720  0.96740  1.0000
  C   C3        1.0  0.46860  0.78280  0.46740  1.0000
  C   C4        1.0  0.53140  0.28280  0.03260  1.0000
  H   H1        1.0  0.57550  0.16990  0.56130  1.0000
  H   H2        1.0  0.42450  0.66990  0.93870  1.0000
  H   H3        1.0  0.42450  0.83010  0.43870  1.0000
  H   H4        1.0  0.57550  0.33010  0.06130  1.0000
  C   C5        1.0  0.39530  0.29490  0.43920  1.0000
  C   C6        1.0  0.60470  0.79490  0.06080  1.0000
  C   C7        1.0  0.60470  0.70510  0.56080  1.0000
  C   C8        1.0  0.39530  0.20510  0.93920  1.0000
  H   H5        1.0  0.32730  0.31140  0.38950  1.0000
  H   H6        1.0  0.67270  0.81140  0.11050  1.0000
  H   H7        1.0  0.67270  0.68860  0.61050  1.0000
  H   H8        1.0  0.32730  0.18860  0.88950  1.0000
  H   H9        1.0  0.42980  0.09770  0.36120  1.0000
  H   H10       1.0  0.57020  0.59770  0.13880  1.0000
  H   H11       1.0  0.57020  0.90230  0.63880  1.0000
  H   H12       1.0  0.42980  0.40230  0.86120  1.0000
  H   H13       1.0  0.35000  0.12000  0.51600  1.0000
  H   H14       1.0  0.65000  0.62000  0.98400  1.0000
  H   H15       1.0  0.65000  0.88000  0.48400  1.0000
  H   H16       1.0  0.35000  0.38000  0.01600  1.0000
