data_image0
_chemical_formula_structural       Sn8Br4Se4O16C8H4C4H4C4H4C4H4C4H4C8H4C4H4C4H4C4H4C4H4C8H4C4H4C4H4C4H4C4H4C8H4C4H4C4H4C4H4C4H4C8H4C4H4C4H4C4H4C4H4C8H4C4H4C4H4C4H4C4H4
_chemical_formula_sum              "Sn8 Br4 Se4 O16 C144 H120"
_cell_length_a       13.9434
_cell_length_b       11.9926
_cell_length_c       31.732
_cell_angle_alpha    90
_cell_angle_beta     91.438
_cell_angle_gamma    90

_space_group_name_H-M_alt    "P 1"
_space_group_IT_number       1

loop_
  _space_group_symop_operation_xyz
  'x, y, z'

loop_
  _atom_site_type_symbol
  _atom_site_label
  _atom_site_symmetry_multiplicity
  _atom_site_fract_x
  _atom_site_fract_y
  _atom_site_fract_z
  _atom_site_occupancy
  Sn  Sn1       1.0  0.26126  0.08377  0.24482  1.0000
  Sn  Sn2       1.0  0.76126  0.41623  0.74482  1.0000
  Sn  Sn3       1.0  0.73874  0.91623  0.75518  1.0000
  Sn  Sn4       1.0  0.23874  0.58377  0.25518  1.0000
  Sn  Sn5       1.0  0.54436  0.32811  0.13136  1.0000
  Sn  Sn6       1.0  0.04436  0.17189  0.63136  1.0000
  Sn  Sn7       1.0  0.45564  0.67189  0.86864  1.0000
  Sn  Sn8       1.0  0.95564  0.82811  0.36864  1.0000
  Br  Br1       1.0  0.70338  0.28558  0.08736  1.0000
  Br  Br2       1.0  0.20338  0.21442  0.58736  1.0000
  Br  Br3       1.0  0.29662  0.71442  0.91264  1.0000
  Br  Br4       1.0  0.79662  0.78558  0.41264  1.0000
  Se  Se1       1.0  0.31469  0.35157  0.19118  1.0000
  Se  Se2       1.0  0.81469  0.14843  0.69118  1.0000
  Se  Se3       1.0  0.68531  0.64843  0.80882  1.0000
  Se  Se4       1.0  0.18531  0.85157  0.30882  1.0000
  O   O1        1.0  0.33530  0.22810  0.21174  1.0000
  O   O2        1.0  0.83530  0.27190  0.71174  1.0000
  O   O3        1.0  0.66470  0.77190  0.78826  1.0000
  O   O4        1.0  0.16470  0.72810  0.28826  1.0000
  O   O5        1.0  0.40420  0.38010  0.16091  1.0000
  O   O6        1.0  0.90420  0.11990  0.66091  1.0000
  O   O7        1.0  0.59580  0.61990  0.83909  1.0000
  O   O8        1.0  0.09580  0.88010  0.33909  1.0000
  O   O9        1.0  0.32130  0.44160  0.23021  1.0000
  O   O10       1.0  0.82130  0.05840  0.73021  1.0000
  O   O11       1.0  0.67870  0.55840  0.76979  1.0000
  O   O12       1.0  0.17870  0.94160  0.26979  1.0000
  O   O13       1.0  0.21440  0.36240  0.16569  1.0000
  O   O14       1.0  0.71440  0.13760  0.66569  1.0000
  O   O15       1.0  0.78560  0.63760  0.83431  1.0000
  O   O16       1.0  0.28560  0.86240  0.33431  1.0000
  C   C1        1.0  0.27270  0.16870  0.30383  1.0000
  C   C2        1.0  0.77270  0.33130  0.80383  1.0000
  C   C3        1.0  0.72730  0.83130  0.69617  1.0000
  C   C4        1.0  0.22730  0.66870  0.19617  1.0000
  C   C5        1.0  0.21240  0.14710  0.33679  1.0000
  C   C6        1.0  0.71240  0.35290  0.83679  1.0000
  C   C7        1.0  0.78760  0.85290  0.66321  1.0000
  C   C8        1.0  0.28760  0.64710  0.16321  1.0000
  H   H1        1.0  0.16450  0.09350  0.33360  1.0000
  H   H2        1.0  0.66450  0.40650  0.83360  1.0000
  H   H3        1.0  0.83550  0.90650  0.66640  1.0000
  H   H4        1.0  0.33550  0.59350  0.16640  1.0000
  C   C9        1.0  0.22260  0.20410  0.37430  1.0000
  C   C10       1.0  0.72260  0.29590  0.87430  1.0000
  C   C11       1.0  0.77740  0.79590  0.62570  1.0000
  C   C12       1.0  0.27740  0.70410  0.12570  1.0000
  H   H5        1.0  0.18070  0.18970  0.39600  1.0000
  H   H6        1.0  0.68070  0.31030  0.89600  1.0000
  H   H7        1.0  0.81930  0.81030  0.60400  1.0000
  H   H8        1.0  0.31930  0.68970  0.10400  1.0000
  C   C13       1.0  0.29360  0.28140  0.37996  1.0000
  C   C14       1.0  0.79360  0.21860  0.87996  1.0000
  C   C15       1.0  0.70640  0.71860  0.62004  1.0000
  C   C16       1.0  0.20640  0.78140  0.12004  1.0000
  H   H9        1.0  0.29970  0.31950  0.40540  1.0000
  H   H10       1.0  0.79970  0.18050  0.90540  1.0000
  H   H11       1.0  0.70030  0.68050  0.59460  1.0000
  H   H12       1.0  0.20030  0.81950  0.09460  1.0000
  C   C17       1.0  0.35640  0.30310  0.34821  1.0000
  C   C18       1.0  0.85640  0.19690  0.84821  1.0000
  C   C19       1.0  0.64360  0.69690  0.65179  1.0000
  C   C20       1.0  0.14360  0.80310  0.15179  1.0000
  H   H13       1.0  0.40550  0.35480  0.35220  1.0000
  H   H14       1.0  0.90550  0.14520  0.85220  1.0000
  H   H15       1.0  0.59450  0.64520  0.64780  1.0000
  H   H16       1.0  0.09450  0.85480  0.14780  1.0000
  C   C21       1.0  0.34550  0.24740  0.31040  1.0000
  C   C22       1.0  0.84550  0.25260  0.81040  1.0000
  C   C23       1.0  0.65450  0.75260  0.68960  1.0000
  C   C24       1.0  0.15450  0.74740  0.18960  1.0000
  H   H17       1.0  0.38750  0.26250  0.28880  1.0000
  H   H18       1.0  0.88750  0.23750  0.78880  1.0000
  H   H19       1.0  0.61250  0.73750  0.71120  1.0000
  H   H20       1.0  0.11250  0.76250  0.21120  1.0000
  C   C25       1.0  0.38680  0.99030  0.23188  1.0000
  C   C26       1.0  0.88680  0.50970  0.73188  1.0000
  C   C27       1.0  0.61320  0.00970  0.76812  1.0000
  C   C28       1.0  0.11320  0.49030  0.26812  1.0000
  C   C29       1.0  0.47730  0.03440  0.24030  1.0000
  C   C30       1.0  0.97730  0.46560  0.74030  1.0000
  C   C31       1.0  0.52270  0.96560  0.75970  1.0000
  C   C32       1.0  0.02270  0.53440  0.25970  1.0000
  H   H21       1.0  0.48300  0.10710  0.25030  1.0000
  H   H22       1.0  0.98300  0.39290  0.75030  1.0000
  H   H23       1.0  0.51700  0.89290  0.74970  1.0000
  H   H24       1.0  0.01700  0.60710  0.24970  1.0000
  C   C33       1.0  0.55960  0.97170  0.23400  1.0000
  C   C34       1.0  0.05960  0.52830  0.73400  1.0000
  C   C35       1.0  0.44040  0.02830  0.76600  1.0000
  C   C36       1.0  0.94040  0.47170  0.26600  1.0000
  H   H25       1.0  0.61980  0.00200  0.24010  1.0000
  H   H26       1.0  0.11980  0.49800  0.74010  1.0000
  H   H27       1.0  0.38020  0.99800  0.75990  1.0000
  H   H28       1.0  0.88020  0.50200  0.25990  1.0000
  C   C37       1.0  0.55160  0.86580  0.21900  1.0000
  C   C38       1.0  0.05160  0.63420  0.71900  1.0000
  C   C39       1.0  0.44840  0.13420  0.78100  1.0000
  C   C40       1.0  0.94840  0.36580  0.28100  1.0000
  H   H29       1.0  0.60610  0.82400  0.21370  1.0000
  H   H30       1.0  0.10610  0.67600  0.71370  1.0000
  H   H31       1.0  0.39390  0.17600  0.78630  1.0000
  H   H32       1.0  0.89390  0.32400  0.28630  1.0000
  C   C41       1.0  0.46350  0.82250  0.21190  1.0000
  C   C42       1.0  0.96350  0.67750  0.71190  1.0000
  C   C43       1.0  0.53650  0.17750  0.78810  1.0000
  C   C44       1.0  0.03650  0.32250  0.28810  1.0000
  H   H33       1.0  0.45770  0.74920  0.20270  1.0000
  H   H34       1.0  0.95770  0.75080  0.70270  1.0000
  H   H35       1.0  0.54230  0.25080  0.79730  1.0000
  H   H36       1.0  0.04230  0.24920  0.29730  1.0000
  C   C45       1.0  0.38160  0.88460  0.21800  1.0000
  C   C46       1.0  0.88160  0.61540  0.71800  1.0000
  C   C47       1.0  0.61840  0.11540  0.78200  1.0000
  C   C48       1.0  0.11840  0.38460  0.28200  1.0000
  H   H37       1.0  0.32180  0.85270  0.21250  1.0000
  H   H38       1.0  0.82180  0.64730  0.71250  1.0000
  H   H39       1.0  0.67820  0.14730  0.78750  1.0000
  H   H40       1.0  0.17820  0.35270  0.28750  1.0000
  C   C49       1.0  0.14290  0.09590  0.20053  1.0000
  C   C50       1.0  0.64290  0.40410  0.70053  1.0000
  C   C51       1.0  0.85710  0.90410  0.79947  1.0000
  C   C52       1.0  0.35710  0.59590  0.29947  1.0000
  C   C53       1.0  0.15900  0.11280  0.15866  1.0000
  C   C54       1.0  0.65900  0.38720  0.65866  1.0000
  C   C55       1.0  0.84100  0.88720  0.84134  1.0000
  C   C56       1.0  0.34100  0.61280  0.34134  1.0000
  H   H41       1.0  0.22150  0.11810  0.14930  1.0000
  H   H42       1.0  0.72150  0.38190  0.64930  1.0000
  H   H43       1.0  0.77850  0.88190  0.85070  1.0000
  H   H44       1.0  0.27850  0.61810  0.35070  1.0000
  C   C57       1.0  0.08190  0.12220  0.12980  1.0000
  C   C58       1.0  0.58190  0.37780  0.62980  1.0000
  C   C59       1.0  0.91810  0.87780  0.87020  1.0000
  C   C60       1.0  0.41810  0.62220  0.37020  1.0000
  H   H45       1.0  0.09360  0.13380  0.10140  1.0000
  H   H46       1.0  0.59360  0.36620  0.60140  1.0000
  H   H47       1.0  0.90640  0.86620  0.89860  1.0000
  H   H48       1.0  0.40640  0.63380  0.39860  1.0000
  C   C61       1.0  0.99330  0.11470  0.14230  1.0000
  C   C62       1.0  0.49330  0.38530  0.64230  1.0000
  C   C63       1.0  0.00670  0.88530  0.85770  1.0000
  C   C64       1.0  0.50670  0.61470  0.35770  1.0000
  H   H49       1.0  0.94280  0.12410  0.12290  1.0000
  H   H50       1.0  0.44280  0.37590  0.62290  1.0000
  H   H51       1.0  0.05720  0.87590  0.87710  1.0000
  H   H52       1.0  0.55720  0.62410  0.37710  1.0000
  C   C65       1.0  0.97410  0.09300  0.18400  1.0000
  C   C66       1.0  0.47410  0.40700  0.68400  1.0000
  C   C67       1.0  0.02590  0.90700  0.81600  1.0000
  C   C68       1.0  0.52590  0.59300  0.31600  1.0000
  H   H53       1.0  0.91130  0.08460  0.19260  1.0000
  H   H54       1.0  0.41130  0.41540  0.69260  1.0000
  H   H55       1.0  0.08870  0.91540  0.80740  1.0000
  H   H56       1.0  0.58870  0.58460  0.30740  1.0000
  C   C69       1.0  0.05090  0.08400  0.21320  1.0000
  C   C70       1.0  0.55090  0.41600  0.71320  1.0000
  C   C71       1.0  0.94910  0.91600  0.78680  1.0000
  C   C72       1.0  0.44910  0.58400  0.28680  1.0000
  H   H57       1.0  0.03900  0.06970  0.24130  1.0000
  H   H58       1.0  0.53900  0.43030  0.74130  1.0000
  H   H59       1.0  0.96100  0.93030  0.75870  1.0000
  H   H60       1.0  0.46100  0.56970  0.25870  1.0000
  C   C73       1.0  0.47370  0.19180  0.10040  1.0000
  C   C74       1.0  0.97370  0.30820  0.60040  1.0000
  C   C75       1.0  0.52630  0.80820  0.89960  1.0000
  C   C76       1.0  0.02630  0.69180  0.39960  1.0000
  C   C77       1.0  0.47510  0.17930  0.05703  1.0000
  C   C78       1.0  0.97510  0.32070  0.55703  1.0000
  C   C79       1.0  0.52490  0.82070  0.94297  1.0000
  C   C80       1.0  0.02490  0.67930  0.44297  1.0000
  H   H61       1.0  0.50500  0.23280  0.04070  1.0000
  H   H62       1.0  0.00500  0.26720  0.54070  1.0000
  H   H63       1.0  0.49500  0.76720  0.95930  1.0000
  H   H64       1.0  0.99500  0.73280  0.45930  1.0000
  C   C81       1.0  0.43240  0.08830  0.03780  1.0000
  C   C82       1.0  0.93240  0.41170  0.53780  1.0000
  C   C83       1.0  0.56760  0.91170  0.96220  1.0000
  C   C84       1.0  0.06760  0.58830  0.46220  1.0000
  H   H65       1.0  0.43220  0.08160  0.00860  1.0000
  H   H66       1.0  0.93220  0.41840  0.50860  1.0000
  H   H67       1.0  0.56780  0.91840  0.99140  1.0000
  H   H68       1.0  0.06780  0.58160  0.49140  1.0000
  C   C85       1.0  0.39110  0.00910  0.06140  1.0000
  C   C86       1.0  0.89110  0.49090  0.56140  1.0000
  C   C87       1.0  0.60890  0.99090  0.93860  1.0000
  C   C88       1.0  0.10890  0.50910  0.43860  1.0000
  H   H69       1.0  0.36230  0.94790  0.04830  1.0000
  H   H70       1.0  0.86230  0.55210  0.54830  1.0000
  H   H71       1.0  0.63770  0.05210  0.95170  1.0000
  H   H72       1.0  0.13770  0.44790  0.45170  1.0000
  C   C89       1.0  0.39100  0.01740  0.10430  1.0000
  C   C90       1.0  0.89100  0.48260  0.60430  1.0000
  C   C91       1.0  0.60900  0.98260  0.89570  1.0000
  C   C92       1.0  0.10900  0.51740  0.39570  1.0000
  H   H73       1.0  0.36340  0.96170  0.12040  1.0000
  H   H74       1.0  0.86340  0.53830  0.62040  1.0000
  H   H75       1.0  0.63660  0.03830  0.87960  1.0000
  H   H76       1.0  0.13660  0.46170  0.37960  1.0000
  C   C93       1.0  0.43240  0.11000  0.12364  1.0000
  C   C94       1.0  0.93240  0.39000  0.62364  1.0000
  C   C95       1.0  0.56760  0.89000  0.87636  1.0000
  C   C96       1.0  0.06760  0.61000  0.37636  1.0000
  H   H77       1.0  0.43200  0.11640  0.15280  1.0000
  H   H78       1.0  0.93200  0.38360  0.65280  1.0000
  H   H79       1.0  0.56800  0.88360  0.84720  1.0000
  H   H80       1.0  0.06800  0.61640  0.34720  1.0000
  C   C97       1.0  0.61050  0.29760  0.19174  1.0000
  C   C98       1.0  0.11050  0.20240  0.69174  1.0000
  C   C99       1.0  0.38950  0.70240  0.80826  1.0000
  C   C100      1.0  0.88950  0.79760  0.30826  1.0000
  C   C101      1.0  0.56910  0.33580  0.22790  1.0000
  C   C102      1.0  0.06910  0.16420  0.72790  1.0000
  C   C103      1.0  0.43090  0.66420  0.77210  1.0000
  C   C104      1.0  0.93090  0.83580  0.27210  1.0000
  H   H81       1.0  0.51430  0.37990  0.22610  1.0000
  H   H82       1.0  0.01430  0.12010  0.72610  1.0000
  H   H83       1.0  0.48570  0.62010  0.77390  1.0000
  H   H84       1.0  0.98570  0.87990  0.27390  1.0000
  C   C105      1.0  0.60920  0.30850  0.26750  1.0000
  C   C106      1.0  0.10920  0.19150  0.76750  1.0000
  C   C107      1.0  0.39080  0.69150  0.73250  1.0000
  C   C108      1.0  0.89080  0.80850  0.23250  1.0000
  H   H85       1.0  0.58080  0.33430  0.29190  1.0000
  H   H86       1.0  0.08080  0.16570  0.79190  1.0000
  H   H87       1.0  0.41920  0.66570  0.70810  1.0000
  H   H88       1.0  0.91920  0.83430  0.20810  1.0000
  C   C109      1.0  0.68970  0.24430  0.27050  1.0000
  C   C110      1.0  0.18970  0.25570  0.77050  1.0000
  C   C111      1.0  0.31030  0.75570  0.72950  1.0000
  C   C112      1.0  0.81030  0.74430  0.22950  1.0000
  H   H89       1.0  0.71500  0.22440  0.29680  1.0000
  H   H90       1.0  0.21500  0.27560  0.79680  1.0000
  H   H91       1.0  0.28500  0.77560  0.70320  1.0000
  H   H92       1.0  0.78500  0.72440  0.20320  1.0000
  C   C113      1.0  0.73310  0.20950  0.23500  1.0000
  C   C114      1.0  0.23310  0.29050  0.73500  1.0000
  C   C115      1.0  0.26690  0.79050  0.76500  1.0000
  C   C116      1.0  0.76690  0.70950  0.26500  1.0000
  H   H93       1.0  0.78930  0.16800  0.23700  1.0000
  H   H94       1.0  0.28930  0.33200  0.73700  1.0000
  H   H95       1.0  0.21070  0.83200  0.76300  1.0000
  H   H96       1.0  0.71070  0.66800  0.26300  1.0000
  C   C117      1.0  0.69410  0.23560  0.19610  1.0000
  C   C118      1.0  0.19410  0.26440  0.69610  1.0000
  C   C119      1.0  0.30590  0.76440  0.80390  1.0000
  C   C120      1.0  0.80590  0.73560  0.30390  1.0000
  H   H97       1.0  0.72450  0.21110  0.17210  1.0000
  H   H98       1.0  0.22450  0.28890  0.67210  1.0000
  H   H99       1.0  0.27550  0.78890  0.82790  1.0000
  H   H100      1.0  0.77550  0.71110  0.32790  1.0000
  C   C121      1.0  0.54030  0.49330  0.10648  1.0000
  C   C122      1.0  0.04030  0.00670  0.60648  1.0000
  C   C123      1.0  0.45970  0.50670  0.89352  1.0000
  C   C124      1.0  0.95970  0.99330  0.39352  1.0000
  C   C125      1.0  0.54820  0.58270  0.13090  1.0000
  C   C126      1.0  0.04820  0.91730  0.63090  1.0000
  C   C127      1.0  0.45180  0.41730  0.86910  1.0000
  C   C128      1.0  0.95180  0.08270  0.36910  1.0000
  H   H101      1.0  0.55340  0.57330  0.15990  1.0000
  H   H102      1.0  0.05340  0.92670  0.65990  1.0000
  H   H103      1.0  0.44660  0.42670  0.84010  1.0000
  H   H104      1.0  0.94660  0.07330  0.34010  1.0000
  C   C129      1.0  0.54890  0.69070  0.11440  1.0000
  C   C130      1.0  0.04890  0.80930  0.61440  1.0000
  C   C131      1.0  0.45110  0.30930  0.88560  1.0000
  C   C132      1.0  0.95110  0.19070  0.38560  1.0000
  H   H105      1.0  0.55830  0.75150  0.13220  1.0000
  H   H106      1.0  0.05830  0.74850  0.63220  1.0000
  H   H107      1.0  0.44170  0.24850  0.86780  1.0000
  H   H108      1.0  0.94170  0.25150  0.36780  1.0000
  C   C133      1.0  0.53580  0.70650  0.07250  1.0000
  C   C134      1.0  0.03580  0.79350  0.57250  1.0000
  C   C135      1.0  0.46420  0.29350  0.92750  1.0000
  C   C136      1.0  0.96420  0.20650  0.42750  1.0000
  H   H109      1.0  0.53100  0.77790  0.06120  1.0000
  H   H110      1.0  0.03100  0.72210  0.56120  1.0000
  H   H111      1.0  0.46900  0.22210  0.93880  1.0000
  H   H112      1.0  0.96900  0.27790  0.43880  1.0000
  C   C137      1.0  0.53400  0.51340  0.06540  1.0000
  C   C138      1.0  0.03400  0.98660  0.56540  1.0000
  C   C139      1.0  0.46600  0.48660  0.93460  1.0000
  C   C140      1.0  0.96600  0.01340  0.43460  1.0000
  H   H113      1.0  0.53200  0.45280  0.04720  1.0000
  H   H114      1.0  0.03200  0.04720  0.54720  1.0000
  H   H115      1.0  0.46800  0.54720  0.95280  1.0000
  H   H116      1.0  0.96800  0.95280  0.45280  1.0000
  C   C141      1.0  0.53010  0.61820  0.04830  1.0000
  C   C142      1.0  0.03010  0.88180  0.54830  1.0000
  C   C143      1.0  0.46990  0.38180  0.95170  1.0000
  C   C144      1.0  0.96990  0.11820  0.45170  1.0000
  H   H117      1.0  0.52330  0.62660  0.01930  1.0000
  H   H118      1.0  0.02330  0.87340  0.51930  1.0000
  H   H119      1.0  0.47670  0.37340  0.98070  1.0000
  H   H120      1.0  0.97670  0.12660  0.48070  1.0000
