data_image0
_chemical_formula_structural       Sn8Se4Cl4O16C8H4C4H4C4H4C4H4C4H4C8H4C4H4C4H4C4H4C4H4C8H4C4H4C4H4C4H4C4H4C8H4C4H4C4H4C4H4C4H4C8H4C4H4C4H4C4H4C4H4C8H4C4H4C4H4C4H4C4H4
_chemical_formula_sum              "Sn8 Se4 Cl4 O16 C144 H120"
_cell_length_a       13.851
_cell_length_b       11.9611
_cell_length_c       31.689
_cell_angle_alpha    90
_cell_angle_beta     91.124
_cell_angle_gamma    90

_space_group_name_H-M_alt    "P 1"
_space_group_IT_number       1

loop_
  _space_group_symop_operation_xyz
  'x, y, z'

loop_
  _atom_site_type_symbol
  _atom_site_label
  _atom_site_symmetry_multiplicity
  _atom_site_fract_x
  _atom_site_fract_y
  _atom_site_fract_z
  _atom_site_occupancy
  Sn  Sn1       1.0  0.26170  0.08716  0.24526  1.0000
  Sn  Sn2       1.0  0.76170  0.41284  0.74526  1.0000
  Sn  Sn3       1.0  0.73830  0.91284  0.75474  1.0000
  Sn  Sn4       1.0  0.23830  0.58716  0.25474  1.0000
  Sn  Sn5       1.0  0.55180  0.32888  0.13220  1.0000
  Sn  Sn6       1.0  0.05180  0.17112  0.63220  1.0000
  Sn  Sn7       1.0  0.44820  0.67112  0.86780  1.0000
  Sn  Sn8       1.0  0.94820  0.82888  0.36780  1.0000
  Se  Se1       1.0  0.31751  0.35476  0.19139  1.0000
  Se  Se2       1.0  0.81751  0.14524  0.69139  1.0000
  Se  Se3       1.0  0.68249  0.64524  0.80861  1.0000
  Se  Se4       1.0  0.18249  0.85476  0.30861  1.0000
  Cl  Cl1       1.0  0.70370  0.28660  0.09195  1.0000
  Cl  Cl2       1.0  0.20370  0.21340  0.59195  1.0000
  Cl  Cl3       1.0  0.29630  0.71340  0.90805  1.0000
  Cl  Cl4       1.0  0.79630  0.78660  0.40805  1.0000
  O   O1        1.0  0.33870  0.23010  0.21250  1.0000
  O   O2        1.0  0.83870  0.26990  0.71250  1.0000
  O   O3        1.0  0.66130  0.76990  0.78750  1.0000
  O   O4        1.0  0.16130  0.73010  0.28750  1.0000
  O   O5        1.0  0.40720  0.38220  0.16150  1.0000
  O   O6        1.0  0.90720  0.11780  0.66150  1.0000
  O   O7        1.0  0.59280  0.61780  0.83850  1.0000
  O   O8        1.0  0.09280  0.88220  0.33850  1.0000
  O   O9        1.0  0.32380  0.44660  0.23010  1.0000
  O   O10       1.0  0.82380  0.05340  0.73010  1.0000
  O   O11       1.0  0.67620  0.55340  0.76990  1.0000
  O   O12       1.0  0.17620  0.94660  0.26990  1.0000
  O   O13       1.0  0.21890  0.36410  0.16560  1.0000
  O   O14       1.0  0.71890  0.13590  0.66560  1.0000
  O   O15       1.0  0.78110  0.63590  0.83440  1.0000
  O   O16       1.0  0.28110  0.86410  0.33440  1.0000
  C   C1        1.0  0.27330  0.17180  0.30370  1.0000
  C   C2        1.0  0.77330  0.32820  0.80370  1.0000
  C   C3        1.0  0.72670  0.82820  0.69630  1.0000
  C   C4        1.0  0.22670  0.67180  0.19630  1.0000
  C   C5        1.0  0.21160  0.14920  0.33740  1.0000
  C   C6        1.0  0.71160  0.35080  0.83740  1.0000
  C   C7        1.0  0.78840  0.85080  0.66260  1.0000
  C   C8        1.0  0.28840  0.64920  0.16260  1.0000
  H   H1        1.0  0.16370  0.09520  0.33440  1.0000
  H   H2        1.0  0.66370  0.40480  0.83440  1.0000
  H   H3        1.0  0.83630  0.90480  0.66560  1.0000
  H   H4        1.0  0.33630  0.59520  0.16560  1.0000
  C   C9        1.0  0.22210  0.20710  0.37500  1.0000
  C   C10       1.0  0.72210  0.29290  0.87500  1.0000
  C   C11       1.0  0.77790  0.79290  0.62500  1.0000
  C   C12       1.0  0.27790  0.70710  0.12500  1.0000
  H   H5        1.0  0.17840  0.19370  0.39630  1.0000
  H   H6        1.0  0.67840  0.30630  0.89630  1.0000
  H   H7        1.0  0.82160  0.80630  0.60370  1.0000
  H   H8        1.0  0.32160  0.69370  0.10370  1.0000
  C   C13       1.0  0.29570  0.28460  0.38190  1.0000
  C   C14       1.0  0.79570  0.21540  0.88190  1.0000
  C   C15       1.0  0.70430  0.71540  0.61810  1.0000
  C   C16       1.0  0.20430  0.78460  0.11810  1.0000
  H   H9        1.0  0.30380  0.32090  0.40770  1.0000
  H   H10       1.0  0.80380  0.17910  0.90770  1.0000
  H   H11       1.0  0.69620  0.67910  0.59230  1.0000
  H   H12       1.0  0.19620  0.82090  0.09230  1.0000
  C   C17       1.0  0.35540  0.30450  0.34890  1.0000
  C   C18       1.0  0.85540  0.19550  0.84890  1.0000
  C   C19       1.0  0.64460  0.69550  0.65110  1.0000
  C   C20       1.0  0.14460  0.80450  0.15110  1.0000
  H   H13       1.0  0.40440  0.35690  0.35260  1.0000
  H   H14       1.0  0.90440  0.14310  0.85260  1.0000
  H   H15       1.0  0.59560  0.64310  0.64740  1.0000
  H   H16       1.0  0.09560  0.85690  0.14740  1.0000
  C   C21       1.0  0.34690  0.25090  0.31030  1.0000
  C   C22       1.0  0.84690  0.24910  0.81030  1.0000
  C   C23       1.0  0.65310  0.74910  0.68970  1.0000
  C   C24       1.0  0.15310  0.75090  0.18970  1.0000
  H   H17       1.0  0.38970  0.26720  0.28890  1.0000
  H   H18       1.0  0.88970  0.23280  0.78890  1.0000
  H   H19       1.0  0.61030  0.73280  0.71110  1.0000
  H   H20       1.0  0.11030  0.76720  0.21110  1.0000
  C   C25       1.0  0.38780  0.99190  0.23260  1.0000
  C   C26       1.0  0.88780  0.50810  0.73260  1.0000
  C   C27       1.0  0.61220  0.00810  0.76740  1.0000
  C   C28       1.0  0.11220  0.49190  0.26740  1.0000
  C   C29       1.0  0.47730  0.02940  0.24070  1.0000
  C   C30       1.0  0.97730  0.47060  0.74070  1.0000
  C   C31       1.0  0.52270  0.97060  0.75930  1.0000
  C   C32       1.0  0.02270  0.52940  0.25930  1.0000
  H   H21       1.0  0.48360  0.10150  0.25140  1.0000
  H   H22       1.0  0.98360  0.39850  0.75140  1.0000
  H   H23       1.0  0.51640  0.89850  0.74860  1.0000
  H   H24       1.0  0.01640  0.60150  0.24860  1.0000
  C   C33       1.0  0.55800  0.97160  0.23470  1.0000
  C   C34       1.0  0.05800  0.52840  0.73470  1.0000
  C   C35       1.0  0.44200  0.02840  0.76530  1.0000
  C   C36       1.0  0.94200  0.47160  0.26530  1.0000
  H   H25       1.0  0.61800  0.00360  0.24060  1.0000
  H   H26       1.0  0.11800  0.49640  0.74060  1.0000
  H   H27       1.0  0.38200  0.99640  0.75940  1.0000
  H   H28       1.0  0.88200  0.50360  0.25940  1.0000
  C   C37       1.0  0.55180  0.86800  0.22020  1.0000
  C   C38       1.0  0.05180  0.63200  0.72020  1.0000
  C   C39       1.0  0.44820  0.13200  0.77980  1.0000
  C   C40       1.0  0.94820  0.36800  0.27980  1.0000
  H   H29       1.0  0.60750  0.82560  0.21720  1.0000
  H   H30       1.0  0.10750  0.67440  0.71720  1.0000
  H   H31       1.0  0.39250  0.17440  0.78280  1.0000
  H   H32       1.0  0.89250  0.32560  0.28280  1.0000
  C   C41       1.0  0.46470  0.82340  0.20950  1.0000
  C   C42       1.0  0.96470  0.67660  0.70950  1.0000
  C   C43       1.0  0.53530  0.17660  0.79050  1.0000
  C   C44       1.0  0.03530  0.32340  0.29050  1.0000
  H   H33       1.0  0.45990  0.75280  0.19740  1.0000
  H   H34       1.0  0.95990  0.74720  0.69740  1.0000
  H   H35       1.0  0.54010  0.24720  0.80260  1.0000
  H   H36       1.0  0.04010  0.25280  0.30260  1.0000
  C   C45       1.0  0.38230  0.88760  0.21740  1.0000
  C   C46       1.0  0.88230  0.61240  0.71740  1.0000
  C   C47       1.0  0.61770  0.11240  0.78260  1.0000
  C   C48       1.0  0.11770  0.38760  0.28260  1.0000
  H   H37       1.0  0.32170  0.85670  0.21180  1.0000
  H   H38       1.0  0.82170  0.64330  0.71180  1.0000
  H   H39       1.0  0.67830  0.14330  0.78820  1.0000
  H   H40       1.0  0.17830  0.35670  0.28820  1.0000
  C   C49       1.0  0.14560  0.09860  0.20040  1.0000
  C   C50       1.0  0.64560  0.40140  0.70040  1.0000
  C   C51       1.0  0.85440  0.90140  0.79960  1.0000
  C   C52       1.0  0.35440  0.59860  0.29960  1.0000
  C   C53       1.0  0.16230  0.11440  0.15840  1.0000
  C   C54       1.0  0.66230  0.38560  0.65840  1.0000
  C   C55       1.0  0.83770  0.88560  0.84160  1.0000
  C   C56       1.0  0.33770  0.61440  0.34160  1.0000
  H   H41       1.0  0.22570  0.12090  0.14960  1.0000
  H   H42       1.0  0.72570  0.37910  0.64960  1.0000
  H   H43       1.0  0.77430  0.87910  0.85040  1.0000
  H   H44       1.0  0.27430  0.62090  0.35040  1.0000
  C   C57       1.0  0.08840  0.12080  0.12880  1.0000
  C   C58       1.0  0.58840  0.37920  0.62880  1.0000
  C   C59       1.0  0.91160  0.87920  0.87120  1.0000
  C   C60       1.0  0.41160  0.62080  0.37120  1.0000
  H   H45       1.0  0.10140  0.12870  0.10030  1.0000
  H   H46       1.0  0.60140  0.37130  0.60030  1.0000
  H   H47       1.0  0.89860  0.87130  0.89970  1.0000
  H   H48       1.0  0.39860  0.62870  0.39970  1.0000
  C   C61       1.0  0.99560  0.11540  0.14240  1.0000
  C   C62       1.0  0.49560  0.38460  0.64240  1.0000
  C   C63       1.0  0.00440  0.88460  0.85760  1.0000
  C   C64       1.0  0.50440  0.61540  0.35760  1.0000
  H   H49       1.0  0.94480  0.12340  0.12300  1.0000
  H   H50       1.0  0.44480  0.37660  0.62300  1.0000
  H   H51       1.0  0.05520  0.87660  0.87700  1.0000
  H   H52       1.0  0.55520  0.62340  0.37700  1.0000
  C   C65       1.0  0.97680  0.09900  0.18290  1.0000
  C   C66       1.0  0.47680  0.40100  0.68290  1.0000
  C   C67       1.0  0.02320  0.90100  0.81710  1.0000
  C   C68       1.0  0.52320  0.59900  0.31710  1.0000
  H   H53       1.0  0.91330  0.09170  0.19140  1.0000
  H   H54       1.0  0.41330  0.40830  0.69140  1.0000
  H   H55       1.0  0.08670  0.90830  0.80860  1.0000
  H   H56       1.0  0.58670  0.59170  0.30860  1.0000
  C   C69       1.0  0.05240  0.09270  0.21260  1.0000
  C   C70       1.0  0.55240  0.40730  0.71260  1.0000
  C   C71       1.0  0.94760  0.90730  0.78740  1.0000
  C   C72       1.0  0.44760  0.59270  0.28740  1.0000
  H   H57       1.0  0.03870  0.08450  0.24110  1.0000
  H   H58       1.0  0.53870  0.41550  0.74110  1.0000
  H   H59       1.0  0.96130  0.91550  0.75890  1.0000
  H   H60       1.0  0.46130  0.58450  0.25890  1.0000
  C   C73       1.0  0.48070  0.19510  0.10070  1.0000
  C   C74       1.0  0.98070  0.30490  0.60070  1.0000
  C   C75       1.0  0.51930  0.80490  0.89930  1.0000
  C   C76       1.0  0.01930  0.69510  0.39930  1.0000
  C   C77       1.0  0.48170  0.18260  0.05750  1.0000
  C   C78       1.0  0.98170  0.31740  0.55750  1.0000
  C   C79       1.0  0.51830  0.81740  0.94250  1.0000
  C   C80       1.0  0.01830  0.68260  0.44250  1.0000
  H   H61       1.0  0.51310  0.23640  0.04160  1.0000
  H   H62       1.0  0.01310  0.26360  0.54160  1.0000
  H   H63       1.0  0.48690  0.76360  0.95840  1.0000
  H   H64       1.0  0.98690  0.73640  0.45840  1.0000
  C   C81       1.0  0.43840  0.09440  0.03680  1.0000
  C   C82       1.0  0.93840  0.40560  0.53680  1.0000
  C   C83       1.0  0.56160  0.90560  0.96320  1.0000
  C   C84       1.0  0.06160  0.59440  0.46320  1.0000
  H   H65       1.0  0.43870  0.09030  0.00750  1.0000
  H   H66       1.0  0.93870  0.40970  0.50750  1.0000
  H   H67       1.0  0.56130  0.90970  0.99250  1.0000
  H   H68       1.0  0.06130  0.59030  0.49250  1.0000
  C   C85       1.0  0.39460  0.01240  0.05990  1.0000
  C   C86       1.0  0.89460  0.48760  0.55990  1.0000
  C   C87       1.0  0.60540  0.98760  0.94010  1.0000
  C   C88       1.0  0.10540  0.51240  0.44010  1.0000
  H   H69       1.0  0.36430  0.95270  0.04630  1.0000
  H   H70       1.0  0.86430  0.54730  0.54630  1.0000
  H   H71       1.0  0.63570  0.04730  0.95370  1.0000
  H   H72       1.0  0.13570  0.45270  0.45370  1.0000
  C   C89       1.0  0.39560  0.01840  0.10280  1.0000
  C   C90       1.0  0.89560  0.48160  0.60280  1.0000
  C   C91       1.0  0.60440  0.98160  0.89720  1.0000
  C   C92       1.0  0.10440  0.51840  0.39720  1.0000
  H   H73       1.0  0.37000  0.96040  0.11860  1.0000
  H   H74       1.0  0.87000  0.53960  0.61860  1.0000
  H   H75       1.0  0.63000  0.03960  0.88140  1.0000
  H   H76       1.0  0.13000  0.46040  0.38140  1.0000
  C   C93       1.0  0.43530  0.11190  0.12290  1.0000
  C   C94       1.0  0.93530  0.38810  0.62290  1.0000
  C   C95       1.0  0.56470  0.88810  0.87710  1.0000
  C   C96       1.0  0.06470  0.61190  0.37710  1.0000
  H   H77       1.0  0.43080  0.11840  0.15210  1.0000
  H   H78       1.0  0.93080  0.38160  0.65210  1.0000
  H   H79       1.0  0.56920  0.88160  0.84790  1.0000
  H   H80       1.0  0.06920  0.61840  0.34790  1.0000
  C   C97       1.0  0.61570  0.29630  0.19330  1.0000
  C   C98       1.0  0.11570  0.20370  0.69330  1.0000
  C   C99       1.0  0.38430  0.70370  0.80670  1.0000
  C   C100      1.0  0.88430  0.79630  0.30670  1.0000
  C   C101      1.0  0.57230  0.33870  0.22910  1.0000
  C   C102      1.0  0.07230  0.16130  0.72910  1.0000
  C   C103      1.0  0.42770  0.66130  0.77090  1.0000
  C   C104      1.0  0.92770  0.83870  0.27090  1.0000
  H   H81       1.0  0.51870  0.38520  0.22680  1.0000
  H   H82       1.0  0.01870  0.11480  0.72680  1.0000
  H   H83       1.0  0.48130  0.61480  0.77320  1.0000
  H   H84       1.0  0.98130  0.88520  0.27320  1.0000
  C   C105      1.0  0.61120  0.30970  0.26890  1.0000
  C   C106      1.0  0.11120  0.19030  0.76890  1.0000
  C   C107      1.0  0.38880  0.69030  0.73110  1.0000
  C   C108      1.0  0.88880  0.80970  0.23110  1.0000
  H   H85       1.0  0.58190  0.33570  0.29320  1.0000
  H   H86       1.0  0.08190  0.16430  0.79320  1.0000
  H   H87       1.0  0.41810  0.66430  0.70680  1.0000
  H   H88       1.0  0.91810  0.83570  0.20680  1.0000
  C   C109      1.0  0.69060  0.24440  0.27230  1.0000
  C   C110      1.0  0.19060  0.25560  0.77230  1.0000
  C   C111      1.0  0.30940  0.75560  0.72770  1.0000
  C   C112      1.0  0.80940  0.74440  0.22770  1.0000
  H   H89       1.0  0.71540  0.22530  0.29880  1.0000
  H   H90       1.0  0.21540  0.27470  0.79880  1.0000
  H   H91       1.0  0.28460  0.77470  0.70120  1.0000
  H   H92       1.0  0.78460  0.72530  0.20120  1.0000
  C   C113      1.0  0.73370  0.20710  0.23730  1.0000
  C   C114      1.0  0.23370  0.29290  0.73730  1.0000
  C   C115      1.0  0.26630  0.79290  0.76270  1.0000
  C   C116      1.0  0.76630  0.70710  0.26270  1.0000
  H   H93       1.0  0.78850  0.16250  0.24030  1.0000
  H   H94       1.0  0.28850  0.33750  0.74030  1.0000
  H   H95       1.0  0.21150  0.83750  0.75970  1.0000
  H   H96       1.0  0.71150  0.66250  0.25970  1.0000
  C   C117      1.0  0.70000  0.23230  0.19750  1.0000
  C   C118      1.0  0.20000  0.26770  0.69750  1.0000
  C   C119      1.0  0.30000  0.76770  0.80250  1.0000
  C   C120      1.0  0.80000  0.73230  0.30250  1.0000
  H   H97       1.0  0.73230  0.20740  0.17380  1.0000
  H   H98       1.0  0.23230  0.29260  0.67380  1.0000
  H   H99       1.0  0.26770  0.79260  0.82620  1.0000
  H   H100      1.0  0.76770  0.70740  0.32620  1.0000
  C   C121      1.0  0.54970  0.49400  0.10630  1.0000
  C   C122      1.0  0.04970  0.00600  0.60630  1.0000
  C   C123      1.0  0.45030  0.50600  0.89370  1.0000
  C   C124      1.0  0.95030  0.99400  0.39370  1.0000
  C   C125      1.0  0.54580  0.58600  0.13030  1.0000
  C   C126      1.0  0.04580  0.91400  0.63030  1.0000
  C   C127      1.0  0.45420  0.41400  0.86970  1.0000
  C   C128      1.0  0.95420  0.08600  0.36970  1.0000
  H   H101      1.0  0.54530  0.57900  0.15960  1.0000
  H   H102      1.0  0.04530  0.92100  0.65960  1.0000
  H   H103      1.0  0.45470  0.42100  0.84040  1.0000
  H   H104      1.0  0.95470  0.07900  0.34040  1.0000
  C   C129      1.0  0.54270  0.69380  0.11190  1.0000
  C   C130      1.0  0.04270  0.80620  0.61190  1.0000
  C   C131      1.0  0.45730  0.30620  0.88810  1.0000
  C   C132      1.0  0.95730  0.19380  0.38810  1.0000
  H   H105      1.0  0.54210  0.75620  0.12940  1.0000
  H   H106      1.0  0.04210  0.74380  0.62940  1.0000
  H   H107      1.0  0.45790  0.24380  0.87060  1.0000
  H   H108      1.0  0.95790  0.25620  0.37060  1.0000
  C   C133      1.0  0.54060  0.70770  0.07120  1.0000
  C   C134      1.0  0.04060  0.79230  0.57120  1.0000
  C   C135      1.0  0.45940  0.29230  0.92880  1.0000
  C   C136      1.0  0.95940  0.20770  0.42880  1.0000
  H   H109      1.0  0.54010  0.77890  0.05940  1.0000
  H   H110      1.0  0.04010  0.72110  0.55940  1.0000
  H   H111      1.0  0.45990  0.22110  0.94060  1.0000
  H   H112      1.0  0.95990  0.27890  0.44060  1.0000
  C   C137      1.0  0.54890  0.50970  0.06540  1.0000
  C   C138      1.0  0.04890  0.99030  0.56540  1.0000
  C   C139      1.0  0.45110  0.49030  0.93460  1.0000
  C   C140      1.0  0.95110  0.00970  0.43460  1.0000
  H   H113      1.0  0.55480  0.44800  0.04780  1.0000
  H   H114      1.0  0.05480  0.05200  0.54780  1.0000
  H   H115      1.0  0.44520  0.55200  0.95220  1.0000
  H   H116      1.0  0.94520  0.94800  0.45220  1.0000
  C   C141      1.0  0.53930  0.61690  0.04700  1.0000
  C   C142      1.0  0.03930  0.88310  0.54700  1.0000
  C   C143      1.0  0.46070  0.38310  0.95300  1.0000
  C   C144      1.0  0.96070  0.11690  0.45300  1.0000
  H   H117      1.0  0.53210  0.62390  0.01790  1.0000
  H   H118      1.0  0.03210  0.87610  0.51790  1.0000
  H   H119      1.0  0.46790  0.37610  0.98210  1.0000
  H   H120      1.0  0.96790  0.12390  0.48210  1.0000
