data_image0
_chemical_formula_structural       Tb8O64C32O4H8O4H8
_chemical_formula_sum              "Tb8 O72 C32 H16"
_cell_length_a       10.343
_cell_length_b       17.134
_cell_length_c       14.609
_cell_angle_alpha    90
_cell_angle_beta     98.501
_cell_angle_gamma    90

_space_group_name_H-M_alt    "P 1"
_space_group_IT_number       1

loop_
  _space_group_symop_operation_xyz
  'x, y, z'

loop_
  _atom_site_type_symbol
  _atom_site_label
  _atom_site_symmetry_multiplicity
  _atom_site_fract_x
  _atom_site_fract_y
  _atom_site_fract_z
  _atom_site_occupancy
  Tb  Tb1       1.0  0.50249  0.12738  0.34323  1.0000
  Tb  Tb2       1.0  0.99751  0.62738  0.15677  1.0000
  Tb  Tb3       1.0  0.49751  0.87262  0.65677  1.0000
  Tb  Tb4       1.0  0.00249  0.37262  0.84323  1.0000
  Tb  Tb5       1.0  0.01960  0.33515  0.40875  1.0000
  Tb  Tb6       1.0  0.48040  0.83515  0.09125  1.0000
  Tb  Tb7       1.0  0.98040  0.66485  0.59125  1.0000
  Tb  Tb8       1.0  0.51960  0.16485  0.90875  1.0000
  O   O1        1.0  0.86080  0.25725  0.47588  1.0000
  O   O2        1.0  0.63920  0.75725  0.02412  1.0000
  O   O3        1.0  0.13920  0.74275  0.52412  1.0000
  O   O4        1.0  0.36080  0.24275  0.97588  1.0000
  O   O5        1.0  0.65880  0.20887  0.27095  1.0000
  O   O6        1.0  0.84120  0.70887  0.22905  1.0000
  O   O7        1.0  0.34120  0.79113  0.72905  1.0000
  O   O8        1.0  0.15880  0.29113  0.77095  1.0000
  O   O9        1.0  0.84760  0.27611  0.29376  1.0000
  O   O10       1.0  0.65240  0.77611  0.20624  1.0000
  O   O11       1.0  0.15240  0.72389  0.70624  1.0000
  O   O12       1.0  0.34760  0.22389  0.79376  1.0000
  O   O13       1.0  0.68210  0.18132  0.45334  1.0000
  O   O14       1.0  0.81790  0.68132  0.04666  1.0000
  O   O15       1.0  0.31790  0.81868  0.54666  1.0000
  O   O16       1.0  0.18210  0.31868  0.95334  1.0000
  O   O17       1.0  0.42720  0.25593  0.37743  1.0000
  O   O18       1.0  0.07280  0.75593  0.12257  1.0000
  O   O19       1.0  0.57280  0.74407  0.62257  1.0000
  O   O20       1.0  0.92720  0.24407  0.87743  1.0000
  O   O21       1.0  0.09690  0.21011  0.36907  1.0000
  O   O22       1.0  0.40310  0.71011  0.13093  1.0000
  O   O23       1.0  0.90310  0.78989  0.63093  1.0000
  O   O24       1.0  0.59690  0.28989  0.86907  1.0000
  O   O25       1.0  0.25980  0.32948  0.41046  1.0000
  O   O26       1.0  0.24020  0.82948  0.08954  1.0000
  O   O27       1.0  0.74020  0.67052  0.58954  1.0000
  O   O28       1.0  0.75980  0.17052  0.91046  1.0000
  O   O29       1.0  0.26280  0.13661  0.33567  1.0000
  O   O30       1.0  0.23720  0.63661  0.16433  1.0000
  O   O31       1.0  0.73720  0.86339  0.66433  1.0000
  O   O32       1.0  0.76280  0.36339  0.83567  1.0000
  O   O33       1.0  0.61550  0.01130  0.42593  1.0000
  O   O34       1.0  0.88450  0.51130  0.07407  1.0000
  O   O35       1.0  0.38450  0.98870  0.57407  1.0000
  O   O36       1.0  0.11550  0.48870  0.92593  1.0000
  O   O37       1.0  0.56910  0.90703  0.50938  1.0000
  O   O38       1.0  0.93090  0.40703  0.99062  1.0000
  O   O39       1.0  0.43090  0.09297  0.49062  1.0000
  O   O40       1.0  0.06910  0.59297  0.00938  1.0000
  O   O41       1.0  0.12320  0.46279  0.44269  1.0000
  O   O42       1.0  0.37680  0.96279  0.05731  1.0000
  O   O43       1.0  0.87680  0.53721  0.55731  1.0000
  O   O44       1.0  0.62320  0.03721  0.94269  1.0000
  O   O45       1.0  0.07960  0.58707  0.47861  1.0000
  O   O46       1.0  0.42040  0.08707  0.02139  1.0000
  O   O47       1.0  0.92040  0.41293  0.52139  1.0000
  O   O48       1.0  0.57960  0.91293  0.97861  1.0000
  O   O49       1.0  0.38860  0.00235  0.29805  1.0000
  O   O50       1.0  0.11140  0.50235  0.20195  1.0000
  O   O51       1.0  0.61140  0.99765  0.70195  1.0000
  O   O52       1.0  0.88860  0.49765  0.79805  1.0000
  O   O53       1.0  0.60940  0.05196  0.23872  1.0000
  O   O54       1.0  0.89060  0.55196  0.26128  1.0000
  O   O55       1.0  0.39060  0.94804  0.76128  1.0000
  O   O56       1.0  0.10940  0.44804  0.73872  1.0000
  O   O57       1.0  0.62480  0.93627  0.16889  1.0000
  O   O58       1.0  0.87520  0.43627  0.33111  1.0000
  O   O59       1.0  0.37520  0.06373  0.83111  1.0000
  O   O60       1.0  0.12480  0.56373  0.66889  1.0000
  O   O61       1.0  0.42000  0.88293  0.23981  1.0000
  O   O62       1.0  0.08000  0.38293  0.26019  1.0000
  O   O63       1.0  0.58000  0.11707  0.76019  1.0000
  O   O64       1.0  0.92000  0.61707  0.73981  1.0000
  C   C1        1.0  0.76750  0.22444  0.42600  1.0000
  C   C2        1.0  0.73250  0.72444  0.07400  1.0000
  C   C3        1.0  0.23250  0.77556  0.57400  1.0000
  C   C4        1.0  0.26750  0.27556  0.92600  1.0000
  C   C5        1.0  0.75620  0.23775  0.32030  1.0000
  C   C6        1.0  0.74380  0.73775  0.17970  1.0000
  C   C7        1.0  0.24380  0.76225  0.67970  1.0000
  C   C8        1.0  0.25620  0.26225  0.82030  1.0000
  C   C9        1.0  0.21460  0.19867  0.36110  1.0000
  C   C10       1.0  0.28540  0.69867  0.13890  1.0000
  C   C11       1.0  0.78540  0.80133  0.63890  1.0000
  C   C12       1.0  0.71460  0.30133  0.86110  1.0000
  C   C13       1.0  0.30950  0.26794  0.38525  1.0000
  C   C14       1.0  0.19050  0.76794  0.11475  1.0000
  C   C15       1.0  0.69050  0.73206  0.61475  1.0000
  C   C16       1.0  0.80950  0.23206  0.88525  1.0000
  C   C17       1.0  0.55340  0.97677  0.48144  1.0000
  C   C18       1.0  0.94660  0.47677  0.01856  1.0000
  C   C19       1.0  0.44660  0.02323  0.51856  1.0000
  C   C20       1.0  0.05340  0.52323  0.98144  1.0000
  C   C21       1.0  0.05850  0.51426  0.47742  1.0000
  C   C22       1.0  0.44150  0.01426  0.02258  1.0000
  C   C23       1.0  0.94150  0.48574  0.52258  1.0000
  C   C24       1.0  0.55850  0.98574  0.97742  1.0000
  C   C25       1.0  0.44960  0.95368  0.25640  1.0000
  C   C26       1.0  0.05040  0.45368  0.24360  1.0000
  C   C27       1.0  0.55040  0.04632  0.74360  1.0000
  C   C28       1.0  0.94960  0.54632  0.75640  1.0000
  C   C29       1.0  0.57290  0.98325  0.21883  1.0000
  C   C30       1.0  0.92710  0.48325  0.28117  1.0000
  C   C31       1.0  0.42710  0.01675  0.78117  1.0000
  C   C32       1.0  0.07290  0.51675  0.71883  1.0000
  O   O65       1.0  0.12730  0.29840  0.56222  1.0000
  O   O66       1.0  0.37270  0.79840  0.93778  1.0000
  O   O67       1.0  0.87270  0.70160  0.43778  1.0000
  O   O68       1.0  0.62730  0.20160  0.06222  1.0000
  H   H1        1.0  0.20000  0.27500  0.56900  1.0000
  H   H2        1.0  0.30000  0.77500  0.93100  1.0000
  H   H3        1.0  0.80000  0.72500  0.43100  1.0000
  H   H4        1.0  0.70000  0.22500  0.06900  1.0000
  H   H5        1.0  0.11100  0.30100  0.61710  1.0000
  H   H6        1.0  0.38900  0.80100  0.88290  1.0000
  H   H7        1.0  0.88900  0.69900  0.38290  1.0000
  H   H8        1.0  0.61100  0.19900  0.11710  1.0000
  O   O69       1.0  0.40250  0.16762  0.18726  1.0000
  O   O70       1.0  0.09750  0.66762  0.31274  1.0000
  O   O71       1.0  0.59750  0.83238  0.81274  1.0000
  O   O72       1.0  0.90250  0.33238  0.68726  1.0000
  H   H9        1.0  0.40900  0.14560  0.13520  1.0000
  H   H10       1.0  0.09100  0.64560  0.36480  1.0000
  H   H11       1.0  0.59100  0.85440  0.86480  1.0000
  H   H12       1.0  0.90900  0.35440  0.63520  1.0000
  H   H13       1.0  0.34000  0.20070  0.17500  1.0000
  H   H14       1.0  0.16000  0.70070  0.32500  1.0000
  H   H15       1.0  0.66000  0.79930  0.82500  1.0000
  H   H16       1.0  0.84000  0.29930  0.67500  1.0000
