data_image0
_chemical_formula_structural       Cd6Br4O24C12H4C4H4C8H4C4H4C16H4C4H4
_chemical_formula_sum              "Cd6 Br4 O24 C48 H24"
_cell_length_a       13.6661
_cell_length_b       10.2967
_cell_length_c       17.8289
_cell_angle_alpha    90
_cell_angle_beta     110.246
_cell_angle_gamma    90

_space_group_name_H-M_alt    "P 1"
_space_group_IT_number       1

loop_
  _space_group_symop_operation_xyz
  'x, y, z'

loop_
  _atom_site_type_symbol
  _atom_site_label
  _atom_site_symmetry_multiplicity
  _atom_site_fract_x
  _atom_site_fract_y
  _atom_site_fract_z
  _atom_site_occupancy
  Cd  Cd1       1.0  0.00000  0.50000  0.50000  1.0000
  Cd  Cd2       1.0  0.00000  0.00000  0.00000  1.0000
  Cd  Cd3       1.0  0.72710  0.57597  0.43558  1.0000
  Cd  Cd4       1.0  0.27290  0.07597  0.06442  1.0000
  Cd  Cd5       1.0  0.27290  0.42403  0.56442  1.0000
  Cd  Cd6       1.0  0.72710  0.92403  0.93558  1.0000
  Br  Br1       1.0  0.54570  0.65599  0.42465  1.0000
  Br  Br2       1.0  0.45430  0.15599  0.07535  1.0000
  Br  Br3       1.0  0.45430  0.34401  0.57535  1.0000
  Br  Br4       1.0  0.54570  0.84401  0.92465  1.0000
  O   O1        1.0  0.76011  0.42520  0.52766  1.0000
  O   O2        1.0  0.23989  0.92520  0.97234  1.0000
  O   O3        1.0  0.23989  0.57480  0.47234  1.0000
  O   O4        1.0  0.76011  0.07480  0.02766  1.0000
  O   O5        1.0  0.93160  0.38620  0.57330  1.0000
  O   O6        1.0  0.06840  0.88620  0.92670  1.0000
  O   O7        1.0  0.06840  0.61380  0.42670  1.0000
  O   O8        1.0  0.93160  0.11380  0.07330  1.0000
  O   O9        1.0  0.86007  0.02800  0.88317  1.0000
  O   O10       1.0  0.13993  0.52800  0.61683  1.0000
  O   O11       1.0  0.13993  0.97200  0.11683  1.0000
  O   O12       1.0  0.86007  0.47200  0.38317  1.0000
  O   O13       1.0  0.69226  0.05450  0.82699  1.0000
  O   O14       1.0  0.30774  0.55450  0.67301  1.0000
  O   O15       1.0  0.30774  0.94550  0.17301  1.0000
  O   O16       1.0  0.69226  0.44550  0.32699  1.0000
  O   O17       1.0  0.89709  0.67401  0.51076  1.0000
  O   O18       1.0  0.10291  0.17401  0.98924  1.0000
  O   O19       1.0  0.10291  0.32599  0.48924  1.0000
  O   O20       1.0  0.89709  0.82599  0.01076  1.0000
  O   O21       1.0  0.78262  0.77830  0.41123  1.0000
  O   O22       1.0  0.21738  0.27830  0.08877  1.0000
  O   O23       1.0  0.21738  0.22170  0.58877  1.0000
  O   O24       1.0  0.78262  0.72170  0.91123  1.0000
  C   C1        1.0  0.84210  0.37850  0.57636  1.0000
  C   C2        1.0  0.15790  0.87850  0.92364  1.0000
  C   C3        1.0  0.15790  0.62150  0.42364  1.0000
  C   C4        1.0  0.84210  0.12150  0.07636  1.0000
  C   C5        1.0  0.82950  0.30300  0.64481  1.0000
  C   C6        1.0  0.17050  0.80300  0.85519  1.0000
  C   C7        1.0  0.17050  0.69700  0.35519  1.0000
  C   C8        1.0  0.82950  0.19700  0.14481  1.0000
  C   C9        1.0  0.90920  0.22610  0.69300  1.0000
  C   C10       1.0  0.09080  0.72610  0.80700  1.0000
  C   C11       1.0  0.09080  0.77390  0.30700  1.0000
  C   C12       1.0  0.90920  0.27390  0.19300  1.0000
  H   H1        1.0  0.97260  0.22310  0.68460  1.0000
  H   H2        1.0  0.02740  0.72310  0.81540  1.0000
  H   H3        1.0  0.02740  0.77690  0.31540  1.0000
  H   H4        1.0  0.97260  0.27690  0.18460  1.0000
  C   C13       1.0  0.89500  0.15360  0.75380  1.0000
  C   C14       1.0  0.10500  0.65360  0.74620  1.0000
  C   C15       1.0  0.10500  0.84640  0.24620  1.0000
  C   C16       1.0  0.89500  0.34640  0.25380  1.0000
  H   H5        1.0  0.94910  0.10230  0.78630  1.0000
  H   H6        1.0  0.05090  0.60230  0.71370  1.0000
  H   H7        1.0  0.05090  0.89770  0.21370  1.0000
  H   H8        1.0  0.94910  0.39770  0.28630  1.0000
  C   C17       1.0  0.80070  0.15700  0.76654  1.0000
  C   C18       1.0  0.19930  0.65700  0.73346  1.0000
  C   C19       1.0  0.19930  0.84300  0.23346  1.0000
  C   C20       1.0  0.80070  0.34300  0.26654  1.0000
  C   C21       1.0  0.72130  0.23470  0.71832  1.0000
  C   C22       1.0  0.27870  0.73470  0.78168  1.0000
  C   C23       1.0  0.27870  0.76530  0.28168  1.0000
  C   C24       1.0  0.72130  0.26530  0.21832  1.0000
  H   H9        1.0  0.65770  0.23790  0.72650  1.0000
  H   H10       1.0  0.34230  0.73790  0.77350  1.0000
  H   H11       1.0  0.34230  0.76210  0.27350  1.0000
  H   H12       1.0  0.65770  0.26210  0.22650  1.0000
  C   C25       1.0  0.73610  0.30770  0.65798  1.0000
  C   C26       1.0  0.26390  0.80770  0.84202  1.0000
  C   C27       1.0  0.26390  0.69230  0.34202  1.0000
  C   C28       1.0  0.73610  0.19230  0.15798  1.0000
  H   H13       1.0  0.68250  0.36030  0.62610  1.0000
  H   H14       1.0  0.31750  0.86030  0.87390  1.0000
  H   H15       1.0  0.31750  0.63970  0.37390  1.0000
  H   H16       1.0  0.68250  0.13970  0.12610  1.0000
  C   C29       1.0  0.78380  0.07590  0.83013  1.0000
  C   C30       1.0  0.21620  0.57590  0.66987  1.0000
  C   C31       1.0  0.21620  0.92410  0.16987  1.0000
  C   C32       1.0  0.78380  0.42410  0.33013  1.0000
  C   C33       1.0  0.86870  0.77270  0.46640  1.0000
  C   C34       1.0  0.13130  0.27270  0.03360  1.0000
  C   C35       1.0  0.13130  0.22730  0.53360  1.0000
  C   C36       1.0  0.86870  0.72730  0.96640  1.0000
  C   C37       1.0  0.93810  0.88960  0.48330  1.0000
  C   C38       1.0  0.06190  0.38960  0.01670  1.0000
  C   C39       1.0  0.06190  0.11040  0.51670  1.0000
  C   C40       1.0  0.93810  0.61040  0.98330  1.0000
  C   C41       1.0  0.91350  0.99370  0.43100  1.0000
  C   C42       1.0  0.08650  0.49370  0.06900  1.0000
  C   C43       1.0  0.08650  0.00630  0.56900  1.0000
  C   C44       1.0  0.91350  0.50630  0.93100  1.0000
  H   H17       1.0  0.85570  0.98950  0.38430  1.0000
  H   H18       1.0  0.14430  0.48950  0.11570  1.0000
  H   H19       1.0  0.14430  0.01050  0.61570  1.0000
  H   H20       1.0  0.85570  0.51050  0.88430  1.0000
  C   C45       1.0  0.02440  0.89490  0.55170  1.0000
  C   C46       1.0  0.97560  0.39490  0.94830  1.0000
  C   C47       1.0  0.97560  0.10510  0.44830  1.0000
  C   C48       1.0  0.02440  0.60510  0.05170  1.0000
  H   H21       1.0  0.04150  0.82440  0.58640  1.0000
  H   H22       1.0  0.95850  0.32440  0.91360  1.0000
  H   H23       1.0  0.95850  0.17560  0.41360  1.0000
  H   H24       1.0  0.04150  0.67560  0.08640  1.0000
