data_image0
_chemical_formula_structural       Dy2O2N2C4H2Dy2O2N2C2H2Sr2O2N2C2H2O2N2C2H2O2C2N2O2C2N2O2C2O2C2O2C2H2O2C2H2O2C2H2O2C2O2C2O2C2O2C2O2C2H2O2C2H2O2C2H2O2C2O2C2O2C2O2C2O2C2H2O2C2H2O2H4C2H2O2H4C2O2H4C2O2H4C2O2H4C4H2C2H2C10H2C2H2C2H2C6
_chemical_formula_sum              "Dy4 O58 N12 C84 H56 Sr2"
_cell_length_a       10.394
_cell_length_b       11.066
_cell_length_c       30.409
_cell_angle_alpha    88.42
_cell_angle_beta     87.81
_cell_angle_gamma    79.04

_space_group_name_H-M_alt    "P 1"
_space_group_IT_number       1

loop_
  _space_group_symop_operation_xyz
  'x, y, z'

loop_
  _atom_site_type_symbol
  _atom_site_label
  _atom_site_symmetry_multiplicity
  _atom_site_fract_x
  _atom_site_fract_y
  _atom_site_fract_z
  _atom_site_occupancy
  Dy  Dy1       1.0  0.44482  0.34524  0.37324  1.0000
  Dy  Dy2       1.0  0.55518  0.65476  0.62676  1.0000
  O   O1        1.0  0.53240  0.49030  0.32480  1.0000
  O   O2        1.0  0.46760  0.50970  0.67520  1.0000
  N   N1        1.0  0.67780  0.36280  0.38388  1.0000
  N   N2        1.0  0.32220  0.63720  0.61612  1.0000
  C   C1        1.0  0.73470  0.44420  0.36003  1.0000
  C   C2        1.0  0.26530  0.55580  0.63997  1.0000
  C   C3        1.0  0.13090  0.89830  0.02393  1.0000
  C   C4        1.0  0.86910  0.10170  0.97607  1.0000
  H   H1        1.0  0.14250  0.82530  0.00860  1.0000
  H   H2        1.0  0.85750  0.17470  0.99140  1.0000
  Dy  Dy3       1.0  0.87684  0.04570  0.14964  1.0000
  Dy  Dy4       1.0  0.12316  0.95430  0.85036  1.0000
  O   O3        1.0  0.69740  0.58270  0.29993  1.0000
  O   O4        1.0  0.30260  0.41730  0.70007  1.0000
  N   N3        1.0  0.29850  0.34160  0.44056  1.0000
  N   N4        1.0  0.70150  0.65840  0.55944  1.0000
  C   C5        1.0  0.86130  0.45830  0.36511  1.0000
  C   C6        1.0  0.13870  0.54170  0.63489  1.0000
  H   H3        1.0  0.89710  0.51620  0.34840  1.0000
  H   H4        1.0  0.10290  0.48380  0.65160  1.0000
  Sr  Sr1       1.0  0.73041  0.57040  0.21494  1.0000
  Sr  Sr2       1.0  0.26959  0.42960  0.78505  1.0000
  O   O5        1.0  0.55860  0.20470  0.42702  1.0000
  O   O6        1.0  0.44140  0.79530  0.57298  1.0000
  N   N5        1.0  0.36880  0.32820  0.29757  1.0000
  N   N6        1.0  0.63120  0.67180  0.70243  1.0000
  C   C7        1.0  0.93360  0.38410  0.39567  1.0000
  C   C8        1.0  0.06640  0.61590  0.60433  1.0000
  H   H5        1.0  0.01970  0.39160  0.40020  1.0000
  H   H6        1.0  0.98030  0.60840  0.59980  1.0000
  O   O7        1.0  0.73730  0.12320  0.46189  1.0000
  O   O8        1.0  0.26270  0.87680  0.53811  1.0000
  N   N7        1.0  0.64280  0.02760  0.14750  1.0000
  N   N8        1.0  0.35720  0.97240  0.85250  1.0000
  C   C9        1.0  0.87830  0.29880  0.41956  1.0000
  C   C10       1.0  0.12170  0.70120  0.58044  1.0000
  H   H7        1.0  0.92720  0.24710  0.44000  1.0000
  H   H8        1.0  0.07280  0.75290  0.56000  1.0000
  O   O9        1.0  0.44010  0.51110  0.42224  1.0000
  O   O10       1.0  0.55990  0.48890  0.57776  1.0000
  C   C11       1.0  0.74950  0.29020  0.41313  1.0000
  C   C12       1.0  0.25050  0.70980  0.58687  1.0000
  N   N9        1.0  0.02930  0.01950  0.08305  1.0000
  N   N10       1.0  0.97070  0.98050  0.91695  1.0000
  O   O11       1.0  0.36890  0.61080  0.48400  1.0000
  O   O12       1.0  0.63110  0.38920  0.51600  1.0000
  C   C13       1.0  0.64750  0.51260  0.32541  1.0000
  C   C14       1.0  0.35250  0.48740  0.67459  1.0000
  N   N11       1.0  0.96650  0.08940  0.22001  1.0000
  N   N12       1.0  0.03350  0.91060  0.77999  1.0000
  O   O13       1.0  0.31850  0.17900  0.37881  1.0000
  O   O14       1.0  0.68150  0.82100  0.62119  1.0000
  C   C15       1.0  0.67750  0.19960  0.43657  1.0000
  C   C16       1.0  0.32250  0.80040  0.56343  1.0000
  O   O15       1.0  0.18120  0.07560  0.41517  1.0000
  O   O16       1.0  0.81880  0.92440  0.58483  1.0000
  C   C17       1.0  0.29460  0.42740  0.47061  1.0000
  C   C18       1.0  0.70540  0.57260  0.52939  1.0000
  O   O17       1.0  0.57610  0.19200  0.32935  1.0000
  O   O18       1.0  0.42390  0.80800  0.67065  1.0000
  C   C19       1.0  0.22220  0.42570  0.50965  1.0000
  C   C20       1.0  0.77780  0.57430  0.49035  1.0000
  H   H9        1.0  0.21940  0.48740  0.53000  1.0000
  H   H10       1.0  0.78060  0.51260  0.47000  1.0000
  O   O19       1.0  0.62360  0.09070  0.26676  1.0000
  O   O20       1.0  0.37640  0.90930  0.73324  1.0000
  C   C21       1.0  0.15380  0.33080  0.51810  1.0000
  C   C22       1.0  0.84620  0.66920  0.48190  1.0000
  H   H11       1.0  0.10500  0.32800  0.54430  1.0000
  H   H12       1.0  0.89500  0.67200  0.45570  1.0000
  O   O21       1.0  0.24400  0.47960  0.35489  1.0000
  O   O22       1.0  0.75600  0.52040  0.64511  1.0000
  C   C23       1.0  0.15920  0.24070  0.48720  1.0000
  C   C24       1.0  0.84080  0.75930  0.51280  1.0000
  H   H13       1.0  0.11520  0.17560  0.49200  1.0000
  H   H14       1.0  0.88480  0.82440  0.50800  1.0000
  O   O23       1.0  0.09720  0.56630  0.30656  1.0000
  O   O24       1.0  0.90280  0.43370  0.69344  1.0000
  C   C25       1.0  0.23290  0.25090  0.44847  1.0000
  C   C26       1.0  0.76710  0.74910  0.55153  1.0000
  O   O25       1.0  0.80380  0.90540  0.20249  1.0000
  O   O26       1.0  0.19620  0.09460  0.79751  1.0000
  C   C27       1.0  0.37470  0.52440  0.45828  1.0000
  C   C28       1.0  0.62530  0.47560  0.54172  1.0000
  O   O27       1.0  0.65250  0.80280  0.23142  1.0000
  O   O28       1.0  0.34750  0.19720  0.76858  1.0000
  C   C29       1.0  0.24400  0.15870  0.41161  1.0000
  C   C30       1.0  0.75600  0.84130  0.58839  1.0000
  O   O29       1.0  0.75840  0.16070  0.09184  1.0000
  O   O30       1.0  0.24160  0.83930  0.90816  1.0000
  C   C31       1.0  0.44130  0.25050  0.26934  1.0000
  C   C32       1.0  0.55870  0.74950  0.73066  1.0000
  O   O31       1.0  0.57120  0.24260  0.06147  1.0000
  O   O32       1.0  0.42880  0.75740  0.93853  1.0000
  C   C33       1.0  0.40940  0.24410  0.22617  1.0000
  C   C34       1.0  0.59060  0.75590  0.77383  1.0000
  H   H15       1.0  0.46240  0.18990  0.20720  1.0000
  H   H16       1.0  0.53760  0.81010  0.79280  1.0000
  O   O33       1.0  0.87430  0.86390  0.10624  1.0000
  O   O34       1.0  0.12570  0.13610  0.89376  1.0000
  C   C35       1.0  0.29830  0.31880  0.21160  1.0000
  C   C36       1.0  0.70170  0.68120  0.78840  1.0000
  H   H17       1.0  0.27470  0.31590  0.18250  1.0000
  H   H18       1.0  0.72530  0.68410  0.81750  1.0000
  O   O35       1.0  0.98750  0.72070  0.06268  1.0000
  O   O36       1.0  0.01250  0.27930  0.93732  1.0000
  C   C37       1.0  0.22210  0.39800  0.24023  1.0000
  C   C38       1.0  0.77790  0.60200  0.75977  1.0000
  H   H19       1.0  0.14540  0.44840  0.23110  1.0000
  H   H20       1.0  0.85460  0.55160  0.76890  1.0000
  O   O37       1.0  0.00210  0.20970  0.13409  1.0000
  O   O38       1.0  0.99790  0.79030  0.86591  1.0000
  C   C39       1.0  0.26180  0.40140  0.28314  1.0000
  C   C40       1.0  0.73820  0.59860  0.71686  1.0000
  O   O39       1.0  0.13300  0.30280  0.08945  1.0000
  O   O40       1.0  0.86700  0.69720  0.91055  1.0000
  C   C41       1.0  0.55770  0.17150  0.28960  1.0000
  C   C42       1.0  0.44230  0.82850  0.71040  1.0000
  O   O41       1.0  0.07000  0.90900  0.16904  1.0000
  O   O42       1.0  0.93000  0.09100  0.83096  1.0000
  C   C43       1.0  0.19370  0.49090  0.31691  1.0000
  C   C44       1.0  0.80630  0.50910  0.68309  1.0000
  O   O43       1.0  0.20970  0.82810  0.22006  1.0000
  O   O44       1.0  0.79030  0.17190  0.77994  1.0000
  C   C45       1.0  0.59080  0.95290  0.17596  1.0000
  C   C46       1.0  0.40920  0.04710  0.82404  1.0000
  O   O45       1.0  0.75800  0.22130  0.18800  1.0000
  O   O46       1.0  0.24200  0.77870  0.81200  1.0000
  C   C47       1.0  0.46100  0.94290  0.17600  1.0000
  C   C48       1.0  0.53900  0.05710  0.82400  1.0000
  H   H21       1.0  0.42860  0.88870  0.19550  1.0000
  H   H22       1.0  0.57140  0.11130  0.80450  1.0000
  O   O47       1.0  0.73740  0.35310  0.24325  1.0000
  O   O48       1.0  0.26260  0.64690  0.75675  1.0000
  C   C49       1.0  0.38020  0.01400  0.14688  1.0000
  C   C50       1.0  0.61980  0.98600  0.85312  1.0000
  H   H23       1.0  0.29150  0.01060  0.14660  1.0000
  H   H24       1.0  0.70850  0.98940  0.85340  1.0000
  O   O49       1.0  0.74070  0.68170  0.13991  1.0000
  O   O50       1.0  0.25930  0.31830  0.86009  1.0000
  H   H25       1.0  0.79440  0.73080  0.14010  1.0000
  H   H26       1.0  0.20560  0.26920  0.85990  1.0000
  H   H27       1.0  0.67080  0.68420  0.12600  1.0000
  H   H28       1.0  0.32920  0.31580  0.87400  1.0000
  C   C51       1.0  0.43320  0.09070  0.11800  1.0000
  C   C52       1.0  0.56680  0.90930  0.88200  1.0000
  H   H29       1.0  0.38010  0.13950  0.09790  1.0000
  H   H30       1.0  0.61990  0.86050  0.90210  1.0000
  O   O51       1.0  0.93120  0.43670  0.17522  1.0000
  O   O52       1.0  0.06880  0.56330  0.82478  1.0000
  H   H31       1.0  0.99190  0.48720  0.17510  1.0000
  H   H32       1.0  0.00810  0.51280  0.82490  1.0000
  H   H33       1.0  0.96210  0.36540  0.15960  1.0000
  H   H34       1.0  0.03790  0.63460  0.84040  1.0000
  C   C53       1.0  0.56540  0.09570  0.11872  1.0000
  C   C54       1.0  0.43460  0.90430  0.88128  1.0000
  O   O53       1.0  0.62490  0.44480  0.15694  1.0000
  O   O54       1.0  0.37510  0.55520  0.84306  1.0000
  H   H35       1.0  0.58400  0.49250  0.13760  1.0000
  H   H36       1.0  0.41600  0.50750  0.86240  1.0000
  H   H37       1.0  0.65730  0.37820  0.14400  1.0000
  H   H38       1.0  0.34270  0.62180  0.85600  1.0000
  C   C55       1.0  0.68980  0.88080  0.20604  1.0000
  C   C56       1.0  0.31020  0.11920  0.79396  1.0000
  O   O55       1.0  0.48420  0.59130  0.23873  1.0000
  O   O56       1.0  0.51580  0.40870  0.76127  1.0000
  H   H39       1.0  0.43000  0.60490  0.21810  1.0000
  H   H40       1.0  0.57000  0.39510  0.78190  1.0000
  H   H41       1.0  0.45710  0.52560  0.24600  1.0000
  H   H42       1.0  0.54290  0.47440  0.75400  1.0000
  C   C57       1.0  0.63620  0.17360  0.08823  1.0000
  C   C58       1.0  0.36380  0.82640  0.91177  1.0000
  O   O57       1.0  0.94570  0.65660  0.22720  1.0000
  O   O58       1.0  0.05430  0.34340  0.77280  1.0000
  H   H43       1.0  0.00100  0.64630  0.24750  1.0000
  H   H44       1.0  0.99900  0.35370  0.75250  1.0000
  H   H45       1.0  0.95210  0.71850  0.21070  1.0000
  H   H46       1.0  0.04790  0.28150  0.78930  1.0000
  C   C59       1.0  0.04470  0.91620  0.06062  1.0000
  C   C60       1.0  0.95530  0.08380  0.93938  1.0000
  C   C61       1.0  0.19840  0.98890  0.01062  1.0000
  C   C62       1.0  0.80160  0.01110  0.98938  1.0000
  H   H47       1.0  0.25460  0.97840  0.98590  1.0000
  H   H48       1.0  0.74540  0.02160  0.01410  1.0000
  C   C63       1.0  0.18220  0.09500  0.03417  1.0000
  C   C64       1.0  0.81780  0.90500  0.96583  1.0000
  H   H49       1.0  0.22660  0.15780  0.02570  1.0000
  H   H50       1.0  0.77340  0.84220  0.97430  1.0000
  C   C65       1.0  0.09830  0.10630  0.07076  1.0000
  C   C66       1.0  0.90170  0.89370  0.92924  1.0000
  C   C67       1.0  0.96220  0.82580  0.07787  1.0000
  C   C68       1.0  0.03780  0.17420  0.92213  1.0000
  C   C69       1.0  0.07500  0.21630  0.10044  1.0000
  C   C70       1.0  0.92500  0.78370  0.89956  1.0000
  C   C71       1.0  0.07260  0.01530  0.23471  1.0000
  C   C72       1.0  0.92740  0.98470  0.76529  1.0000
  C   C73       1.0  0.13170  0.04100  0.27240  1.0000
  C   C74       1.0  0.86830  0.95900  0.72760  1.0000
  H   H51       1.0  0.20600  0.98800  0.28220  1.0000
  H   H52       1.0  0.79400  0.01200  0.71780  1.0000
  C   C75       1.0  0.08070  0.14400  0.29500  1.0000
  C   C76       1.0  0.91930  0.85600  0.70500  1.0000
  H   H53       1.0  0.12090  0.16360  0.31990  1.0000
  H   H54       1.0  0.87910  0.83640  0.68010  1.0000
  C   C77       1.0  0.96790  0.21930  0.28040  1.0000
  C   C78       1.0  0.03210  0.78070  0.71960  1.0000
  H   H55       1.0  0.93000  0.28990  0.29550  1.0000
  H   H56       1.0  0.07000  0.71010  0.70450  1.0000
  C   C79       1.0  0.91370  0.18710  0.24311  1.0000
  C   C80       1.0  0.08630  0.81290  0.75689  1.0000
  C   C81       1.0  0.12170  0.90720  0.20590  1.0000
  C   C82       1.0  0.87830  0.09280  0.79410  1.0000
  C   C83       1.0  0.79280  0.26040  0.22389  1.0000
  C   C84       1.0  0.20720  0.73960  0.77611  1.0000
