data_image0
_chemical_formula_structural       Sm2O2N2C4H2Sm2O2N2C2H2Sr2O2N2C2H2O2N2C2H2O2C2N2O2C2N2O2C2O2C2O2C2H2O2C2H2O2C2H2O2C2O2C2O2C2O2C2O2C2H2O2C2H2O2C2H2O2C2O2C2O2C2O2C2O2C2H2O2C2H2O2H4C2H2O2H4C2O2H4C2O2H4C2O2H4C4H2C2H2C10H2C2H2C2H2C6
_chemical_formula_sum              "Sm4 O58 N12 C84 H56 Sr2"
_cell_length_a       10.394
_cell_length_b       11.066
_cell_length_c       30.409
_cell_angle_alpha    88.42
_cell_angle_beta     87.81
_cell_angle_gamma    79.04

_space_group_name_H-M_alt    "P 1"
_space_group_IT_number       1

loop_
  _space_group_symop_operation_xyz
  'x, y, z'

loop_
  _atom_site_type_symbol
  _atom_site_label
  _atom_site_symmetry_multiplicity
  _atom_site_fract_x
  _atom_site_fract_y
  _atom_site_fract_z
  _atom_site_occupancy
  Sm  Sm1       1.0  0.44178  0.34490  0.37281  1.0000
  Sm  Sm2       1.0  0.55822  0.65510  0.62719  1.0000
  O   O1        1.0  0.53320  0.49130  0.32412  1.0000
  O   O2        1.0  0.46680  0.50870  0.67588  1.0000
  N   N1        1.0  0.67920  0.36050  0.38301  1.0000
  N   N2        1.0  0.32080  0.63950  0.61699  1.0000
  C   C1        1.0  0.73510  0.44110  0.35861  1.0000
  C   C2        1.0  0.26490  0.55890  0.64139  1.0000
  C   C3        1.0  0.12860  0.88720  0.02190  1.0000
  C   C4        1.0  0.87140  0.11280  0.97810  1.0000
  H   H1        1.0  0.14010  0.81370  0.00690  1.0000
  H   H2        1.0  0.85990  0.18630  0.99310  1.0000
  Sm  Sm3       1.0  0.86938  0.04179  0.14725  1.0000
  Sm  Sm4       1.0  0.13062  0.95821  0.85275  1.0000
  O   O3        1.0  0.69650  0.58260  0.29881  1.0000
  O   O4        1.0  0.30350  0.41740  0.70119  1.0000
  N   N3        1.0  0.29500  0.34110  0.44177  1.0000
  N   N4        1.0  0.70500  0.65890  0.55823  1.0000
  C   C5        1.0  0.86230  0.45440  0.36399  1.0000
  C   C6        1.0  0.13770  0.54560  0.63601  1.0000
  H   H3        1.0  0.89800  0.51250  0.34740  1.0000
  H   H4        1.0  0.10200  0.48750  0.65260  1.0000
  Sr  Sr1       1.0  0.72691  0.56876  0.21372  1.0000
  Sr  Sr2       1.0  0.27309  0.43124  0.78628  1.0000
  O   O5        1.0  0.56360  0.20030  0.42674  1.0000
  O   O6        1.0  0.43640  0.79970  0.57326  1.0000
  N   N5        1.0  0.36260  0.33020  0.29538  1.0000
  N   N6        1.0  0.63740  0.66980  0.70462  1.0000
  C   C7        1.0  0.93570  0.37980  0.39446  1.0000
  C   C8        1.0  0.06430  0.62020  0.60554  1.0000
  H   H5        1.0  0.02210  0.38680  0.39870  1.0000
  H   H6        1.0  0.97790  0.61320  0.60130  1.0000
  O   O7        1.0  0.74290  0.12180  0.46226  1.0000
  O   O8        1.0  0.25710  0.87820  0.53774  1.0000
  N   N7        1.0  0.62910  0.02940  0.14628  1.0000
  N   N8        1.0  0.37090  0.97060  0.85372  1.0000
  C   C9        1.0  0.87970  0.29470  0.41858  1.0000
  C   C10       1.0  0.12030  0.70530  0.58142  1.0000
  H   H7        1.0  0.92850  0.24240  0.43890  1.0000
  H   H8        1.0  0.07150  0.75760  0.56110  1.0000
  O   O9        1.0  0.43300  0.51360  0.42340  1.0000
  O   O10       1.0  0.56700  0.48640  0.57660  1.0000
  C   C11       1.0  0.75210  0.28790  0.41242  1.0000
  C   C12       1.0  0.24790  0.71210  0.58758  1.0000
  N   N9        1.0  0.02560  0.01210  0.08009  1.0000
  N   N10       1.0  0.97440  0.98790  0.91991  1.0000
  O   O11       1.0  0.36160  0.61170  0.48506  1.0000
  O   O12       1.0  0.63840  0.38830  0.51494  1.0000
  C   C13       1.0  0.64840  0.51140  0.32419  1.0000
  C   C14       1.0  0.35160  0.48860  0.67581  1.0000
  N   N11       1.0  0.96570  0.08120  0.21865  1.0000
  N   N12       1.0  0.03430  0.91880  0.78135  1.0000
  O   O13       1.0  0.31440  0.17680  0.38019  1.0000
  O   O14       1.0  0.68560  0.82320  0.61981  1.0000
  C   C15       1.0  0.68120  0.19610  0.43632  1.0000
  C   C16       1.0  0.31880  0.80390  0.56368  1.0000
  O   O15       1.0  0.17830  0.07430  0.41662  1.0000
  O   O16       1.0  0.82170  0.92570  0.58338  1.0000
  C   C17       1.0  0.29030  0.42740  0.47165  1.0000
  C   C18       1.0  0.70970  0.57260  0.52835  1.0000
  O   O17       1.0  0.57010  0.18750  0.32701  1.0000
  O   O18       1.0  0.42990  0.81250  0.67299  1.0000
  C   C19       1.0  0.21830  0.42540  0.51058  1.0000
  C   C20       1.0  0.78170  0.57460  0.48942  1.0000
  H   H9        1.0  0.21550  0.48710  0.53090  1.0000
  H   H10       1.0  0.78450  0.51290  0.46910  1.0000
  O   O19       1.0  0.61710  0.08970  0.26366  1.0000
  O   O20       1.0  0.38290  0.91030  0.73634  1.0000
  C   C21       1.0  0.15080  0.33140  0.51910  1.0000
  C   C22       1.0  0.84920  0.66860  0.48090  1.0000
  H   H11       1.0  0.10140  0.32920  0.54520  1.0000
  H   H12       1.0  0.89860  0.67080  0.45480  1.0000
  O   O21       1.0  0.23660  0.48250  0.35282  1.0000
  O   O22       1.0  0.76340  0.51750  0.64718  1.0000
  C   C23       1.0  0.15720  0.24010  0.48852  1.0000
  C   C24       1.0  0.84280  0.75990  0.51148  1.0000
  H   H13       1.0  0.11400  0.17460  0.49380  1.0000
  H   H14       1.0  0.88600  0.82540  0.50620  1.0000
  O   O23       1.0  0.09040  0.57040  0.30459  1.0000
  O   O24       1.0  0.90960  0.42960  0.69541  1.0000
  C   C25       1.0  0.23000  0.24890  0.44957  1.0000
  C   C26       1.0  0.77000  0.75110  0.55043  1.0000
  O   O25       1.0  0.79200  0.89910  0.20039  1.0000
  O   O26       1.0  0.20800  0.10090  0.79961  1.0000
  C   C27       1.0  0.36780  0.52610  0.45921  1.0000
  C   C28       1.0  0.63220  0.47390  0.54079  1.0000
  O   O27       1.0  0.63980  0.80110  0.22964  1.0000
  O   O28       1.0  0.36020  0.19890  0.77036  1.0000
  C   C29       1.0  0.24030  0.15820  0.41324  1.0000
  C   C30       1.0  0.75970  0.84180  0.58676  1.0000
  O   O29       1.0  0.74170  0.16550  0.09073  1.0000
  O   O30       1.0  0.25830  0.83450  0.90927  1.0000
  C   C31       1.0  0.43480  0.25230  0.26731  1.0000
  C   C32       1.0  0.56520  0.74770  0.73269  1.0000
  O   O31       1.0  0.55340  0.25360  0.06263  1.0000
  O   O32       1.0  0.44660  0.74640  0.93737  1.0000
  C   C33       1.0  0.40470  0.24780  0.22387  1.0000
  C   C34       1.0  0.59530  0.75220  0.77613  1.0000
  H   H15       1.0  0.45860  0.19500  0.20470  1.0000
  H   H16       1.0  0.54140  0.80500  0.79530  1.0000
  O   O33       1.0  0.86840  0.85730  0.10223  1.0000
  O   O34       1.0  0.13160  0.14270  0.89777  1.0000
  C   C35       1.0  0.29320  0.32300  0.20946  1.0000
  C   C36       1.0  0.70680  0.67700  0.79054  1.0000
  H   H17       1.0  0.26910  0.32010  0.18040  1.0000
  H   H18       1.0  0.73090  0.67990  0.81960  1.0000
  O   O35       1.0  0.98430  0.71130  0.05972  1.0000
  O   O36       1.0  0.01570  0.28870  0.94028  1.0000
  C   C37       1.0  0.21720  0.40280  0.23824  1.0000
  C   C38       1.0  0.78280  0.59720  0.76176  1.0000
  H   H19       1.0  0.14090  0.45400  0.22910  1.0000
  H   H20       1.0  0.85910  0.54600  0.77090  1.0000
  O   O37       1.0  0.99740  0.20570  0.13038  1.0000
  O   O38       1.0  0.00260  0.79430  0.86962  1.0000
  C   C39       1.0  0.25670  0.40530  0.28116  1.0000
  C   C40       1.0  0.74330  0.59470  0.71884  1.0000
  O   O39       1.0  0.12980  0.29520  0.08632  1.0000
  O   O40       1.0  0.87020  0.70480  0.91368  1.0000
  C   C41       1.0  0.55090  0.17090  0.28725  1.0000
  C   C42       1.0  0.44910  0.82910  0.71275  1.0000
  O   O41       1.0  0.06420  0.89620  0.16782  1.0000
  O   O42       1.0  0.93580  0.10380  0.83218  1.0000
  C   C43       1.0  0.18680  0.49380  0.31508  1.0000
  C   C44       1.0  0.81320  0.50620  0.68492  1.0000
  O   O43       1.0  0.20840  0.81330  0.21741  1.0000
  O   O44       1.0  0.79160  0.18670  0.78259  1.0000
  C   C45       1.0  0.57830  0.95440  0.17432  1.0000
  C   C46       1.0  0.42170  0.04560  0.82568  1.0000
  O   O45       1.0  0.75690  0.22180  0.18808  1.0000
  O   O46       1.0  0.24310  0.77820  0.81192  1.0000
  C   C47       1.0  0.44890  0.94600  0.17528  1.0000
  C   C48       1.0  0.55110  0.05400  0.82472  1.0000
  H   H21       1.0  0.41650  0.89130  0.19450  1.0000
  H   H22       1.0  0.58350  0.10870  0.80550  1.0000
  O   O47       1.0  0.74230  0.35150  0.24400  1.0000
  O   O48       1.0  0.25770  0.64850  0.75600  1.0000
  C   C49       1.0  0.36700  0.02200  0.14650  1.0000
  C   C50       1.0  0.63300  0.97800  0.85350  1.0000
  H   H23       1.0  0.27810  0.01920  0.14640  1.0000
  H   H24       1.0  0.72190  0.98080  0.85360  1.0000
  O   O49       1.0  0.73210  0.67960  0.13840  1.0000
  O   O50       1.0  0.26790  0.32040  0.86160  1.0000
  H   H25       1.0  0.78580  0.72870  0.13850  1.0000
  H   H26       1.0  0.21420  0.27130  0.86150  1.0000
  H   H27       1.0  0.66220  0.68210  0.12450  1.0000
  H   H28       1.0  0.33780  0.31790  0.87550  1.0000
  C   C51       1.0  0.41830  0.10100  0.11819  1.0000
  C   C52       1.0  0.58170  0.89900  0.88181  1.0000
  H   H29       1.0  0.36440  0.15330  0.09920  1.0000
  H   H30       1.0  0.63560  0.84670  0.90080  1.0000
  O   O51       1.0  0.92620  0.43430  0.17270  1.0000
  O   O52       1.0  0.07380  0.56570  0.82730  1.0000
  H   H31       1.0  0.97810  0.47440  0.15920  1.0000
  H   H32       1.0  0.02190  0.52560  0.84080  1.0000
  H   H33       1.0  0.94510  0.36500  0.16020  1.0000
  H   H34       1.0  0.05490  0.63500  0.83980  1.0000
  C   C53       1.0  0.55000  0.10140  0.11844  1.0000
  C   C54       1.0  0.45000  0.89860  0.88156  1.0000
  O   O53       1.0  0.61540  0.44330  0.15714  1.0000
  O   O54       1.0  0.38460  0.55670  0.84286  1.0000
  H   H35       1.0  0.57460  0.49110  0.13780  1.0000
  H   H36       1.0  0.42540  0.50890  0.86220  1.0000
  H   H37       1.0  0.64790  0.37680  0.14420  1.0000
  H   H38       1.0  0.35210  0.62320  0.85580  1.0000
  C   C55       1.0  0.67700  0.87860  0.20426  1.0000
  C   C56       1.0  0.32300  0.12140  0.79574  1.0000
  O   O55       1.0  0.47970  0.58810  0.23783  1.0000
  O   O56       1.0  0.52030  0.41190  0.76217  1.0000
  H   H39       1.0  0.42560  0.60160  0.21720  1.0000
  H   H40       1.0  0.57440  0.39840  0.78280  1.0000
  H   H41       1.0  0.45270  0.52230  0.24510  1.0000
  H   H42       1.0  0.54730  0.47770  0.75490  1.0000
  C   C57       1.0  0.62010  0.18060  0.08816  1.0000
  C   C58       1.0  0.37990  0.81940  0.91184  1.0000
  O   O57       1.0  0.93890  0.65610  0.22497  1.0000
  O   O58       1.0  0.06110  0.34390  0.77503  1.0000
  H   H43       1.0  0.99420  0.64580  0.24530  1.0000
  H   H44       1.0  0.00580  0.35420  0.75470  1.0000
  H   H45       1.0  0.94520  0.71800  0.20840  1.0000
  H   H46       1.0  0.05480  0.28200  0.79160  1.0000
  C   C59       1.0  0.04160  0.90780  0.05768  1.0000
  C   C60       1.0  0.95840  0.09220  0.94232  1.0000
  C   C61       1.0  0.19790  0.97690  0.00878  1.0000
  C   C62       1.0  0.80210  0.02310  0.99122  1.0000
  H   H47       1.0  0.25540  0.96540  0.98440  1.0000
  H   H48       1.0  0.74460  0.03460  0.01560  1.0000
  C   C63       1.0  0.18120  0.08390  0.03214  1.0000
  C   C64       1.0  0.81880  0.91610  0.96786  1.0000
  H   H49       1.0  0.22720  0.14550  0.02380  1.0000
  H   H50       1.0  0.77280  0.85450  0.97620  1.0000
  C   C65       1.0  0.09520  0.09820  0.06809  1.0000
  C   C66       1.0  0.90480  0.90180  0.93191  1.0000
  C   C67       1.0  0.95830  0.81740  0.07447  1.0000
  C   C68       1.0  0.04170  0.18260  0.92553  1.0000
  C   C69       1.0  0.07230  0.21020  0.09680  1.0000
  C   C70       1.0  0.92770  0.78980  0.90320  1.0000
  C   C71       1.0  0.07180  0.00450  0.23254  1.0000
  C   C72       1.0  0.92820  0.99550  0.76746  1.0000
  C   C73       1.0  0.13380  0.02720  0.27008  1.0000
  C   C74       1.0  0.86620  0.97280  0.72992  1.0000
  H   H51       1.0  0.20740  0.97250  0.27950  1.0000
  H   H52       1.0  0.79260  0.02750  0.72050  1.0000
  C   C75       1.0  0.08490  0.13140  0.29298  1.0000
  C   C76       1.0  0.91510  0.86860  0.70702  1.0000
  H   H53       1.0  0.12650  0.14930  0.31790  1.0000
  H   H54       1.0  0.87350  0.85070  0.68210  1.0000
  C   C77       1.0  0.97390  0.20990  0.27923  1.0000
  C   C78       1.0  0.02610  0.79010  0.72077  1.0000
  H   H55       1.0  0.93920  0.28080  0.29470  1.0000
  H   H56       1.0  0.06080  0.71920  0.70530  1.0000
  C   C79       1.0  0.91570  0.18080  0.24204  1.0000
  C   C80       1.0  0.08430  0.81920  0.75796  1.0000
  C   C81       1.0  0.11970  0.89490  0.20401  1.0000
  C   C82       1.0  0.88030  0.10510  0.79599  1.0000
  C   C83       1.0  0.79490  0.25800  0.22368  1.0000
  C   C84       1.0  0.20510  0.74200  0.77632  1.0000
