data_image0
_chemical_formula_structural       Mg54C90H18C18H18C18H18C18H18C18H18C18H18C36H18C54H18C18H18C18H18C36H18C18H18C54H18C18H18C18H18C18H18C18H18C18H18C54H18C18H18C18H18C18H18C18H18C18H18C18H18C54H18C18H18C108H18C18H18C54H18C54H18C36H18C18H18C72H18C36H18C72H54O72C18H54O90H36O216C18H18C18H18C18H18C18H18C54H18C18
_chemical_formula_sum              "Mg54 C1368 H864 O378"
_cell_length_a       44.2587
_cell_length_b       44.2587
_cell_length_c       40.9798
_cell_angle_alpha    90
_cell_angle_beta     90
_cell_angle_gamma    120

_space_group_name_H-M_alt    "P 1"
_space_group_IT_number       1

loop_
  _space_group_symop_operation_xyz
  'x, y, z'

loop_
  _atom_site_type_symbol
  _atom_site_label
  _atom_site_symmetry_multiplicity
  _atom_site_fract_x
  _atom_site_fract_y
  _atom_site_fract_z
  _atom_site_occupancy
  Mg  Mg1       1.0  0.17370  0.21998  0.80644  1.0000
  Mg  Mg2       1.0  0.78002  0.95372  0.80644  1.0000
  Mg  Mg3       1.0  0.04628  0.82630  0.80644  1.0000
  Mg  Mg4       1.0  0.84037  0.55331  0.13977  1.0000
  Mg  Mg5       1.0  0.44669  0.28705  0.13977  1.0000
  Mg  Mg6       1.0  0.71295  0.15963  0.13977  1.0000
  Mg  Mg7       1.0  0.50703  0.88665  0.47311  1.0000
  Mg  Mg8       1.0  0.11335  0.62039  0.47311  1.0000
  Mg  Mg9       1.0  0.37961  0.49297  0.47311  1.0000
  Mg  Mg10      1.0  0.82630  0.78002  0.19356  1.0000
  Mg  Mg11      1.0  0.21998  0.04628  0.19356  1.0000
  Mg  Mg12      1.0  0.95372  0.17370  0.19356  1.0000
  Mg  Mg13      1.0  0.15963  0.44669  0.86023  1.0000
  Mg  Mg14      1.0  0.55331  0.71295  0.86023  1.0000
  Mg  Mg15      1.0  0.28705  0.84037  0.86023  1.0000
  Mg  Mg16      1.0  0.49297  0.11335  0.52689  1.0000
  Mg  Mg17      1.0  0.88665  0.37961  0.52689  1.0000
  Mg  Mg18      1.0  0.62039  0.50703  0.52689  1.0000
  Mg  Mg19      1.0  0.23539  0.19383  0.81511  1.0000
  Mg  Mg20      1.0  0.80617  0.04156  0.81511  1.0000
  Mg  Mg21      1.0  0.95844  0.76461  0.81511  1.0000
  Mg  Mg22      1.0  0.90206  0.52716  0.14844  1.0000
  Mg  Mg23      1.0  0.47284  0.37489  0.14844  1.0000
  Mg  Mg24      1.0  0.62511  0.09794  0.14844  1.0000
  Mg  Mg25      1.0  0.56872  0.86050  0.48178  1.0000
  Mg  Mg26      1.0  0.13950  0.70823  0.48178  1.0000
  Mg  Mg27      1.0  0.29177  0.43128  0.48178  1.0000
  Mg  Mg28      1.0  0.76461  0.80617  0.18489  1.0000
  Mg  Mg29      1.0  0.19383  0.95844  0.18489  1.0000
  Mg  Mg30      1.0  0.04156  0.23539  0.18489  1.0000
  Mg  Mg31      1.0  0.09794  0.47284  0.85156  1.0000
  Mg  Mg32      1.0  0.52716  0.62511  0.85156  1.0000
  Mg  Mg33      1.0  0.37489  0.90206  0.85156  1.0000
  Mg  Mg34      1.0  0.43128  0.13950  0.51822  1.0000
  Mg  Mg35      1.0  0.86050  0.29177  0.51822  1.0000
  Mg  Mg36      1.0  0.70823  0.56872  0.51822  1.0000
  Mg  Mg37      1.0  0.94736  0.18970  0.45843  1.0000
  Mg  Mg38      1.0  0.81030  0.75766  0.45843  1.0000
  Mg  Mg39      1.0  0.24234  0.05264  0.45843  1.0000
  Mg  Mg40      1.0  0.61403  0.52303  0.79176  1.0000
  Mg  Mg41      1.0  0.47697  0.09099  0.79176  1.0000
  Mg  Mg42      1.0  0.90901  0.38597  0.79176  1.0000
  Mg  Mg43      1.0  0.28069  0.85637  0.12510  1.0000
  Mg  Mg44      1.0  0.14363  0.42433  0.12510  1.0000
  Mg  Mg45      1.0  0.57567  0.71931  0.12510  1.0000
  Mg  Mg46      1.0  0.05264  0.81030  0.54157  1.0000
  Mg  Mg47      1.0  0.18970  0.24234  0.54157  1.0000
  Mg  Mg48      1.0  0.75766  0.94736  0.54157  1.0000
  Mg  Mg49      1.0  0.38597  0.47697  0.20824  1.0000
  Mg  Mg50      1.0  0.52303  0.90901  0.20824  1.0000
  Mg  Mg51      1.0  0.09099  0.61403  0.20824  1.0000
  Mg  Mg52      1.0  0.71931  0.14363  0.87490  1.0000
  Mg  Mg53      1.0  0.85637  0.57567  0.87490  1.0000
  Mg  Mg54      1.0  0.42433  0.28069  0.87490  1.0000
  C   C1        1.0  0.97560  0.21450  0.51690  1.0000
  C   C2        1.0  0.78550  0.76110  0.51690  1.0000
  C   C3        1.0  0.23890  0.02440  0.51690  1.0000
  C   C4        1.0  0.64227  0.54783  0.85023  1.0000
  C   C5        1.0  0.45217  0.09443  0.85023  1.0000
  C   C6        1.0  0.90557  0.35773  0.85023  1.0000
  C   C7        1.0  0.30893  0.88117  0.18357  1.0000
  C   C8        1.0  0.11883  0.42777  0.18357  1.0000
  C   C9        1.0  0.57223  0.69107  0.18357  1.0000
  C   C10       1.0  0.02440  0.78550  0.48310  1.0000
  C   C11       1.0  0.21450  0.23890  0.48310  1.0000
  C   C12       1.0  0.76110  0.97560  0.48310  1.0000
  C   C13       1.0  0.35773  0.45217  0.14977  1.0000
  C   C14       1.0  0.54783  0.90557  0.14977  1.0000
  C   C15       1.0  0.09443  0.64227  0.14977  1.0000
  C   C16       1.0  0.69107  0.11883  0.81643  1.0000
  C   C17       1.0  0.88117  0.57223  0.81643  1.0000
  C   C18       1.0  0.42777  0.30893  0.81643  1.0000
  C   C19       1.0  0.35477  0.37905  0.71094  1.0000
  C   C20       1.0  0.62095  0.97572  0.71094  1.0000
  C   C21       1.0  0.02428  0.64523  0.71094  1.0000
  C   C22       1.0  0.02144  0.71238  0.04427  1.0000
  C   C23       1.0  0.28762  0.30905  0.04427  1.0000
  C   C24       1.0  0.69095  0.97856  0.04427  1.0000
  C   C25       1.0  0.68810  0.04572  0.37761  1.0000
  C   C26       1.0  0.95428  0.64239  0.37761  1.0000
  C   C27       1.0  0.35761  0.31190  0.37761  1.0000
  C   C28       1.0  0.64523  0.62095  0.28906  1.0000
  C   C29       1.0  0.37905  0.02428  0.28906  1.0000
  C   C30       1.0  0.97572  0.35477  0.28906  1.0000
  C   C31       1.0  0.97856  0.28762  0.95573  1.0000
  C   C32       1.0  0.71238  0.69095  0.95573  1.0000
  C   C33       1.0  0.30905  0.02144  0.95573  1.0000
  C   C34       1.0  0.31190  0.95428  0.62239  1.0000
  C   C35       1.0  0.04572  0.35761  0.62239  1.0000
  C   C36       1.0  0.64239  0.68810  0.62239  1.0000
  C   C37       1.0  0.11950  0.20230  0.86030  1.0000
  C   C38       1.0  0.79770  0.91720  0.86030  1.0000
  C   C39       1.0  0.08280  0.88050  0.86030  1.0000
  C   C40       1.0  0.78617  0.53563  0.19363  1.0000
  C   C41       1.0  0.46437  0.25053  0.19363  1.0000
  C   C42       1.0  0.74947  0.21383  0.19363  1.0000
  C   C43       1.0  0.45283  0.86897  0.52697  1.0000
  C   C44       1.0  0.13103  0.58387  0.52697  1.0000
  C   C45       1.0  0.41613  0.54717  0.52697  1.0000
  C   C46       1.0  0.88050  0.79770  0.13970  1.0000
  C   C47       1.0  0.20230  0.08280  0.13970  1.0000
  C   C48       1.0  0.91720  0.11950  0.13970  1.0000
  C   C49       1.0  0.21383  0.46437  0.80637  1.0000
  C   C50       1.0  0.53563  0.74947  0.80637  1.0000
  C   C51       1.0  0.25053  0.78617  0.80637  1.0000
  C   C52       1.0  0.54717  0.13103  0.47303  1.0000
  C   C53       1.0  0.86897  0.41613  0.47303  1.0000
  C   C54       1.0  0.58387  0.45283  0.47303  1.0000
  C   C55       1.0  0.31090  0.21450  0.83850  1.0000
  C   C56       1.0  0.78550  0.09640  0.83850  1.0000
  C   C57       1.0  0.90360  0.68910  0.83850  1.0000
  C   C58       1.0  0.97757  0.54783  0.17183  1.0000
  C   C59       1.0  0.45217  0.42973  0.17183  1.0000
  C   C60       1.0  0.57027  0.02243  0.17183  1.0000
  C   C61       1.0  0.64423  0.88117  0.50517  1.0000
  C   C62       1.0  0.11883  0.76307  0.50517  1.0000
  C   C63       1.0  0.23693  0.35577  0.50517  1.0000
  C   C64       1.0  0.68910  0.78550  0.16150  1.0000
  C   C65       1.0  0.21450  0.90360  0.16150  1.0000
  C   C66       1.0  0.09640  0.31090  0.16150  1.0000
  C   C67       1.0  0.02243  0.45217  0.82817  1.0000
  C   C68       1.0  0.54783  0.57027  0.82817  1.0000
  C   C69       1.0  0.42973  0.97757  0.82817  1.0000
  C   C70       1.0  0.35577  0.11883  0.49483  1.0000
  C   C71       1.0  0.88117  0.23693  0.49483  1.0000
  C   C72       1.0  0.76307  0.64423  0.49483  1.0000
  C   C73       1.0  0.09453  0.05812  0.82711  1.0000
  C   C74       1.0  0.94188  0.03641  0.82711  1.0000
  C   C75       1.0  0.96359  0.90547  0.82711  1.0000
  C   C76       1.0  0.76120  0.39145  0.16044  1.0000
  C   C77       1.0  0.60855  0.36974  0.16044  1.0000
  C   C78       1.0  0.63026  0.23880  0.16044  1.0000
  C   C79       1.0  0.42786  0.72479  0.49378  1.0000
  C   C80       1.0  0.27521  0.70308  0.49378  1.0000
  C   C81       1.0  0.29692  0.57214  0.49378  1.0000
  C   C82       1.0  0.90547  0.94188  0.17289  1.0000
  C   C83       1.0  0.05812  0.96359  0.17289  1.0000
  C   C84       1.0  0.03641  0.09453  0.17289  1.0000
  C   C85       1.0  0.23880  0.60855  0.83956  1.0000
  C   C86       1.0  0.39145  0.63026  0.83956  1.0000
  C   C87       1.0  0.36974  0.76120  0.83956  1.0000
  C   C88       1.0  0.57214  0.27521  0.50622  1.0000
  C   C89       1.0  0.72479  0.29692  0.50622  1.0000
  C   C90       1.0  0.70308  0.42786  0.50622  1.0000
  H   H1        1.0  0.08930  0.03790  0.83850  1.0000
  H   H2        1.0  0.96210  0.05140  0.83850  1.0000
  H   H3        1.0  0.94860  0.91070  0.83850  1.0000
  H   H4        1.0  0.75597  0.37123  0.17183  1.0000
  H   H5        1.0  0.62877  0.38473  0.17183  1.0000
  H   H6        1.0  0.61527  0.24403  0.17183  1.0000
  H   H7        1.0  0.42263  0.70457  0.50517  1.0000
  H   H8        1.0  0.29543  0.71807  0.50517  1.0000
  H   H9        1.0  0.28193  0.57737  0.50517  1.0000
  H   H10       1.0  0.91070  0.96210  0.16150  1.0000
  H   H11       1.0  0.03790  0.94860  0.16150  1.0000
  H   H12       1.0  0.05140  0.08930  0.16150  1.0000
  H   H13       1.0  0.24403  0.62877  0.82817  1.0000
  H   H14       1.0  0.37123  0.61527  0.82817  1.0000
  H   H15       1.0  0.38473  0.75597  0.82817  1.0000
  H   H16       1.0  0.57737  0.29543  0.49483  1.0000
  H   H17       1.0  0.70457  0.28193  0.49483  1.0000
  H   H18       1.0  0.71807  0.42263  0.49483  1.0000
  C   C91       1.0  0.98620  0.34584  0.74934  1.0000
  C   C92       1.0  0.65416  0.64036  0.74934  1.0000
  C   C93       1.0  0.35964  0.01380  0.74934  1.0000
  C   C94       1.0  0.65287  0.67917  0.08267  1.0000
  C   C95       1.0  0.32083  0.97369  0.08267  1.0000
  C   C96       1.0  0.02631  0.34713  0.08267  1.0000
  C   C97       1.0  0.31953  0.01251  0.41601  1.0000
  C   C98       1.0  0.98749  0.30703  0.41601  1.0000
  C   C99       1.0  0.69297  0.68047  0.41601  1.0000
  C   C100      1.0  0.01380  0.65416  0.25066  1.0000
  C   C101      1.0  0.34584  0.35964  0.25066  1.0000
  C   C102      1.0  0.64036  0.98620  0.25066  1.0000
  C   C103      1.0  0.34713  0.32083  0.91733  1.0000
  C   C104      1.0  0.67917  0.02631  0.91733  1.0000
  C   C105      1.0  0.97369  0.65287  0.91733  1.0000
  C   C106      1.0  0.68047  0.98749  0.58399  1.0000
  C   C107      1.0  0.01251  0.69297  0.58399  1.0000
  C   C108      1.0  0.30703  0.31953  0.58399  1.0000
  H   H19       1.0  0.99830  0.36280  0.76500  1.0000
  H   H20       1.0  0.63720  0.63550  0.76500  1.0000
  H   H21       1.0  0.36450  0.00170  0.76500  1.0000
  H   H22       1.0  0.66497  0.69613  0.09833  1.0000
  H   H23       1.0  0.30387  0.96883  0.09833  1.0000
  H   H24       1.0  0.03117  0.33503  0.09833  1.0000
  H   H25       1.0  0.33163  0.02947  0.43167  1.0000
  H   H26       1.0  0.97053  0.30217  0.43167  1.0000
  H   H27       1.0  0.69783  0.66837  0.43167  1.0000
  H   H28       1.0  0.00170  0.63720  0.23500  1.0000
  H   H29       1.0  0.36280  0.36450  0.23500  1.0000
  H   H30       1.0  0.63550  0.99830  0.23500  1.0000
  H   H31       1.0  0.33503  0.30387  0.90167  1.0000
  H   H32       1.0  0.69613  0.03117  0.90167  1.0000
  H   H33       1.0  0.96883  0.66497  0.90167  1.0000
  H   H34       1.0  0.66837  0.97053  0.56833  1.0000
  H   H35       1.0  0.02947  0.69783  0.56833  1.0000
  H   H36       1.0  0.30217  0.33163  0.56833  1.0000
  C   C109      1.0  0.93816  0.31560  0.71680  1.0000
  C   C110      1.0  0.68440  0.62256  0.71680  1.0000
  C   C111      1.0  0.37744  0.06184  0.71680  1.0000
  C   C112      1.0  0.60483  0.64893  0.05013  1.0000
  C   C113      1.0  0.35107  0.95589  0.05013  1.0000
  C   C114      1.0  0.04411  0.39517  0.05013  1.0000
  C   C115      1.0  0.27149  0.98227  0.38347  1.0000
  C   C116      1.0  0.01773  0.28923  0.38347  1.0000
  C   C117      1.0  0.71077  0.72851  0.38347  1.0000
  C   C118      1.0  0.06184  0.68440  0.28320  1.0000
  C   C119      1.0  0.31560  0.37744  0.28320  1.0000
  C   C120      1.0  0.62256  0.93816  0.28320  1.0000
  C   C121      1.0  0.39517  0.35107  0.94987  1.0000
  C   C122      1.0  0.64893  0.04411  0.94987  1.0000
  C   C123      1.0  0.95589  0.60483  0.94987  1.0000
  C   C124      1.0  0.72851  0.01773  0.61653  1.0000
  C   C125      1.0  0.98227  0.71077  0.61653  1.0000
  C   C126      1.0  0.28923  0.27149  0.61653  1.0000
  H   H37       1.0  0.91580  0.30960  0.71010  1.0000
  H   H38       1.0  0.69040  0.60620  0.71010  1.0000
  H   H39       1.0  0.39380  0.08420  0.71010  1.0000
  H   H40       1.0  0.58247  0.64293  0.04343  1.0000
  H   H41       1.0  0.35707  0.93953  0.04343  1.0000
  H   H42       1.0  0.06047  0.41753  0.04343  1.0000
  H   H43       1.0  0.24913  0.97627  0.37677  1.0000
  H   H44       1.0  0.02373  0.27287  0.37677  1.0000
  H   H45       1.0  0.72713  0.75087  0.37677  1.0000
  H   H46       1.0  0.08420  0.69040  0.28990  1.0000
  H   H47       1.0  0.30960  0.39380  0.28990  1.0000
  H   H48       1.0  0.60620  0.91580  0.28990  1.0000
  H   H49       1.0  0.41753  0.35707  0.95657  1.0000
  H   H50       1.0  0.64293  0.06047  0.95657  1.0000
  H   H51       1.0  0.93953  0.58247  0.95657  1.0000
  H   H52       1.0  0.75087  0.02373  0.62323  1.0000
  H   H53       1.0  0.97627  0.72713  0.62323  1.0000
  H   H54       1.0  0.27287  0.24913  0.62323  1.0000
  C   C127      1.0  0.95586  0.29917  0.70114  1.0000
  C   C128      1.0  0.70083  0.65669  0.70114  1.0000
  C   C129      1.0  0.34331  0.04414  0.70114  1.0000
  C   C130      1.0  0.62253  0.63250  0.03447  1.0000
  C   C131      1.0  0.36750  0.99002  0.03447  1.0000
  C   C132      1.0  0.00998  0.37747  0.03447  1.0000
  C   C133      1.0  0.28919  0.96584  0.36781  1.0000
  C   C134      1.0  0.03416  0.32336  0.36781  1.0000
  C   C135      1.0  0.67664  0.71081  0.36781  1.0000
  C   C136      1.0  0.04414  0.70083  0.29886  1.0000
  C   C137      1.0  0.29917  0.34331  0.29886  1.0000
  C   C138      1.0  0.65669  0.95586  0.29886  1.0000
  C   C139      1.0  0.37747  0.36750  0.96553  1.0000
  C   C140      1.0  0.63250  0.00998  0.96553  1.0000
  C   C141      1.0  0.99002  0.62253  0.96553  1.0000
  C   C142      1.0  0.71081  0.03416  0.63219  1.0000
  C   C143      1.0  0.96584  0.67664  0.63219  1.0000
  C   C144      1.0  0.32336  0.28919  0.63219  1.0000
  H   H55       1.0  0.94520  0.28410  0.68370  1.0000
  H   H56       1.0  0.71590  0.66110  0.68370  1.0000
  H   H57       1.0  0.33890  0.05480  0.68370  1.0000
  H   H58       1.0  0.61187  0.61743  0.01703  1.0000
  H   H59       1.0  0.38257  0.99443  0.01703  1.0000
  H   H60       1.0  0.00557  0.38813  0.01703  1.0000
  H   H61       1.0  0.27853  0.95077  0.35037  1.0000
  H   H62       1.0  0.04923  0.32777  0.35037  1.0000
  H   H63       1.0  0.67223  0.72147  0.35037  1.0000
  H   H64       1.0  0.05480  0.71590  0.31630  1.0000
  H   H65       1.0  0.28410  0.33890  0.31630  1.0000
  H   H66       1.0  0.66110  0.94520  0.31630  1.0000
  H   H67       1.0  0.38813  0.38257  0.98297  1.0000
  H   H68       1.0  0.61743  0.00557  0.98297  1.0000
  H   H69       1.0  0.99443  0.61187  0.98297  1.0000
  H   H70       1.0  0.72147  0.04923  0.64963  1.0000
  H   H71       1.0  0.95077  0.67223  0.64963  1.0000
  H   H72       1.0  0.32777  0.27853  0.64963  1.0000
  C   C145      1.0  0.00068  0.32860  0.73581  1.0000
  C   C146      1.0  0.67140  0.67208  0.73581  1.0000
  C   C147      1.0  0.32792  0.99932  0.73581  1.0000
  C   C148      1.0  0.66735  0.66193  0.06914  1.0000
  C   C149      1.0  0.33807  0.00541  0.06914  1.0000
  C   C150      1.0  0.99459  0.33265  0.06914  1.0000
  C   C151      1.0  0.33401  0.99527  0.40248  1.0000
  C   C152      1.0  0.00473  0.33875  0.40248  1.0000
  C   C153      1.0  0.66125  0.66599  0.40248  1.0000
  C   C154      1.0  0.99932  0.67140  0.26419  1.0000
  C   C155      1.0  0.32860  0.32792  0.26419  1.0000
  C   C156      1.0  0.67208  0.00068  0.26419  1.0000
  C   C157      1.0  0.33265  0.33807  0.93086  1.0000
  C   C158      1.0  0.66193  0.99459  0.93086  1.0000
  C   C159      1.0  0.00541  0.66735  0.93086  1.0000
  C   C160      1.0  0.66599  0.00473  0.59752  1.0000
  C   C161      1.0  0.99527  0.66125  0.59752  1.0000
  C   C162      1.0  0.33875  0.33401  0.59752  1.0000
  H   H73       1.0  0.02210  0.33290  0.74380  1.0000
  H   H74       1.0  0.66710  0.68920  0.74380  1.0000
  H   H75       1.0  0.31080  0.97790  0.74380  1.0000
  H   H76       1.0  0.68877  0.66623  0.07713  1.0000
  H   H77       1.0  0.33377  0.02253  0.07713  1.0000
  H   H78       1.0  0.97747  0.31123  0.07713  1.0000
  H   H79       1.0  0.35543  0.99957  0.41047  1.0000
  H   H80       1.0  0.00043  0.35587  0.41047  1.0000
  H   H81       1.0  0.64413  0.64457  0.41047  1.0000
  H   H82       1.0  0.97790  0.66710  0.25620  1.0000
  H   H83       1.0  0.33290  0.31080  0.25620  1.0000
  H   H84       1.0  0.68920  0.02210  0.25620  1.0000
  H   H85       1.0  0.31123  0.33377  0.92287  1.0000
  H   H86       1.0  0.66623  0.97747  0.92287  1.0000
  H   H87       1.0  0.02253  0.68877  0.92287  1.0000
  H   H88       1.0  0.64457  0.00043  0.58953  1.0000
  H   H89       1.0  0.99957  0.64413  0.58953  1.0000
  H   H90       1.0  0.35587  0.35543  0.58953  1.0000
  C   C163      1.0  0.12815  0.08707  0.82832  1.0000
  C   C164      1.0  0.91293  0.04108  0.82832  1.0000
  C   C165      1.0  0.95892  0.87185  0.82832  1.0000
  C   C166      1.0  0.79482  0.42040  0.16165  1.0000
  C   C167      1.0  0.57960  0.37441  0.16165  1.0000
  C   C168      1.0  0.62559  0.20518  0.16165  1.0000
  C   C169      1.0  0.46148  0.75374  0.49499  1.0000
  C   C170      1.0  0.24626  0.70775  0.49499  1.0000
  C   C171      1.0  0.29225  0.53852  0.49499  1.0000
  C   C172      1.0  0.87185  0.91293  0.17168  1.0000
  C   C173      1.0  0.08707  0.95892  0.17168  1.0000
  C   C174      1.0  0.04108  0.12815  0.17168  1.0000
  C   C175      1.0  0.20518  0.57960  0.83835  1.0000
  C   C176      1.0  0.42040  0.62559  0.83835  1.0000
  C   C177      1.0  0.37441  0.79482  0.83835  1.0000
  C   C178      1.0  0.53852  0.24626  0.50501  1.0000
  C   C179      1.0  0.75374  0.29225  0.50501  1.0000
  C   C180      1.0  0.70775  0.46148  0.50501  1.0000
  H   H91       1.0  0.14550  0.08570  0.84000  1.0000
  H   H92       1.0  0.91430  0.05980  0.84000  1.0000
  H   H93       1.0  0.94020  0.85450  0.84000  1.0000
  H   H94       1.0  0.81217  0.41903  0.17333  1.0000
  H   H95       1.0  0.58097  0.39313  0.17333  1.0000
  H   H96       1.0  0.60687  0.18783  0.17333  1.0000
  H   H97       1.0  0.47883  0.75237  0.50667  1.0000
  H   H98       1.0  0.24763  0.72647  0.50667  1.0000
  H   H99       1.0  0.27353  0.52117  0.50667  1.0000
  H   H100      1.0  0.85450  0.91430  0.16000  1.0000
  H   H101      1.0  0.08570  0.94020  0.16000  1.0000
  H   H102      1.0  0.05980  0.14550  0.16000  1.0000
  H   H103      1.0  0.18783  0.58097  0.82667  1.0000
  H   H104      1.0  0.41903  0.60687  0.82667  1.0000
  H   H105      1.0  0.39313  0.81217  0.82667  1.0000
  H   H106      1.0  0.52117  0.24763  0.49333  1.0000
  H   H107      1.0  0.75237  0.27353  0.49333  1.0000
  H   H108      1.0  0.72647  0.47883  0.49333  1.0000
  C   C181      1.0  0.96630  0.15130  0.44990  1.0000
  C   C182      1.0  0.84870  0.81500  0.44990  1.0000
  C   C183      1.0  0.18500  0.03370  0.44990  1.0000
  C   C184      1.0  0.63297  0.48463  0.78323  1.0000
  C   C185      1.0  0.51537  0.14833  0.78323  1.0000
  C   C186      1.0  0.85167  0.36703  0.78323  1.0000
  C   C187      1.0  0.29963  0.81797  0.11657  1.0000
  C   C188      1.0  0.18203  0.48167  0.11657  1.0000
  C   C189      1.0  0.51833  0.70037  0.11657  1.0000
  C   C190      1.0  0.03370  0.84870  0.55010  1.0000
  C   C191      1.0  0.15130  0.18500  0.55010  1.0000
  C   C192      1.0  0.81500  0.96630  0.55010  1.0000
  C   C193      1.0  0.36703  0.51537  0.21677  1.0000
  C   C194      1.0  0.48463  0.85167  0.21677  1.0000
  C   C195      1.0  0.14833  0.63297  0.21677  1.0000
  C   C196      1.0  0.70037  0.18203  0.88343  1.0000
  C   C197      1.0  0.81797  0.51833  0.88343  1.0000
  C   C198      1.0  0.48167  0.29963  0.88343  1.0000
  C   C199      1.0  0.01816  0.23785  0.56146  1.0000
  C   C200      1.0  0.76215  0.78031  0.56146  1.0000
  C   C201      1.0  0.21969  0.98184  0.56146  1.0000
  C   C202      1.0  0.68483  0.57118  0.89479  1.0000
  C   C203      1.0  0.42882  0.11364  0.89479  1.0000
  C   C204      1.0  0.88636  0.31517  0.89479  1.0000
  C   C205      1.0  0.35149  0.90452  0.22813  1.0000
  C   C206      1.0  0.09548  0.44698  0.22813  1.0000
  C   C207      1.0  0.55302  0.64851  0.22813  1.0000
  C   C208      1.0  0.98184  0.76215  0.43854  1.0000
  C   C209      1.0  0.23785  0.21969  0.43854  1.0000
  C   C210      1.0  0.78031  0.01816  0.43854  1.0000
  C   C211      1.0  0.31517  0.42882  0.10521  1.0000
  C   C212      1.0  0.57118  0.88636  0.10521  1.0000
  C   C213      1.0  0.11364  0.68483  0.10521  1.0000
  C   C214      1.0  0.64851  0.09548  0.77187  1.0000
  C   C215      1.0  0.90452  0.55302  0.77187  1.0000
  C   C216      1.0  0.44698  0.35149  0.77187  1.0000
  H   H109      1.0  0.03580  0.24100  0.54720  1.0000
  H   H110      1.0  0.75900  0.79480  0.54720  1.0000
  H   H111      1.0  0.20520  0.96420  0.54720  1.0000
  H   H112      1.0  0.70247  0.57433  0.88053  1.0000
  H   H113      1.0  0.42567  0.12813  0.88053  1.0000
  H   H114      1.0  0.87187  0.29753  0.88053  1.0000
  H   H115      1.0  0.36913  0.90767  0.21387  1.0000
  H   H116      1.0  0.09233  0.46147  0.21387  1.0000
  H   H117      1.0  0.53853  0.63087  0.21387  1.0000
  H   H118      1.0  0.96420  0.75900  0.45280  1.0000
  H   H119      1.0  0.24100  0.20520  0.45280  1.0000
  H   H120      1.0  0.79480  0.03580  0.45280  1.0000
  H   H121      1.0  0.29753  0.42567  0.11947  1.0000
  H   H122      1.0  0.57433  0.87187  0.11947  1.0000
  H   H123      1.0  0.12813  0.70247  0.11947  1.0000
  H   H124      1.0  0.63087  0.09233  0.78613  1.0000
  H   H125      1.0  0.90767  0.53853  0.78613  1.0000
  H   H126      1.0  0.46147  0.36913  0.78613  1.0000
  C   C217      1.0  0.06903  0.05980  0.80884  1.0000
  C   C218      1.0  0.94020  0.00923  0.80884  1.0000
  C   C219      1.0  0.99077  0.93097  0.80884  1.0000
  C   C220      1.0  0.73570  0.39313  0.14217  1.0000
  C   C221      1.0  0.60687  0.34256  0.14217  1.0000
  C   C222      1.0  0.65744  0.26430  0.14217  1.0000
  C   C223      1.0  0.40236  0.72647  0.47551  1.0000
  C   C224      1.0  0.27353  0.67590  0.47551  1.0000
  C   C225      1.0  0.32410  0.59764  0.47551  1.0000
  C   C226      1.0  0.93097  0.94020  0.19116  1.0000
  C   C227      1.0  0.05980  0.99077  0.19116  1.0000
  C   C228      1.0  0.00923  0.06903  0.19116  1.0000
  C   C229      1.0  0.26430  0.60687  0.85783  1.0000
  C   C230      1.0  0.39313  0.65744  0.85783  1.0000
  C   C231      1.0  0.34256  0.73570  0.85783  1.0000
  C   C232      1.0  0.59764  0.27353  0.52449  1.0000
  C   C233      1.0  0.72647  0.32410  0.52449  1.0000
  C   C234      1.0  0.67590  0.40236  0.52449  1.0000
  C   C235      1.0  0.95295  0.33835  0.73993  1.0000
  C   C236      1.0  0.66165  0.61460  0.73993  1.0000
  C   C237      1.0  0.38540  0.04705  0.73993  1.0000
  C   C238      1.0  0.61962  0.67168  0.07326  1.0000
  C   C239      1.0  0.32832  0.94793  0.07326  1.0000
  C   C240      1.0  0.05207  0.38038  0.07326  1.0000
  C   C241      1.0  0.28628  0.00502  0.40660  1.0000
  C   C242      1.0  0.99498  0.28127  0.40660  1.0000
  C   C243      1.0  0.71873  0.71372  0.40660  1.0000
  C   C244      1.0  0.04705  0.66165  0.26007  1.0000
  C   C245      1.0  0.33835  0.38540  0.26007  1.0000
  C   C246      1.0  0.61460  0.95295  0.26007  1.0000
  C   C247      1.0  0.38038  0.32832  0.92674  1.0000
  C   C248      1.0  0.67168  0.05207  0.92674  1.0000
  C   C249      1.0  0.94793  0.61962  0.92674  1.0000
  C   C250      1.0  0.71372  0.99498  0.59340  1.0000
  C   C251      1.0  0.00502  0.71873  0.59340  1.0000
  C   C252      1.0  0.28127  0.28628  0.59340  1.0000
  C   C253      1.0  0.45843  0.44826  0.75196  1.0000
  C   C254      1.0  0.55174  0.01017  0.75196  1.0000
  C   C255      1.0  0.98983  0.54157  0.75196  1.0000
  C   C256      1.0  0.12510  0.78159  0.08529  1.0000
  C   C257      1.0  0.21841  0.34350  0.08529  1.0000
  C   C258      1.0  0.65650  0.87490  0.08529  1.0000
  C   C259      1.0  0.79176  0.11493  0.41863  1.0000
  C   C260      1.0  0.88507  0.67684  0.41863  1.0000
  C   C261      1.0  0.32316  0.20824  0.41863  1.0000
  C   C262      1.0  0.54157  0.55174  0.24804  1.0000
  C   C263      1.0  0.44826  0.98983  0.24804  1.0000
  C   C264      1.0  0.01017  0.45843  0.24804  1.0000
  C   C265      1.0  0.87490  0.21841  0.91471  1.0000
  C   C266      1.0  0.78159  0.65650  0.91471  1.0000
  C   C267      1.0  0.34350  0.12510  0.91471  1.0000
  C   C268      1.0  0.20824  0.88507  0.58137  1.0000
  C   C269      1.0  0.11493  0.32316  0.58137  1.0000
  C   C270      1.0  0.67684  0.79176  0.58137  1.0000
  H   H127      1.0  0.44000  0.44230  0.76630  1.0000
  H   H128      1.0  0.55770  0.99770  0.76630  1.0000
  H   H129      1.0  0.00230  0.56000  0.76630  1.0000
  H   H130      1.0  0.10667  0.77563  0.09963  1.0000
  H   H131      1.0  0.22437  0.33103  0.09963  1.0000
  H   H132      1.0  0.66897  0.89333  0.09963  1.0000
  H   H133      1.0  0.77333  0.10897  0.43297  1.0000
  H   H134      1.0  0.89103  0.66437  0.43297  1.0000
  H   H135      1.0  0.33563  0.22667  0.43297  1.0000
  H   H136      1.0  0.56000  0.55770  0.23370  1.0000
  H   H137      1.0  0.44230  0.00230  0.23370  1.0000
  H   H138      1.0  0.99770  0.44000  0.23370  1.0000
  H   H139      1.0  0.89333  0.22437  0.90037  1.0000
  H   H140      1.0  0.77563  0.66897  0.90037  1.0000
  H   H141      1.0  0.33103  0.10667  0.90037  1.0000
  H   H142      1.0  0.22667  0.89103  0.56703  1.0000
  H   H143      1.0  0.10897  0.33563  0.56703  1.0000
  H   H144      1.0  0.66437  0.77333  0.56703  1.0000
  C   C271      1.0  0.96014  0.22234  0.57155  1.0000
  C   C272      1.0  0.77766  0.73780  0.57155  1.0000
  C   C273      1.0  0.26220  0.03986  0.57155  1.0000
  C   C274      1.0  0.62681  0.55567  0.90488  1.0000
  C   C275      1.0  0.44433  0.07113  0.90488  1.0000
  C   C276      1.0  0.92887  0.37319  0.90488  1.0000
  C   C277      1.0  0.29347  0.88901  0.23822  1.0000
  C   C278      1.0  0.11099  0.40447  0.23822  1.0000
  C   C279      1.0  0.59553  0.70653  0.23822  1.0000
  C   C280      1.0  0.03986  0.77766  0.42845  1.0000
  C   C281      1.0  0.22234  0.26220  0.42845  1.0000
  C   C282      1.0  0.73780  0.96014  0.42845  1.0000
  C   C283      1.0  0.37319  0.44433  0.09512  1.0000
  C   C284      1.0  0.55567  0.92887  0.09512  1.0000
  C   C285      1.0  0.07113  0.62681  0.09512  1.0000
  C   C286      1.0  0.70653  0.11099  0.76178  1.0000
  C   C287      1.0  0.88901  0.59553  0.76178  1.0000
  C   C288      1.0  0.40447  0.29347  0.76178  1.0000
  H   H145      1.0  0.93740  0.21390  0.56430  1.0000
  H   H146      1.0  0.78610  0.72350  0.56430  1.0000
  H   H147      1.0  0.27650  0.06260  0.56430  1.0000
  H   H148      1.0  0.60407  0.54723  0.89763  1.0000
  H   H149      1.0  0.45277  0.05683  0.89763  1.0000
  H   H150      1.0  0.94317  0.39593  0.89763  1.0000
  H   H151      1.0  0.27073  0.88057  0.23097  1.0000
  H   H152      1.0  0.11943  0.39017  0.23097  1.0000
  H   H153      1.0  0.60983  0.72927  0.23097  1.0000
  H   H154      1.0  0.06260  0.78610  0.43570  1.0000
  H   H155      1.0  0.21390  0.27650  0.43570  1.0000
  H   H156      1.0  0.72350  0.93740  0.43570  1.0000
  H   H157      1.0  0.39593  0.45277  0.10237  1.0000
  H   H158      1.0  0.54723  0.94317  0.10237  1.0000
  H   H159      1.0  0.05683  0.60407  0.10237  1.0000
  H   H160      1.0  0.72927  0.11943  0.76903  1.0000
  H   H161      1.0  0.88057  0.60983  0.76903  1.0000
  H   H162      1.0  0.39017  0.27073  0.76903  1.0000
  C   C289      1.0  0.07356  0.23117  0.70913  1.0000
  C   C290      1.0  0.76883  0.84239  0.70913  1.0000
  C   C291      1.0  0.15761  0.92644  0.70913  1.0000
  C   C292      1.0  0.74023  0.56450  0.04246  1.0000
  C   C293      1.0  0.43550  0.17572  0.04246  1.0000
  C   C294      1.0  0.82428  0.25977  0.04246  1.0000
  C   C295      1.0  0.40689  0.89784  0.37580  1.0000
  C   C296      1.0  0.10216  0.50906  0.37580  1.0000
  C   C297      1.0  0.49094  0.59311  0.37580  1.0000
  C   C298      1.0  0.92644  0.76883  0.29087  1.0000
  C   C299      1.0  0.23117  0.15761  0.29087  1.0000
  C   C300      1.0  0.84239  0.07356  0.29087  1.0000
  C   C301      1.0  0.25977  0.43550  0.95754  1.0000
  C   C302      1.0  0.56450  0.82428  0.95754  1.0000
  C   C303      1.0  0.17572  0.74023  0.95754  1.0000
  C   C304      1.0  0.59311  0.10216  0.62420  1.0000
  C   C305      1.0  0.89784  0.49094  0.62420  1.0000
  C   C306      1.0  0.50906  0.40689  0.62420  1.0000
  H   H163      1.0  0.06090  0.21690  0.69180  1.0000
  H   H164      1.0  0.78310  0.84400  0.69180  1.0000
  H   H165      1.0  0.15600  0.93910  0.69180  1.0000
  H   H166      1.0  0.72757  0.55023  0.02513  1.0000
  H   H167      1.0  0.44977  0.17733  0.02513  1.0000
  H   H168      1.0  0.82267  0.27243  0.02513  1.0000
  H   H169      1.0  0.39423  0.88357  0.35847  1.0000
  H   H170      1.0  0.11643  0.51067  0.35847  1.0000
  H   H171      1.0  0.48933  0.60577  0.35847  1.0000
  H   H172      1.0  0.93910  0.78310  0.30820  1.0000
  H   H173      1.0  0.21690  0.15600  0.30820  1.0000
  H   H174      1.0  0.84400  0.06090  0.30820  1.0000
  H   H175      1.0  0.27243  0.44977  0.97487  1.0000
  H   H176      1.0  0.55023  0.82267  0.97487  1.0000
  H   H177      1.0  0.17733  0.72757  0.97487  1.0000
  H   H178      1.0  0.60577  0.11643  0.64153  1.0000
  H   H179      1.0  0.88357  0.48933  0.64153  1.0000
  H   H180      1.0  0.51067  0.39423  0.64153  1.0000
  C   C307      1.0  0.92730  0.35320  0.75780  1.0000
  C   C308      1.0  0.64680  0.57410  0.75780  1.0000
  C   C309      1.0  0.42590  0.07270  0.75780  1.0000
  C   C310      1.0  0.59397  0.68653  0.09113  1.0000
  C   C311      1.0  0.31347  0.90743  0.09113  1.0000
  C   C312      1.0  0.09257  0.40603  0.09113  1.0000
  C   C313      1.0  0.26063  0.01987  0.42447  1.0000
  C   C314      1.0  0.98013  0.24077  0.42447  1.0000
  C   C315      1.0  0.75923  0.73937  0.42447  1.0000
  C   C316      1.0  0.07270  0.64680  0.24220  1.0000
  C   C317      1.0  0.35320  0.42590  0.24220  1.0000
  C   C318      1.0  0.57410  0.92730  0.24220  1.0000
  C   C319      1.0  0.40603  0.31347  0.90887  1.0000
  C   C320      1.0  0.68653  0.09257  0.90887  1.0000
  C   C321      1.0  0.90743  0.59397  0.90887  1.0000
  C   C322      1.0  0.73937  0.98013  0.57553  1.0000
  C   C323      1.0  0.01987  0.75923  0.57553  1.0000
  C   C324      1.0  0.24077  0.26063  0.57553  1.0000
  C   C325      1.0  0.09742  0.22464  0.72646  1.0000
  C   C326      1.0  0.77536  0.87278  0.72646  1.0000
  C   C327      1.0  0.12722  0.90258  0.72646  1.0000
  C   C328      1.0  0.76409  0.55797  0.05979  1.0000
  C   C329      1.0  0.44203  0.20611  0.05979  1.0000
  C   C330      1.0  0.79389  0.23591  0.05979  1.0000
  C   C331      1.0  0.43075  0.89131  0.39313  1.0000
  C   C332      1.0  0.10869  0.53945  0.39313  1.0000
  C   C333      1.0  0.46055  0.56925  0.39313  1.0000
  C   C334      1.0  0.90258  0.77536  0.27354  1.0000
  C   C335      1.0  0.22464  0.12722  0.27354  1.0000
  C   C336      1.0  0.87278  0.09742  0.27354  1.0000
  C   C337      1.0  0.23591  0.44203  0.94021  1.0000
  C   C338      1.0  0.55797  0.79389  0.94021  1.0000
  C   C339      1.0  0.20611  0.76409  0.94021  1.0000
  C   C340      1.0  0.56925  0.10869  0.60687  1.0000
  C   C341      1.0  0.89131  0.46055  0.60687  1.0000
  C   C342      1.0  0.53945  0.43075  0.60687  1.0000
  H   H181      1.0  0.10150  0.20700  0.71940  1.0000
  H   H182      1.0  0.79300  0.89450  0.71940  1.0000
  H   H183      1.0  0.10550  0.89850  0.71940  1.0000
  H   H184      1.0  0.76817  0.54033  0.05273  1.0000
  H   H185      1.0  0.45967  0.22783  0.05273  1.0000
  H   H186      1.0  0.77217  0.23183  0.05273  1.0000
  H   H187      1.0  0.43483  0.87367  0.38607  1.0000
  H   H188      1.0  0.12633  0.56117  0.38607  1.0000
  H   H189      1.0  0.43883  0.56517  0.38607  1.0000
  H   H190      1.0  0.89850  0.79300  0.28060  1.0000
  H   H191      1.0  0.20700  0.10550  0.28060  1.0000
  H   H192      1.0  0.89450  0.10150  0.28060  1.0000
  H   H193      1.0  0.23183  0.45967  0.94727  1.0000
  H   H194      1.0  0.54033  0.77217  0.94727  1.0000
  H   H195      1.0  0.22783  0.76817  0.94727  1.0000
  H   H196      1.0  0.56517  0.12633  0.61393  1.0000
  H   H197      1.0  0.87367  0.43883  0.61393  1.0000
  H   H198      1.0  0.56117  0.43483  0.61393  1.0000
  C   C343      1.0  0.02856  0.99602  0.80711  1.0000
  C   C344      1.0  0.00398  0.03254  0.80711  1.0000
  C   C345      1.0  0.96746  0.97144  0.80711  1.0000
  C   C346      1.0  0.69523  0.32935  0.14044  1.0000
  C   C347      1.0  0.67065  0.36587  0.14044  1.0000
  C   C348      1.0  0.63413  0.30477  0.14044  1.0000
  C   C349      1.0  0.36189  0.66269  0.47378  1.0000
  C   C350      1.0  0.33731  0.69921  0.47378  1.0000
  C   C351      1.0  0.30079  0.63811  0.47378  1.0000
  C   C352      1.0  0.97144  0.00398  0.19289  1.0000
  C   C353      1.0  0.99602  0.96746  0.19289  1.0000
  C   C354      1.0  0.03254  0.02856  0.19289  1.0000
  C   C355      1.0  0.30477  0.67065  0.85956  1.0000
  C   C356      1.0  0.32935  0.63413  0.85956  1.0000
  C   C357      1.0  0.36587  0.69523  0.85956  1.0000
  C   C358      1.0  0.63811  0.33731  0.52622  1.0000
  C   C359      1.0  0.66269  0.30079  0.52622  1.0000
  C   C360      1.0  0.69921  0.36189  0.52622  1.0000
  H   H199      1.0  0.04800  0.99320  0.80830  1.0000
  H   H200      1.0  0.00680  0.05480  0.80830  1.0000
  H   H201      1.0  0.94520  0.95200  0.80830  1.0000
  H   H202      1.0  0.71467  0.32653  0.14163  1.0000
  H   H203      1.0  0.67347  0.38813  0.14163  1.0000
  H   H204      1.0  0.61187  0.28533  0.14163  1.0000
  H   H205      1.0  0.38133  0.65987  0.47497  1.0000
  H   H206      1.0  0.34013  0.72147  0.47497  1.0000
  H   H207      1.0  0.27853  0.61867  0.47497  1.0000
  H   H208      1.0  0.95200  0.00680  0.19170  1.0000
  H   H209      1.0  0.99320  0.94520  0.19170  1.0000
  H   H210      1.0  0.05480  0.04800  0.19170  1.0000
  H   H211      1.0  0.28533  0.67347  0.85837  1.0000
  H   H212      1.0  0.32653  0.61187  0.85837  1.0000
  H   H213      1.0  0.38813  0.71467  0.85837  1.0000
  H   H214      1.0  0.61867  0.34013  0.52503  1.0000
  H   H215      1.0  0.65987  0.27853  0.52503  1.0000
  H   H216      1.0  0.72147  0.38133  0.52503  1.0000
  C   C361      1.0  0.17179  0.14799  0.81426  1.0000
  C   C362      1.0  0.85201  0.02380  0.81426  1.0000
  C   C363      1.0  0.97620  0.82821  0.81426  1.0000
  C   C364      1.0  0.83846  0.48132  0.14759  1.0000
  C   C365      1.0  0.51868  0.35713  0.14759  1.0000
  C   C366      1.0  0.64287  0.16154  0.14759  1.0000
  C   C367      1.0  0.50512  0.81466  0.48093  1.0000
  C   C368      1.0  0.18534  0.69047  0.48093  1.0000
  C   C369      1.0  0.30953  0.49488  0.48093  1.0000
  C   C370      1.0  0.82821  0.85201  0.18574  1.0000
  C   C371      1.0  0.14799  0.97620  0.18574  1.0000
  C   C372      1.0  0.02380  0.17179  0.18574  1.0000
  C   C373      1.0  0.16154  0.51868  0.85241  1.0000
  C   C374      1.0  0.48132  0.64287  0.85241  1.0000
  C   C375      1.0  0.35713  0.83846  0.85241  1.0000
  C   C376      1.0  0.49488  0.18534  0.51907  1.0000
  C   C377      1.0  0.81466  0.30953  0.51907  1.0000
  C   C378      1.0  0.69047  0.50512  0.51907  1.0000
  C   C379      1.0  0.03439  0.02980  0.80629  1.0000
  C   C380      1.0  0.97020  0.00459  0.80629  1.0000
  C   C381      1.0  0.99541  0.96561  0.80629  1.0000
  C   C382      1.0  0.70106  0.36313  0.13962  1.0000
  C   C383      1.0  0.63687  0.33792  0.13962  1.0000
  C   C384      1.0  0.66208  0.29894  0.13962  1.0000
  C   C385      1.0  0.36772  0.69647  0.47296  1.0000
  C   C386      1.0  0.30353  0.67126  0.47296  1.0000
  C   C387      1.0  0.32874  0.63228  0.47296  1.0000
  C   C388      1.0  0.96561  0.97020  0.19371  1.0000
  C   C389      1.0  0.02980  0.99541  0.19371  1.0000
  C   C390      1.0  0.00459  0.03439  0.19371  1.0000
  C   C391      1.0  0.29894  0.63687  0.86038  1.0000
  C   C392      1.0  0.36313  0.66208  0.86038  1.0000
  C   C393      1.0  0.33792  0.70106  0.86038  1.0000
  C   C394      1.0  0.63228  0.30353  0.52704  1.0000
  C   C395      1.0  0.69647  0.32874  0.52704  1.0000
  C   C396      1.0  0.67126  0.36772  0.52704  1.0000
  C   C397      1.0  0.96758  0.23219  0.60322  1.0000
  C   C398      1.0  0.76781  0.73539  0.60322  1.0000
  C   C399      1.0  0.26461  0.03242  0.60322  1.0000
  C   C400      1.0  0.63425  0.56552  0.93655  1.0000
  C   C401      1.0  0.43448  0.06872  0.93655  1.0000
  C   C402      1.0  0.93128  0.36575  0.93655  1.0000
  C   C403      1.0  0.30091  0.89886  0.26989  1.0000
  C   C404      1.0  0.10114  0.40206  0.26989  1.0000
  C   C405      1.0  0.59794  0.69909  0.26989  1.0000
  C   C406      1.0  0.03242  0.76781  0.39678  1.0000
  C   C407      1.0  0.23219  0.26461  0.39678  1.0000
  C   C408      1.0  0.73539  0.96758  0.39678  1.0000
  C   C409      1.0  0.36575  0.43448  0.06345  1.0000
  C   C410      1.0  0.56552  0.93128  0.06345  1.0000
  C   C411      1.0  0.06872  0.63425  0.06345  1.0000
  C   C412      1.0  0.69909  0.10114  0.73011  1.0000
  C   C413      1.0  0.89886  0.59794  0.73011  1.0000
  C   C414      1.0  0.40206  0.30091  0.73011  1.0000
  H   H217      1.0  0.94990  0.23040  0.61680  1.0000
  H   H218      1.0  0.76960  0.71950  0.61680  1.0000
  H   H219      1.0  0.28050  0.05010  0.61680  1.0000
  H   H220      1.0  0.61657  0.56373  0.95013  1.0000
  H   H221      1.0  0.43627  0.05283  0.95013  1.0000
  H   H222      1.0  0.94717  0.38343  0.95013  1.0000
  H   H223      1.0  0.28323  0.89707  0.28347  1.0000
  H   H224      1.0  0.10293  0.38617  0.28347  1.0000
  H   H225      1.0  0.61383  0.71677  0.28347  1.0000
  H   H226      1.0  0.05010  0.76960  0.38320  1.0000
  H   H227      1.0  0.23040  0.28050  0.38320  1.0000
  H   H228      1.0  0.71950  0.94990  0.38320  1.0000
  H   H229      1.0  0.38343  0.43627  0.04987  1.0000
  H   H230      1.0  0.56373  0.94717  0.04987  1.0000
  H   H231      1.0  0.05283  0.61657  0.04987  1.0000
  H   H232      1.0  0.71677  0.10293  0.71653  1.0000
  H   H233      1.0  0.89707  0.61383  0.71653  1.0000
  H   H234      1.0  0.38617  0.28323  0.71653  1.0000
  C   C415      1.0  0.49238  0.46311  0.76328  1.0000
  C   C416      1.0  0.53689  0.02927  0.76328  1.0000
  C   C417      1.0  0.97073  0.50762  0.76328  1.0000
  C   C418      1.0  0.15905  0.79644  0.09661  1.0000
  C   C419      1.0  0.20356  0.36260  0.09661  1.0000
  C   C420      1.0  0.63740  0.84095  0.09661  1.0000
  C   C421      1.0  0.82571  0.12978  0.42995  1.0000
  C   C422      1.0  0.87022  0.69594  0.42995  1.0000
  C   C423      1.0  0.30406  0.17429  0.42995  1.0000
  C   C424      1.0  0.50762  0.53689  0.23672  1.0000
  C   C425      1.0  0.46311  0.97073  0.23672  1.0000
  C   C426      1.0  0.02927  0.49238  0.23672  1.0000
  C   C427      1.0  0.84095  0.20356  0.90339  1.0000
  C   C428      1.0  0.79644  0.63740  0.90339  1.0000
  C   C429      1.0  0.36260  0.15905  0.90339  1.0000
  C   C430      1.0  0.17429  0.87022  0.57005  1.0000
  C   C431      1.0  0.12978  0.30406  0.57005  1.0000
  C   C432      1.0  0.69594  0.82571  0.57005  1.0000
  H   H235      1.0  0.49650  0.46620  0.78560  1.0000
  H   H236      1.0  0.53380  0.03030  0.78560  1.0000
  H   H237      1.0  0.96970  0.50350  0.78560  1.0000
  H   H238      1.0  0.16317  0.79953  0.11893  1.0000
  H   H239      1.0  0.20047  0.36363  0.11893  1.0000
  H   H240      1.0  0.63637  0.83683  0.11893  1.0000
  H   H241      1.0  0.82983  0.13287  0.45227  1.0000
  H   H242      1.0  0.86713  0.69697  0.45227  1.0000
  H   H243      1.0  0.30303  0.17017  0.45227  1.0000
  H   H244      1.0  0.50350  0.53380  0.21440  1.0000
  H   H245      1.0  0.46620  0.96970  0.21440  1.0000
  H   H246      1.0  0.03030  0.49650  0.21440  1.0000
  H   H247      1.0  0.83683  0.20047  0.88107  1.0000
  H   H248      1.0  0.79953  0.63637  0.88107  1.0000
  H   H249      1.0  0.36363  0.16317  0.88107  1.0000
  H   H250      1.0  0.17017  0.86713  0.54773  1.0000
  H   H251      1.0  0.13287  0.30303  0.54773  1.0000
  H   H252      1.0  0.69697  0.82983  0.54773  1.0000
  C   C433      1.0  0.10902  0.27070  0.76131  1.0000
  C   C434      1.0  0.72930  0.83832  0.76131  1.0000
  C   C435      1.0  0.16168  0.89098  0.76131  1.0000
  C   C436      1.0  0.77569  0.60403  0.09464  1.0000
  C   C437      1.0  0.39597  0.17165  0.09464  1.0000
  C   C438      1.0  0.82835  0.22431  0.09464  1.0000
  C   C439      1.0  0.44235  0.93737  0.42798  1.0000
  C   C440      1.0  0.06263  0.50499  0.42798  1.0000
  C   C441      1.0  0.49501  0.55765  0.42798  1.0000
  C   C442      1.0  0.89098  0.72930  0.23869  1.0000
  C   C443      1.0  0.27070  0.16168  0.23869  1.0000
  C   C444      1.0  0.83832  0.10902  0.23869  1.0000
  C   C445      1.0  0.22431  0.39597  0.90536  1.0000
  C   C446      1.0  0.60403  0.82835  0.90536  1.0000
  C   C447      1.0  0.17165  0.77569  0.90536  1.0000
  C   C448      1.0  0.55765  0.06263  0.57202  1.0000
  C   C449      1.0  0.93737  0.49501  0.57202  1.0000
  C   C450      1.0  0.50499  0.44235  0.57202  1.0000
  H   H253      1.0  0.11980  0.28420  0.77970  1.0000
  H   H254      1.0  0.71580  0.83560  0.77970  1.0000
  H   H255      1.0  0.16440  0.88020  0.77970  1.0000
  H   H256      1.0  0.78647  0.61753  0.11303  1.0000
  H   H257      1.0  0.38247  0.16893  0.11303  1.0000
  H   H258      1.0  0.83107  0.21353  0.11303  1.0000
  H   H259      1.0  0.45313  0.95087  0.44637  1.0000
  H   H260      1.0  0.04913  0.50227  0.44637  1.0000
  H   H261      1.0  0.49773  0.54687  0.44637  1.0000
  H   H262      1.0  0.88020  0.71580  0.22030  1.0000
  H   H263      1.0  0.28420  0.16440  0.22030  1.0000
  H   H264      1.0  0.83560  0.11980  0.22030  1.0000
  H   H265      1.0  0.21353  0.38247  0.88697  1.0000
  H   H266      1.0  0.61753  0.83107  0.88697  1.0000
  H   H267      1.0  0.16893  0.78647  0.88697  1.0000
  H   H268      1.0  0.54687  0.04913  0.55363  1.0000
  H   H269      1.0  0.95087  0.49773  0.55363  1.0000
  H   H270      1.0  0.50227  0.45313  0.55363  1.0000
  C   C451      1.0  0.08655  0.27829  0.74149  1.0000
  C   C452      1.0  0.72171  0.80826  0.74149  1.0000
  C   C453      1.0  0.19174  0.91345  0.74149  1.0000
  C   C454      1.0  0.75322  0.61162  0.07482  1.0000
  C   C455      1.0  0.38838  0.14159  0.07482  1.0000
  C   C456      1.0  0.85841  0.24678  0.07482  1.0000
  C   C457      1.0  0.41988  0.94496  0.40816  1.0000
  C   C458      1.0  0.05504  0.47493  0.40816  1.0000
  C   C459      1.0  0.52507  0.58012  0.40816  1.0000
  C   C460      1.0  0.91345  0.72171  0.25851  1.0000
  C   C461      1.0  0.27829  0.19174  0.25851  1.0000
  C   C462      1.0  0.80826  0.08655  0.25851  1.0000
  C   C463      1.0  0.24678  0.38838  0.92518  1.0000
  C   C464      1.0  0.61162  0.85841  0.92518  1.0000
  C   C465      1.0  0.14159  0.75322  0.92518  1.0000
  C   C466      1.0  0.58012  0.05504  0.59184  1.0000
  C   C467      1.0  0.94496  0.52507  0.59184  1.0000
  C   C468      1.0  0.47493  0.41988  0.59184  1.0000
  H   H271      1.0  0.08500  0.29800  0.74620  1.0000
  H   H272      1.0  0.70200  0.78700  0.74620  1.0000
  H   H273      1.0  0.21300  0.91500  0.74620  1.0000
  H   H274      1.0  0.75167  0.63133  0.07953  1.0000
  H   H275      1.0  0.36867  0.12033  0.07953  1.0000
  H   H276      1.0  0.87967  0.24833  0.07953  1.0000
  H   H277      1.0  0.41833  0.96467  0.41287  1.0000
  H   H278      1.0  0.03533  0.45367  0.41287  1.0000
  H   H279      1.0  0.54633  0.58167  0.41287  1.0000
  H   H280      1.0  0.91500  0.70200  0.25380  1.0000
  H   H281      1.0  0.29800  0.21300  0.25380  1.0000
  H   H282      1.0  0.78700  0.08500  0.25380  1.0000
  H   H283      1.0  0.24833  0.36867  0.92047  1.0000
  H   H284      1.0  0.63133  0.87967  0.92047  1.0000
  H   H285      1.0  0.12033  0.75167  0.92047  1.0000
  H   H286      1.0  0.58167  0.03533  0.58713  1.0000
  H   H287      1.0  0.96467  0.54633  0.58713  1.0000
  H   H288      1.0  0.45367  0.41833  0.58713  1.0000
  C   C469      1.0  0.30989  0.29760  0.76160  1.0000
  C   C470      1.0  0.70240  0.01229  0.76160  1.0000
  C   C471      1.0  0.98771  0.69011  0.76160  1.0000
  C   C472      1.0  0.97656  0.63093  0.09493  1.0000
  C   C473      1.0  0.36907  0.34562  0.09493  1.0000
  C   C474      1.0  0.65438  0.02344  0.09493  1.0000
  C   C475      1.0  0.64322  0.96427  0.42827  1.0000
  C   C476      1.0  0.03573  0.67896  0.42827  1.0000
  C   C477      1.0  0.32104  0.35678  0.42827  1.0000
  C   C478      1.0  0.69011  0.70240  0.23840  1.0000
  C   C479      1.0  0.29760  0.98771  0.23840  1.0000
  C   C480      1.0  0.01229  0.30989  0.23840  1.0000
  C   C481      1.0  0.02344  0.36907  0.90507  1.0000
  C   C482      1.0  0.63093  0.65438  0.90507  1.0000
  C   C483      1.0  0.34562  0.97656  0.90507  1.0000
  C   C484      1.0  0.35678  0.03573  0.57173  1.0000
  C   C485      1.0  0.96427  0.32104  0.57173  1.0000
  C   C486      1.0  0.67896  0.64322  0.57173  1.0000
  H   H289      1.0  0.31590  0.28320  0.77300  1.0000
  H   H290      1.0  0.71680  0.03270  0.77300  1.0000
  H   H291      1.0  0.96730  0.68410  0.77300  1.0000
  H   H292      1.0  0.98257  0.61653  0.10633  1.0000
  H   H293      1.0  0.38347  0.36603  0.10633  1.0000
  H   H294      1.0  0.63397  0.01743  0.10633  1.0000
  H   H295      1.0  0.64923  0.94987  0.43967  1.0000
  H   H296      1.0  0.05013  0.69937  0.43967  1.0000
  H   H297      1.0  0.30063  0.35077  0.43967  1.0000
  H   H298      1.0  0.68410  0.71680  0.22700  1.0000
  H   H299      1.0  0.28320  0.96730  0.22700  1.0000
  H   H300      1.0  0.03270  0.31590  0.22700  1.0000
  H   H301      1.0  0.01743  0.38347  0.89367  1.0000
  H   H302      1.0  0.61653  0.63397  0.89367  1.0000
  H   H303      1.0  0.36603  0.98257  0.89367  1.0000
  H   H304      1.0  0.35077  0.05013  0.56033  1.0000
  H   H305      1.0  0.94987  0.30063  0.56033  1.0000
  H   H306      1.0  0.69937  0.64923  0.56033  1.0000
  C   C487      1.0  0.32857  0.42356  0.58921  1.0000
  C   C488      1.0  0.57644  0.90501  0.58921  1.0000
  C   C489      1.0  0.09499  0.67143  0.58921  1.0000
  C   C490      1.0  0.99524  0.75689  0.92254  1.0000
  C   C491      1.0  0.24311  0.23834  0.92254  1.0000
  C   C492      1.0  0.76166  0.00476  0.92254  1.0000
  C   C493      1.0  0.66190  0.09023  0.25588  1.0000
  C   C494      1.0  0.90977  0.57168  0.25588  1.0000
  C   C495      1.0  0.42832  0.33810  0.25588  1.0000
  C   C496      1.0  0.67143  0.57644  0.41079  1.0000
  C   C497      1.0  0.42356  0.09499  0.41079  1.0000
  C   C498      1.0  0.90501  0.32857  0.41079  1.0000
  C   C499      1.0  0.00476  0.24311  0.07746  1.0000
  C   C500      1.0  0.75689  0.76166  0.07746  1.0000
  C   C501      1.0  0.23834  0.99524  0.07746  1.0000
  C   C502      1.0  0.33810  0.90977  0.74412  1.0000
  C   C503      1.0  0.09023  0.42832  0.74412  1.0000
  C   C504      1.0  0.57168  0.66190  0.74412  1.0000
  H   H307      1.0  0.30610  0.41860  0.58400  1.0000
  H   H308      1.0  0.58140  0.88750  0.58400  1.0000
  H   H309      1.0  0.11250  0.69390  0.58400  1.0000
  H   H310      1.0  0.97277  0.75193  0.91733  1.0000
  H   H311      1.0  0.24807  0.22083  0.91733  1.0000
  H   H312      1.0  0.77917  0.02723  0.91733  1.0000
  H   H313      1.0  0.63943  0.08527  0.25067  1.0000
  H   H314      1.0  0.91473  0.55417  0.25067  1.0000
  H   H315      1.0  0.44583  0.36057  0.25067  1.0000
  H   H316      1.0  0.69390  0.58140  0.41600  1.0000
  H   H317      1.0  0.41860  0.11250  0.41600  1.0000
  H   H318      1.0  0.88750  0.30610  0.41600  1.0000
  H   H319      1.0  0.02723  0.24807  0.08267  1.0000
  H   H320      1.0  0.75193  0.77917  0.08267  1.0000
  H   H321      1.0  0.22083  0.97277  0.08267  1.0000
  H   H322      1.0  0.36057  0.91473  0.74933  1.0000
  H   H323      1.0  0.08527  0.44583  0.74933  1.0000
  H   H324      1.0  0.55417  0.63943  0.74933  1.0000
  C   C505      1.0  0.55697  0.49039  0.75590  1.0000
  C   C506      1.0  0.50961  0.06658  0.75590  1.0000
  C   C507      1.0  0.93342  0.44303  0.75590  1.0000
  C   C508      1.0  0.22364  0.82372  0.08923  1.0000
  C   C509      1.0  0.17628  0.39991  0.08923  1.0000
  C   C510      1.0  0.60009  0.77636  0.08923  1.0000
  C   C511      1.0  0.89030  0.15706  0.42257  1.0000
  C   C512      1.0  0.84294  0.73325  0.42257  1.0000
  C   C513      1.0  0.26675  0.10970  0.42257  1.0000
  C   C514      1.0  0.44303  0.50961  0.24410  1.0000
  C   C515      1.0  0.49039  0.93342  0.24410  1.0000
  C   C516      1.0  0.06658  0.55697  0.24410  1.0000
  C   C517      1.0  0.77636  0.17628  0.91077  1.0000
  C   C518      1.0  0.82372  0.60009  0.91077  1.0000
  C   C519      1.0  0.39991  0.22364  0.91077  1.0000
  C   C520      1.0  0.10970  0.84294  0.57743  1.0000
  C   C521      1.0  0.15706  0.26675  0.57743  1.0000
  C   C522      1.0  0.73325  0.89030  0.57743  1.0000
  C   C523      1.0  0.98386  0.22422  0.55037  1.0000
  C   C524      1.0  0.77578  0.75964  0.55037  1.0000
  C   C525      1.0  0.24036  0.01614  0.55037  1.0000
  C   C526      1.0  0.65053  0.55755  0.88370  1.0000
  C   C527      1.0  0.44245  0.09297  0.88370  1.0000
  C   C528      1.0  0.90703  0.34947  0.88370  1.0000
  C   C529      1.0  0.31719  0.89089  0.21704  1.0000
  C   C530      1.0  0.10911  0.42631  0.21704  1.0000
  C   C531      1.0  0.57369  0.68281  0.21704  1.0000
  C   C532      1.0  0.01614  0.77578  0.44963  1.0000
  C   C533      1.0  0.22422  0.24036  0.44963  1.0000
  C   C534      1.0  0.75964  0.98386  0.44963  1.0000
  C   C535      1.0  0.34947  0.44245  0.11630  1.0000
  C   C536      1.0  0.55755  0.90703  0.11630  1.0000
  C   C537      1.0  0.09297  0.65053  0.11630  1.0000
  C   C538      1.0  0.68281  0.10911  0.78296  1.0000
  C   C539      1.0  0.89089  0.57369  0.78296  1.0000
  C   C540      1.0  0.42631  0.31719  0.78296  1.0000
  C   C541      1.0  0.11081  0.11865  0.79624  1.0000
  C   C542      1.0  0.88135  0.99216  0.79624  1.0000
  C   C543      1.0  0.00784  0.88919  0.79624  1.0000
  C   C544      1.0  0.77748  0.45198  0.12957  1.0000
  C   C545      1.0  0.54802  0.32549  0.12957  1.0000
  C   C546      1.0  0.67451  0.22252  0.12957  1.0000
  C   C547      1.0  0.44414  0.78532  0.46291  1.0000
  C   C548      1.0  0.21468  0.65883  0.46291  1.0000
  C   C549      1.0  0.34117  0.55586  0.46291  1.0000
  C   C550      1.0  0.88919  0.88135  0.20376  1.0000
  C   C551      1.0  0.11865  0.00784  0.20376  1.0000
  C   C552      1.0  0.99216  0.11081  0.20376  1.0000
  C   C553      1.0  0.22252  0.54802  0.87043  1.0000
  C   C554      1.0  0.45198  0.67451  0.87043  1.0000
  C   C555      1.0  0.32549  0.77748  0.87043  1.0000
  C   C556      1.0  0.55586  0.21468  0.53709  1.0000
  C   C557      1.0  0.78532  0.34117  0.53709  1.0000
  C   C558      1.0  0.65883  0.44414  0.53709  1.0000
  H   H325      1.0  0.11550  0.13930  0.78600  1.0000
  H   H326      1.0  0.86070  0.97620  0.78600  1.0000
  H   H327      1.0  0.02380  0.88450  0.78600  1.0000
  H   H328      1.0  0.78217  0.47263  0.11933  1.0000
  H   H329      1.0  0.52737  0.30953  0.11933  1.0000
  H   H330      1.0  0.69047  0.21783  0.11933  1.0000
  H   H331      1.0  0.44883  0.80597  0.45267  1.0000
  H   H332      1.0  0.19403  0.64287  0.45267  1.0000
  H   H333      1.0  0.35713  0.55117  0.45267  1.0000
  H   H334      1.0  0.88450  0.86070  0.21400  1.0000
  H   H335      1.0  0.13930  0.02380  0.21400  1.0000
  H   H336      1.0  0.97620  0.11550  0.21400  1.0000
  H   H337      1.0  0.21783  0.52737  0.88067  1.0000
  H   H338      1.0  0.47263  0.69047  0.88067  1.0000
  H   H339      1.0  0.30953  0.78217  0.88067  1.0000
  H   H340      1.0  0.55117  0.19403  0.54733  1.0000
  H   H341      1.0  0.80597  0.35713  0.54733  1.0000
  H   H342      1.0  0.64287  0.44883  0.54733  1.0000
  C   C559      1.0  0.07749  0.09037  0.79369  1.0000
  C   C560      1.0  0.90963  0.98712  0.79369  1.0000
  C   C561      1.0  0.01288  0.92251  0.79369  1.0000
  C   C562      1.0  0.74416  0.42370  0.12702  1.0000
  C   C563      1.0  0.57630  0.32045  0.12702  1.0000
  C   C564      1.0  0.67955  0.25584  0.12702  1.0000
  C   C565      1.0  0.41082  0.75704  0.46036  1.0000
  C   C566      1.0  0.24296  0.65379  0.46036  1.0000
  C   C567      1.0  0.34621  0.58918  0.46036  1.0000
  C   C568      1.0  0.92251  0.90963  0.20631  1.0000
  C   C569      1.0  0.09037  0.01288  0.20631  1.0000
  C   C570      1.0  0.98712  0.07749  0.20631  1.0000
  C   C571      1.0  0.25584  0.57630  0.87298  1.0000
  C   C572      1.0  0.42370  0.67955  0.87298  1.0000
  C   C573      1.0  0.32045  0.74416  0.87298  1.0000
  C   C574      1.0  0.58918  0.24296  0.53964  1.0000
  C   C575      1.0  0.75704  0.34621  0.53964  1.0000
  C   C576      1.0  0.65379  0.41082  0.53964  1.0000
  H   H343      1.0  0.06070  0.09220  0.78160  1.0000
  H   H344      1.0  0.90780  0.96850  0.78160  1.0000
  H   H345      1.0  0.03150  0.93930  0.78160  1.0000
  H   H346      1.0  0.72737  0.42553  0.11493  1.0000
  H   H347      1.0  0.57447  0.30183  0.11493  1.0000
  H   H348      1.0  0.69817  0.27263  0.11493  1.0000
  H   H349      1.0  0.39403  0.75887  0.44827  1.0000
  H   H350      1.0  0.24113  0.63517  0.44827  1.0000
  H   H351      1.0  0.36483  0.60597  0.44827  1.0000
  H   H352      1.0  0.93930  0.90780  0.21840  1.0000
  H   H353      1.0  0.09220  0.03150  0.21840  1.0000
  H   H354      1.0  0.96850  0.06070  0.21840  1.0000
  H   H355      1.0  0.27263  0.57447  0.88507  1.0000
  H   H356      1.0  0.42553  0.69817  0.88507  1.0000
  H   H357      1.0  0.30183  0.72737  0.88507  1.0000
  H   H358      1.0  0.60597  0.24113  0.55173  1.0000
  H   H359      1.0  0.75887  0.36483  0.55173  1.0000
  H   H360      1.0  0.63517  0.39403  0.55173  1.0000
  C   C577      1.0  0.33530  0.32568  0.74614  1.0000
  C   C578      1.0  0.67432  0.00962  0.74614  1.0000
  C   C579      1.0  0.99038  0.66470  0.74614  1.0000
  C   C580      1.0  0.00197  0.65901  0.07947  1.0000
  C   C581      1.0  0.34099  0.34295  0.07947  1.0000
  C   C582      1.0  0.65705  0.99803  0.07947  1.0000
  C   C583      1.0  0.66863  0.99235  0.41281  1.0000
  C   C584      1.0  0.00765  0.67629  0.41281  1.0000
  C   C585      1.0  0.32371  0.33137  0.41281  1.0000
  C   C586      1.0  0.66470  0.67432  0.25386  1.0000
  C   C587      1.0  0.32568  0.99038  0.25386  1.0000
  C   C588      1.0  0.00962  0.33530  0.25386  1.0000
  C   C589      1.0  0.99803  0.34099  0.92053  1.0000
  C   C590      1.0  0.65901  0.65705  0.92053  1.0000
  C   C591      1.0  0.34295  0.00197  0.92053  1.0000
  C   C592      1.0  0.33137  0.00765  0.58719  1.0000
  C   C593      1.0  0.99235  0.32371  0.58719  1.0000
  C   C594      1.0  0.67629  0.66863  0.58719  1.0000
  H   H361      1.0  0.35810  0.33000  0.74680  1.0000
  H   H362      1.0  0.67000  0.02810  0.74680  1.0000
  H   H363      1.0  0.97190  0.64190  0.74680  1.0000
  H   H364      1.0  0.02477  0.66333  0.08013  1.0000
  H   H365      1.0  0.33667  0.36143  0.08013  1.0000
  H   H366      1.0  0.63857  0.97523  0.08013  1.0000
  H   H367      1.0  0.69143  0.99667  0.41347  1.0000
  H   H368      1.0  0.00333  0.69477  0.41347  1.0000
  H   H369      1.0  0.30523  0.30857  0.41347  1.0000
  H   H370      1.0  0.64190  0.67000  0.25320  1.0000
  H   H371      1.0  0.33000  0.97190  0.25320  1.0000
  H   H372      1.0  0.02810  0.35810  0.25320  1.0000
  H   H373      1.0  0.97523  0.33667  0.91987  1.0000
  H   H374      1.0  0.66333  0.63857  0.91987  1.0000
  H   H375      1.0  0.36143  0.02477  0.91987  1.0000
  H   H376      1.0  0.30857  0.00333  0.58653  1.0000
  H   H377      1.0  0.99667  0.30523  0.58653  1.0000
  H   H378      1.0  0.69477  0.69143  0.58653  1.0000
  C   C595      1.0  0.38720  0.44673  0.57538  1.0000
  C   C596      1.0  0.55327  0.94047  0.57538  1.0000
  C   C597      1.0  0.05953  0.61280  0.57538  1.0000
  C   C598      1.0  0.05387  0.78006  0.90871  1.0000
  C   C599      1.0  0.21994  0.27380  0.90871  1.0000
  C   C600      1.0  0.72620  0.94613  0.90871  1.0000
  C   C601      1.0  0.72053  0.11340  0.24205  1.0000
  C   C602      1.0  0.88660  0.60714  0.24205  1.0000
  C   C603      1.0  0.39286  0.27947  0.24205  1.0000
  C   C604      1.0  0.61280  0.55327  0.42462  1.0000
  C   C605      1.0  0.44673  0.05953  0.42462  1.0000
  C   C606      1.0  0.94047  0.38720  0.42462  1.0000
  C   C607      1.0  0.94613  0.21994  0.09129  1.0000
  C   C608      1.0  0.78006  0.72620  0.09129  1.0000
  C   C609      1.0  0.27380  0.05387  0.09129  1.0000
  C   C610      1.0  0.27947  0.88660  0.75795  1.0000
  C   C611      1.0  0.11340  0.39286  0.75795  1.0000
  C   C612      1.0  0.60714  0.72053  0.75795  1.0000
  H   H379      1.0  0.40580  0.45780  0.56090  1.0000
  H   H380      1.0  0.54220  0.94800  0.56090  1.0000
  H   H381      1.0  0.05200  0.59420  0.56090  1.0000
  H   H382      1.0  0.07247  0.79113  0.89423  1.0000
  H   H383      1.0  0.20887  0.28133  0.89423  1.0000
  H   H384      1.0  0.71867  0.92753  0.89423  1.0000
  H   H385      1.0  0.73913  0.12447  0.22757  1.0000
  H   H386      1.0  0.87553  0.61467  0.22757  1.0000
  H   H387      1.0  0.38533  0.26087  0.22757  1.0000
  H   H388      1.0  0.59420  0.54220  0.43910  1.0000
  H   H389      1.0  0.45780  0.05200  0.43910  1.0000
  H   H390      1.0  0.94800  0.40580  0.43910  1.0000
  H   H391      1.0  0.92753  0.20887  0.10577  1.0000
  H   H392      1.0  0.79113  0.71867  0.10577  1.0000
  H   H393      1.0  0.28133  0.07247  0.10577  1.0000
  H   H394      1.0  0.26087  0.87553  0.77243  1.0000
  H   H395      1.0  0.12447  0.38533  0.77243  1.0000
  H   H396      1.0  0.61467  0.73913  0.77243  1.0000
  C   C613      1.0  0.33475  0.41601  0.61969  1.0000
  C   C614      1.0  0.58399  0.91874  0.61969  1.0000
  C   C615      1.0  0.08126  0.66525  0.61969  1.0000
  C   C616      1.0  0.00142  0.74934  0.95302  1.0000
  C   C617      1.0  0.25066  0.25207  0.95302  1.0000
  C   C618      1.0  0.74793  0.99858  0.95302  1.0000
  C   C619      1.0  0.66808  0.08268  0.28636  1.0000
  C   C620      1.0  0.91732  0.58541  0.28636  1.0000
  C   C621      1.0  0.41459  0.33192  0.28636  1.0000
  C   C622      1.0  0.66525  0.58399  0.38031  1.0000
  C   C623      1.0  0.41601  0.08126  0.38031  1.0000
  C   C624      1.0  0.91874  0.33475  0.38031  1.0000
  C   C625      1.0  0.99858  0.25066  0.04698  1.0000
  C   C626      1.0  0.74934  0.74793  0.04698  1.0000
  C   C627      1.0  0.25207  0.00142  0.04698  1.0000
  C   C628      1.0  0.33192  0.91732  0.71364  1.0000
  C   C629      1.0  0.08268  0.41459  0.71364  1.0000
  C   C630      1.0  0.58541  0.66808  0.71364  1.0000
  H   H397      1.0  0.31630  0.40510  0.63440  1.0000
  H   H398      1.0  0.59490  0.91120  0.63440  1.0000
  H   H399      1.0  0.08880  0.68370  0.63440  1.0000
  H   H400      1.0  0.98297  0.73843  0.96773  1.0000
  H   H401      1.0  0.26157  0.24453  0.96773  1.0000
  H   H402      1.0  0.75547  0.01703  0.96773  1.0000
  H   H403      1.0  0.64963  0.07177  0.30107  1.0000
  H   H404      1.0  0.92823  0.57787  0.30107  1.0000
  H   H405      1.0  0.42213  0.35037  0.30107  1.0000
  H   H406      1.0  0.68370  0.59490  0.36560  1.0000
  H   H407      1.0  0.40510  0.08880  0.36560  1.0000
  H   H408      1.0  0.91120  0.31630  0.36560  1.0000
  H   H409      1.0  0.01703  0.26157  0.03227  1.0000
  H   H410      1.0  0.73843  0.75547  0.03227  1.0000
  H   H411      1.0  0.24453  0.98297  0.03227  1.0000
  H   H412      1.0  0.35037  0.92823  0.69893  1.0000
  H   H413      1.0  0.07177  0.42213  0.69893  1.0000
  H   H414      1.0  0.57787  0.64963  0.69893  1.0000
  C   C631      1.0  0.02538  0.24681  0.59480  1.0000
  C   C632      1.0  0.75319  0.77857  0.59480  1.0000
  C   C633      1.0  0.22143  0.97462  0.59480  1.0000
  C   C634      1.0  0.69205  0.58014  0.92813  1.0000
  C   C635      1.0  0.41986  0.11190  0.92813  1.0000
  C   C636      1.0  0.88810  0.30795  0.92813  1.0000
  C   C637      1.0  0.35871  0.91348  0.26147  1.0000
  C   C638      1.0  0.08652  0.44524  0.26147  1.0000
  C   C639      1.0  0.55476  0.64129  0.26147  1.0000
  C   C640      1.0  0.97462  0.75319  0.40520  1.0000
  C   C641      1.0  0.24681  0.22143  0.40520  1.0000
  C   C642      1.0  0.77857  0.02538  0.40520  1.0000
  C   C643      1.0  0.30795  0.41986  0.07187  1.0000
  C   C644      1.0  0.58014  0.88810  0.07187  1.0000
  C   C645      1.0  0.11190  0.69205  0.07187  1.0000
  C   C646      1.0  0.64129  0.08652  0.73853  1.0000
  C   C647      1.0  0.91348  0.55476  0.73853  1.0000
  C   C648      1.0  0.44524  0.35871  0.73853  1.0000
  H   H415      1.0  0.04780  0.25430  0.60260  1.0000
  H   H416      1.0  0.74570  0.79350  0.60260  1.0000
  H   H417      1.0  0.20650  0.95220  0.60260  1.0000
  H   H418      1.0  0.71447  0.58763  0.93593  1.0000
  H   H419      1.0  0.41237  0.12683  0.93593  1.0000
  H   H420      1.0  0.87317  0.28553  0.93593  1.0000
  H   H421      1.0  0.38113  0.92097  0.26927  1.0000
  H   H422      1.0  0.07903  0.46017  0.26927  1.0000
  H   H423      1.0  0.53983  0.61887  0.26927  1.0000
  H   H424      1.0  0.95220  0.74570  0.39740  1.0000
  H   H425      1.0  0.25430  0.20650  0.39740  1.0000
  H   H426      1.0  0.79350  0.04780  0.39740  1.0000
  H   H427      1.0  0.28553  0.41237  0.06407  1.0000
  H   H428      1.0  0.58763  0.87317  0.06407  1.0000
  H   H429      1.0  0.12683  0.71447  0.06407  1.0000
  H   H430      1.0  0.61887  0.07903  0.73073  1.0000
  H   H431      1.0  0.92097  0.53983  0.73073  1.0000
  H   H432      1.0  0.46017  0.38113  0.73073  1.0000
  C   C649      1.0  0.39330  0.43905  0.60657  1.0000
  C   C650      1.0  0.56095  0.95425  0.60657  1.0000
  C   C651      1.0  0.04575  0.60670  0.60657  1.0000
  C   C652      1.0  0.05997  0.77238  0.93990  1.0000
  C   C653      1.0  0.22762  0.28758  0.93990  1.0000
  C   C654      1.0  0.71242  0.94003  0.93990  1.0000
  C   C655      1.0  0.72663  0.10572  0.27324  1.0000
  C   C656      1.0  0.89428  0.62092  0.27324  1.0000
  C   C657      1.0  0.37908  0.27337  0.27324  1.0000
  C   C658      1.0  0.60670  0.56095  0.39343  1.0000
  C   C659      1.0  0.43905  0.04575  0.39343  1.0000
  C   C660      1.0  0.95425  0.39330  0.39343  1.0000
  C   C661      1.0  0.94003  0.22762  0.06010  1.0000
  C   C662      1.0  0.77238  0.71242  0.06010  1.0000
  C   C663      1.0  0.28758  0.05997  0.06010  1.0000
  C   C664      1.0  0.27337  0.89428  0.72676  1.0000
  C   C665      1.0  0.10572  0.37908  0.72676  1.0000
  C   C666      1.0  0.62092  0.72663  0.72676  1.0000
  H   H433      1.0  0.41580  0.44440  0.61200  1.0000
  H   H434      1.0  0.55560  0.97140  0.61200  1.0000
  H   H435      1.0  0.02860  0.58420  0.61200  1.0000
  H   H436      1.0  0.08247  0.77773  0.94533  1.0000
  H   H437      1.0  0.22227  0.30473  0.94533  1.0000
  H   H438      1.0  0.69527  0.91753  0.94533  1.0000
  H   H439      1.0  0.74913  0.11107  0.27867  1.0000
  H   H440      1.0  0.88893  0.63807  0.27867  1.0000
  H   H441      1.0  0.36193  0.25087  0.27867  1.0000
  H   H442      1.0  0.58420  0.55560  0.38800  1.0000
  H   H443      1.0  0.44440  0.02860  0.38800  1.0000
  H   H444      1.0  0.97140  0.41580  0.38800  1.0000
  H   H445      1.0  0.91753  0.22227  0.05467  1.0000
  H   H446      1.0  0.77773  0.69527  0.05467  1.0000
  H   H447      1.0  0.30473  0.08247  0.05467  1.0000
  H   H448      1.0  0.25087  0.88893  0.72133  1.0000
  H   H449      1.0  0.11107  0.36193  0.72133  1.0000
  H   H450      1.0  0.63807  0.74913  0.72133  1.0000
  C   C667      1.0  0.24786  0.25740  0.77873  1.0000
  C   C668      1.0  0.74260  0.99046  0.77873  1.0000
  C   C669      1.0  0.00954  0.75214  0.77873  1.0000
  C   C670      1.0  0.91453  0.59073  0.11206  1.0000
  C   C671      1.0  0.40927  0.32379  0.11206  1.0000
  C   C672      1.0  0.67621  0.08547  0.11206  1.0000
  C   C673      1.0  0.58119  0.92407  0.44540  1.0000
  C   C674      1.0  0.07593  0.65713  0.44540  1.0000
  C   C675      1.0  0.34287  0.41881  0.44540  1.0000
  C   C676      1.0  0.75214  0.74260  0.22127  1.0000
  C   C677      1.0  0.25740  0.00954  0.22127  1.0000
  C   C678      1.0  0.99046  0.24786  0.22127  1.0000
  C   C679      1.0  0.08547  0.40927  0.88794  1.0000
  C   C680      1.0  0.59073  0.67621  0.88794  1.0000
  C   C681      1.0  0.32379  0.91453  0.88794  1.0000
  C   C682      1.0  0.41881  0.07593  0.55460  1.0000
  C   C683      1.0  0.92407  0.34287  0.55460  1.0000
  C   C684      1.0  0.65713  0.58119  0.55460  1.0000
  C   C685      1.0  0.52000  0.47337  0.74263  1.0000
  C   C686      1.0  0.52663  0.04663  0.74263  1.0000
  C   C687      1.0  0.95337  0.48000  0.74263  1.0000
  C   C688      1.0  0.18667  0.80670  0.07596  1.0000
  C   C689      1.0  0.19330  0.37996  0.07596  1.0000
  C   C690      1.0  0.62004  0.81333  0.07596  1.0000
  C   C691      1.0  0.85333  0.14004  0.40930  1.0000
  C   C692      1.0  0.85996  0.71330  0.40930  1.0000
  C   C693      1.0  0.28670  0.14667  0.40930  1.0000
  C   C694      1.0  0.48000  0.52663  0.25737  1.0000
  C   C695      1.0  0.47337  0.95337  0.25737  1.0000
  C   C696      1.0  0.04663  0.52000  0.25737  1.0000
  C   C697      1.0  0.81333  0.19330  0.92404  1.0000
  C   C698      1.0  0.80670  0.62004  0.92404  1.0000
  C   C699      1.0  0.37996  0.18667  0.92404  1.0000
  C   C700      1.0  0.14667  0.85996  0.59070  1.0000
  C   C701      1.0  0.14004  0.28670  0.59070  1.0000
  C   C702      1.0  0.71330  0.85333  0.59070  1.0000
  C   C703      1.0  0.26751  0.31169  0.74503  1.0000
  C   C704      1.0  0.68831  0.95582  0.74503  1.0000
  C   C705      1.0  0.04418  0.73249  0.74503  1.0000
  C   C706      1.0  0.93418  0.64502  0.07836  1.0000
  C   C707      1.0  0.35498  0.28915  0.07836  1.0000
  C   C708      1.0  0.71085  0.06582  0.07836  1.0000
  C   C709      1.0  0.60084  0.97836  0.41170  1.0000
  C   C710      1.0  0.02164  0.62249  0.41170  1.0000
  C   C711      1.0  0.37751  0.39916  0.41170  1.0000
  C   C712      1.0  0.73249  0.68831  0.25497  1.0000
  C   C713      1.0  0.31169  0.04418  0.25497  1.0000
  C   C714      1.0  0.95582  0.26751  0.25497  1.0000
  C   C715      1.0  0.06582  0.35498  0.92164  1.0000
  C   C716      1.0  0.64502  0.71085  0.92164  1.0000
  C   C717      1.0  0.28915  0.93418  0.92164  1.0000
  C   C718      1.0  0.39916  0.02164  0.58830  1.0000
  C   C719      1.0  0.97836  0.37751  0.58830  1.0000
  C   C720      1.0  0.62249  0.60084  0.58830  1.0000
  H   H451      1.0  0.24470  0.30750  0.74520  1.0000
  H   H452      1.0  0.69250  0.93720  0.74520  1.0000
  H   H453      1.0  0.06280  0.75530  0.74520  1.0000
  H   H454      1.0  0.91137  0.64083  0.07853  1.0000
  H   H455      1.0  0.35917  0.27053  0.07853  1.0000
  H   H456      1.0  0.72947  0.08863  0.07853  1.0000
  H   H457      1.0  0.57803  0.97417  0.41187  1.0000
  H   H458      1.0  0.02583  0.60387  0.41187  1.0000
  H   H459      1.0  0.39613  0.42197  0.41187  1.0000
  H   H460      1.0  0.75530  0.69250  0.25480  1.0000
  H   H461      1.0  0.30750  0.06280  0.25480  1.0000
  H   H462      1.0  0.93720  0.24470  0.25480  1.0000
  H   H463      1.0  0.08863  0.35917  0.92147  1.0000
  H   H464      1.0  0.64083  0.72947  0.92147  1.0000
  H   H465      1.0  0.27053  0.91137  0.92147  1.0000
  H   H466      1.0  0.42197  0.02583  0.58813  1.0000
  H   H467      1.0  0.97417  0.39613  0.58813  1.0000
  H   H468      1.0  0.60387  0.57803  0.58813  1.0000
  C   C721      1.0  0.38913  0.39778  0.72321  1.0000
  C   C722      1.0  0.60222  0.99135  0.72321  1.0000
  C   C723      1.0  0.00865  0.61087  0.72321  1.0000
  C   C724      1.0  0.05580  0.73111  0.05654  1.0000
  C   C725      1.0  0.26889  0.32468  0.05654  1.0000
  C   C726      1.0  0.67532  0.94420  0.05654  1.0000
  C   C727      1.0  0.72246  0.06445  0.38988  1.0000
  C   C728      1.0  0.93555  0.65802  0.38988  1.0000
  C   C729      1.0  0.34198  0.27754  0.38988  1.0000
  C   C730      1.0  0.61087  0.60222  0.27679  1.0000
  C   C731      1.0  0.39778  0.00865  0.27679  1.0000
  C   C732      1.0  0.99135  0.38913  0.27679  1.0000
  C   C733      1.0  0.94420  0.26889  0.94346  1.0000
  C   C734      1.0  0.73111  0.67532  0.94346  1.0000
  C   C735      1.0  0.32468  0.05580  0.94346  1.0000
  C   C736      1.0  0.27754  0.93555  0.61012  1.0000
  C   C737      1.0  0.06445  0.34198  0.61012  1.0000
  C   C738      1.0  0.65802  0.72246  0.61012  1.0000
  H   H469      1.0  0.39390  0.39220  0.74370  1.0000
  H   H470      1.0  0.60780  0.00170  0.74370  1.0000
  H   H471      1.0  0.99830  0.60610  0.74370  1.0000
  H   H472      1.0  0.06057  0.72553  0.07703  1.0000
  H   H473      1.0  0.27447  0.33503  0.07703  1.0000
  H   H474      1.0  0.66497  0.93943  0.07703  1.0000
  H   H475      1.0  0.72723  0.05887  0.41037  1.0000
  H   H476      1.0  0.94113  0.66837  0.41037  1.0000
  H   H477      1.0  0.33163  0.27277  0.41037  1.0000
  H   H478      1.0  0.60610  0.60780  0.25630  1.0000
  H   H479      1.0  0.39220  0.99830  0.25630  1.0000
  H   H480      1.0  0.00170  0.39390  0.25630  1.0000
  H   H481      1.0  0.93943  0.27447  0.92297  1.0000
  H   H482      1.0  0.72553  0.66497  0.92297  1.0000
  H   H483      1.0  0.33503  0.06057  0.92297  1.0000
  H   H484      1.0  0.27277  0.94113  0.58963  1.0000
  H   H485      1.0  0.05887  0.33163  0.58963  1.0000
  H   H486      1.0  0.66837  0.72723  0.58963  1.0000
  C   C739      1.0  0.01033  0.25769  0.64957  1.0000
  C   C740      1.0  0.74231  0.75264  0.64957  1.0000
  C   C741      1.0  0.24736  0.98967  0.64957  1.0000
  C   C742      1.0  0.67700  0.59102  0.98290  1.0000
  C   C743      1.0  0.40898  0.08597  0.98290  1.0000
  C   C744      1.0  0.91403  0.32300  0.98290  1.0000
  C   C745      1.0  0.34366  0.92436  0.31624  1.0000
  C   C746      1.0  0.07564  0.41931  0.31624  1.0000
  C   C747      1.0  0.58069  0.65634  0.31624  1.0000
  C   C748      1.0  0.98967  0.74231  0.35043  1.0000
  C   C749      1.0  0.25769  0.24736  0.35043  1.0000
  C   C750      1.0  0.75264  0.01033  0.35043  1.0000
  C   C751      1.0  0.32300  0.40898  0.01710  1.0000
  C   C752      1.0  0.59102  0.91403  0.01710  1.0000
  C   C753      1.0  0.08597  0.67700  0.01710  1.0000
  C   C754      1.0  0.65634  0.07564  0.68376  1.0000
  C   C755      1.0  0.92436  0.58069  0.68376  1.0000
  C   C756      1.0  0.41931  0.34366  0.68376  1.0000
  C   C757      1.0  0.45250  0.44242  0.71832  1.0000
  C   C758      1.0  0.55758  0.01008  0.71832  1.0000
  C   C759      1.0  0.98992  0.54750  0.71832  1.0000
  C   C760      1.0  0.11917  0.77575  0.05165  1.0000
  C   C761      1.0  0.22425  0.34341  0.05165  1.0000
  C   C762      1.0  0.65659  0.88083  0.05165  1.0000
  C   C763      1.0  0.78583  0.10909  0.38499  1.0000
  C   C764      1.0  0.89091  0.67675  0.38499  1.0000
  C   C765      1.0  0.32325  0.21417  0.38499  1.0000
  C   C766      1.0  0.54750  0.55758  0.28168  1.0000
  C   C767      1.0  0.44242  0.98992  0.28168  1.0000
  C   C768      1.0  0.01008  0.45250  0.28168  1.0000
  C   C769      1.0  0.88083  0.22425  0.94835  1.0000
  C   C770      1.0  0.77575  0.65659  0.94835  1.0000
  C   C771      1.0  0.34341  0.11917  0.94835  1.0000
  C   C772      1.0  0.21417  0.89091  0.61501  1.0000
  C   C773      1.0  0.10909  0.32325  0.61501  1.0000
  C   C774      1.0  0.67675  0.78583  0.61501  1.0000
  C   C775      1.0  0.37492  0.41526  0.66210  1.0000
  C   C776      1.0  0.58474  0.95966  0.66210  1.0000
  C   C777      1.0  0.04034  0.62508  0.66210  1.0000
  C   C778      1.0  0.04159  0.74859  0.99543  1.0000
  C   C779      1.0  0.25141  0.29299  0.99543  1.0000
  C   C780      1.0  0.70701  0.95841  0.99543  1.0000
  C   C781      1.0  0.70825  0.08193  0.32877  1.0000
  C   C782      1.0  0.91807  0.62633  0.32877  1.0000
  C   C783      1.0  0.37367  0.29175  0.32877  1.0000
  C   C784      1.0  0.62508  0.58474  0.33790  1.0000
  C   C785      1.0  0.41526  0.04034  0.33790  1.0000
  C   C786      1.0  0.95966  0.37492  0.33790  1.0000
  C   C787      1.0  0.95841  0.25141  0.00457  1.0000
  C   C788      1.0  0.74859  0.70701  0.00457  1.0000
  C   C789      1.0  0.29299  0.04159  0.00457  1.0000
  C   C790      1.0  0.29175  0.91807  0.67123  1.0000
  C   C791      1.0  0.08193  0.37367  0.67123  1.0000
  C   C792      1.0  0.62633  0.70825  0.67123  1.0000
  C   C793      1.0  0.13609  0.11806  0.81219  1.0000
  C   C794      1.0  0.88194  0.01803  0.81219  1.0000
  C   C795      1.0  0.98197  0.86391  0.81219  1.0000
  C   C796      1.0  0.80276  0.45139  0.14552  1.0000
  C   C797      1.0  0.54861  0.35136  0.14552  1.0000
  C   C798      1.0  0.64864  0.19724  0.14552  1.0000
  C   C799      1.0  0.46942  0.78473  0.47886  1.0000
  C   C800      1.0  0.21527  0.68470  0.47886  1.0000
  C   C801      1.0  0.31530  0.53058  0.47886  1.0000
  C   C802      1.0  0.86391  0.88194  0.18781  1.0000
  C   C803      1.0  0.11806  0.98197  0.18781  1.0000
  C   C804      1.0  0.01803  0.13609  0.18781  1.0000
  C   C805      1.0  0.19724  0.54861  0.85448  1.0000
  C   C806      1.0  0.45139  0.64864  0.85448  1.0000
  C   C807      1.0  0.35136  0.80276  0.85448  1.0000
  C   C808      1.0  0.53058  0.21527  0.52114  1.0000
  C   C809      1.0  0.78473  0.31530  0.52114  1.0000
  C   C810      1.0  0.68470  0.46942  0.52114  1.0000
  C   C811      1.0  0.11458  0.24387  0.75327  1.0000
  C   C812      1.0  0.75613  0.87071  0.75327  1.0000
  C   C813      1.0  0.12929  0.88542  0.75327  1.0000
  C   C814      1.0  0.78125  0.57720  0.08660  1.0000
  C   C815      1.0  0.42280  0.20404  0.08660  1.0000
  C   C816      1.0  0.79596  0.21875  0.08660  1.0000
  C   C817      1.0  0.44791  0.91054  0.41994  1.0000
  C   C818      1.0  0.08946  0.53738  0.41994  1.0000
  C   C819      1.0  0.46262  0.55209  0.41994  1.0000
  C   C820      1.0  0.88542  0.75613  0.24673  1.0000
  C   C821      1.0  0.24387  0.12929  0.24673  1.0000
  C   C822      1.0  0.87071  0.11458  0.24673  1.0000
  C   C823      1.0  0.21875  0.42280  0.91340  1.0000
  C   C824      1.0  0.57720  0.79596  0.91340  1.0000
  C   C825      1.0  0.20404  0.78125  0.91340  1.0000
  C   C826      1.0  0.55209  0.08946  0.58006  1.0000
  C   C827      1.0  0.91054  0.46262  0.58006  1.0000
  C   C828      1.0  0.53738  0.44791  0.58006  1.0000
  C   C829      1.0  0.29324  0.34053  0.72842  1.0000
  C   C830      1.0  0.65947  0.95271  0.72842  1.0000
  C   C831      1.0  0.04729  0.70676  0.72842  1.0000
  C   C832      1.0  0.95991  0.67386  0.06175  1.0000
  C   C833      1.0  0.32614  0.28604  0.06175  1.0000
  C   C834      1.0  0.71396  0.04009  0.06175  1.0000
  C   C835      1.0  0.62657  0.00720  0.39509  1.0000
  C   C836      1.0  0.99280  0.61938  0.39509  1.0000
  C   C837      1.0  0.38062  0.37343  0.39509  1.0000
  C   C838      1.0  0.70676  0.65947  0.27158  1.0000
  C   C839      1.0  0.34053  0.04729  0.27158  1.0000
  C   C840      1.0  0.95271  0.29324  0.27158  1.0000
  C   C841      1.0  0.04009  0.32614  0.93825  1.0000
  C   C842      1.0  0.67386  0.71396  0.93825  1.0000
  C   C843      1.0  0.28604  0.95991  0.93825  1.0000
  C   C844      1.0  0.37343  0.99280  0.60491  1.0000
  C   C845      1.0  0.00720  0.38062  0.60491  1.0000
  C   C846      1.0  0.61938  0.62657  0.60491  1.0000
  H   H487      1.0  0.28700  0.35460  0.71670  1.0000
  H   H488      1.0  0.64540  0.93240  0.71670  1.0000
  H   H489      1.0  0.06760  0.71300  0.71670  1.0000
  H   H490      1.0  0.95367  0.68793  0.05003  1.0000
  H   H491      1.0  0.31207  0.26573  0.05003  1.0000
  H   H492      1.0  0.73427  0.04633  0.05003  1.0000
  H   H493      1.0  0.62033  0.02127  0.38337  1.0000
  H   H494      1.0  0.97873  0.59907  0.38337  1.0000
  H   H495      1.0  0.40093  0.37967  0.38337  1.0000
  H   H496      1.0  0.71300  0.64540  0.28330  1.0000
  H   H497      1.0  0.35460  0.06760  0.28330  1.0000
  H   H498      1.0  0.93240  0.28700  0.28330  1.0000
  H   H499      1.0  0.04633  0.31207  0.94997  1.0000
  H   H500      1.0  0.68793  0.73427  0.94997  1.0000
  H   H501      1.0  0.26573  0.95367  0.94997  1.0000
  H   H502      1.0  0.37967  0.97873  0.61663  1.0000
  H   H503      1.0  0.02127  0.40093  0.61663  1.0000
  H   H504      1.0  0.59907  0.62033  0.61663  1.0000
  C   C847      1.0  0.47944  0.45213  0.69801  1.0000
  C   C848      1.0  0.54787  0.02731  0.69801  1.0000
  C   C849      1.0  0.97269  0.52056  0.69801  1.0000
  C   C850      1.0  0.14611  0.78546  0.03134  1.0000
  C   C851      1.0  0.21454  0.36064  0.03134  1.0000
  C   C852      1.0  0.63936  0.85389  0.03134  1.0000
  C   C853      1.0  0.81277  0.11880  0.36468  1.0000
  C   C854      1.0  0.88120  0.69398  0.36468  1.0000
  C   C855      1.0  0.30602  0.18723  0.36468  1.0000
  C   C856      1.0  0.52056  0.54787  0.30199  1.0000
  C   C857      1.0  0.45213  0.97269  0.30199  1.0000
  C   C858      1.0  0.02731  0.47944  0.30199  1.0000
  C   C859      1.0  0.85389  0.21454  0.96866  1.0000
  C   C860      1.0  0.78546  0.63936  0.96866  1.0000
  C   C861      1.0  0.36064  0.14611  0.96866  1.0000
  C   C862      1.0  0.18723  0.88120  0.63532  1.0000
  C   C863      1.0  0.11880  0.30602  0.63532  1.0000
  C   C864      1.0  0.69398  0.81277  0.63532  1.0000
  H   H505      1.0  0.47500  0.44830  0.67580  1.0000
  H   H506      1.0  0.55170  0.02670  0.67580  1.0000
  H   H507      1.0  0.97330  0.52500  0.67580  1.0000
  H   H508      1.0  0.14167  0.78163  0.00913  1.0000
  H   H509      1.0  0.21837  0.36003  0.00913  1.0000
  H   H510      1.0  0.63997  0.85833  0.00913  1.0000
  H   H511      1.0  0.80833  0.11497  0.34247  1.0000
  H   H512      1.0  0.88503  0.69337  0.34247  1.0000
  H   H513      1.0  0.30663  0.19167  0.34247  1.0000
  H   H514      1.0  0.52500  0.55170  0.32420  1.0000
  H   H515      1.0  0.44830  0.97330  0.32420  1.0000
  H   H516      1.0  0.02670  0.47500  0.32420  1.0000
  H   H517      1.0  0.85833  0.21837  0.99087  1.0000
  H   H518      1.0  0.78163  0.63997  0.99087  1.0000
  H   H519      1.0  0.36003  0.14167  0.99087  1.0000
  H   H520      1.0  0.19167  0.88503  0.65753  1.0000
  H   H521      1.0  0.11497  0.30663  0.65753  1.0000
  H   H522      1.0  0.69337  0.80833  0.65753  1.0000
  C   C865      1.0  0.00331  0.28740  0.69556  1.0000
  C   C866      1.0  0.71260  0.71591  0.69556  1.0000
  C   C867      1.0  0.28409  0.99669  0.69556  1.0000
  C   C868      1.0  0.66998  0.62073  0.02889  1.0000
  C   C869      1.0  0.37927  0.04924  0.02889  1.0000
  C   C870      1.0  0.95076  0.33002  0.02889  1.0000
  C   C871      1.0  0.33664  0.95407  0.36223  1.0000
  C   C872      1.0  0.04593  0.38258  0.36223  1.0000
  C   C873      1.0  0.61742  0.66336  0.36223  1.0000
  C   C874      1.0  0.99669  0.71260  0.30444  1.0000
  C   C875      1.0  0.28740  0.28409  0.30444  1.0000
  C   C876      1.0  0.71591  0.00331  0.30444  1.0000
  C   C877      1.0  0.33002  0.37927  0.97111  1.0000
  C   C878      1.0  0.62073  0.95076  0.97111  1.0000
  C   C879      1.0  0.04924  0.66998  0.97111  1.0000
  C   C880      1.0  0.66336  0.04593  0.63777  1.0000
  C   C881      1.0  0.95407  0.61742  0.63777  1.0000
  C   C882      1.0  0.38258  0.33664  0.63777  1.0000
  C   C883      1.0  0.13774  0.23585  0.77299  1.0000
  C   C884      1.0  0.76415  0.90189  0.77299  1.0000
  C   C885      1.0  0.09811  0.86226  0.77299  1.0000
  C   C886      1.0  0.80441  0.56918  0.10632  1.0000
  C   C887      1.0  0.43082  0.23522  0.10632  1.0000
  C   C888      1.0  0.76478  0.19559  0.10632  1.0000
  C   C889      1.0  0.47107  0.90252  0.43966  1.0000
  C   C890      1.0  0.09748  0.56856  0.43966  1.0000
  C   C891      1.0  0.43144  0.52893  0.43966  1.0000
  C   C892      1.0  0.86226  0.76415  0.22701  1.0000
  C   C893      1.0  0.23585  0.09811  0.22701  1.0000
  C   C894      1.0  0.90189  0.13774  0.22701  1.0000
  C   C895      1.0  0.19559  0.43082  0.89368  1.0000
  C   C896      1.0  0.56918  0.76478  0.89368  1.0000
  C   C897      1.0  0.23522  0.80441  0.89368  1.0000
  C   C898      1.0  0.52893  0.09748  0.56034  1.0000
  C   C899      1.0  0.90252  0.43144  0.56034  1.0000
  C   C900      1.0  0.56856  0.47107  0.56034  1.0000
  C   C901      1.0  0.40750  0.43275  0.67576  1.0000
  C   C902      1.0  0.56725  0.97475  0.67576  1.0000
  C   C903      1.0  0.02525  0.59250  0.67576  1.0000
  C   C904      1.0  0.07417  0.76608  0.00909  1.0000
  C   C905      1.0  0.23392  0.30808  0.00909  1.0000
  C   C906      1.0  0.69192  0.92583  0.00909  1.0000
  C   C907      1.0  0.74083  0.09942  0.34243  1.0000
  C   C908      1.0  0.90058  0.64142  0.34243  1.0000
  C   C909      1.0  0.35858  0.25917  0.34243  1.0000
  C   C910      1.0  0.59250  0.56725  0.32424  1.0000
  C   C911      1.0  0.43275  0.02525  0.32424  1.0000
  C   C912      1.0  0.97475  0.40750  0.32424  1.0000
  C   C913      1.0  0.92583  0.23392  0.99091  1.0000
  C   C914      1.0  0.76608  0.69192  0.99091  1.0000
  C   C915      1.0  0.30808  0.07417  0.99091  1.0000
  C   C916      1.0  0.25917  0.90058  0.65757  1.0000
  C   C917      1.0  0.09942  0.35858  0.65757  1.0000
  C   C918      1.0  0.64142  0.74083  0.65757  1.0000
  H   H523      1.0  0.42520  0.45150  0.66450  1.0000
  H   H524      1.0  0.54850  0.97370  0.66450  1.0000
  H   H525      1.0  0.02630  0.57480  0.66450  1.0000
  H   H526      1.0  0.09187  0.78483  0.99783  1.0000
  H   H527      1.0  0.21517  0.30703  0.99783  1.0000
  H   H528      1.0  0.69297  0.90813  0.99783  1.0000
  H   H529      1.0  0.75853  0.11817  0.33117  1.0000
  H   H530      1.0  0.88183  0.64037  0.33117  1.0000
  H   H531      1.0  0.35963  0.24147  0.33117  1.0000
  H   H532      1.0  0.57480  0.54850  0.33550  1.0000
  H   H533      1.0  0.45150  0.02630  0.33550  1.0000
  H   H534      1.0  0.97370  0.42520  0.33550  1.0000
  H   H535      1.0  0.90813  0.21517  0.00217  1.0000
  H   H536      1.0  0.78483  0.69297  0.00217  1.0000
  H   H537      1.0  0.30703  0.09187  0.00217  1.0000
  H   H538      1.0  0.24147  0.88183  0.66883  1.0000
  H   H539      1.0  0.11817  0.35963  0.66883  1.0000
  H   H540      1.0  0.64037  0.75853  0.66883  1.0000
  C   C919      1.0  0.27553  0.28918  0.76129  1.0000
  C   C920      1.0  0.71082  0.98635  0.76129  1.0000
  C   C921      1.0  0.01365  0.72447  0.76129  1.0000
  C   C922      1.0  0.94220  0.62251  0.09462  1.0000
  C   C923      1.0  0.37749  0.31968  0.09462  1.0000
  C   C924      1.0  0.68032  0.05780  0.09462  1.0000
  C   C925      1.0  0.60886  0.95585  0.42796  1.0000
  C   C926      1.0  0.04415  0.65302  0.42796  1.0000
  C   C927      1.0  0.34698  0.39114  0.42796  1.0000
  C   C928      1.0  0.72447  0.71082  0.23871  1.0000
  C   C929      1.0  0.28918  0.01365  0.23871  1.0000
  C   C930      1.0  0.98635  0.27553  0.23871  1.0000
  C   C931      1.0  0.05780  0.37749  0.90538  1.0000
  C   C932      1.0  0.62251  0.68032  0.90538  1.0000
  C   C933      1.0  0.31968  0.94220  0.90538  1.0000
  C   C934      1.0  0.39114  0.04415  0.57204  1.0000
  C   C935      1.0  0.95585  0.34698  0.57204  1.0000
  C   C936      1.0  0.65302  0.60886  0.57204  1.0000
  C   C937      1.0  0.41530  0.42358  0.70601  1.0000
  C   C938      1.0  0.57642  0.99172  0.70601  1.0000
  C   C939      1.0  0.00828  0.58470  0.70601  1.0000
  C   C940      1.0  0.08197  0.75691  0.03934  1.0000
  C   C941      1.0  0.24309  0.32505  0.03934  1.0000
  C   C942      1.0  0.67495  0.91803  0.03934  1.0000
  C   C943      1.0  0.74863  0.09025  0.37268  1.0000
  C   C944      1.0  0.90975  0.65839  0.37268  1.0000
  C   C945      1.0  0.34161  0.25137  0.37268  1.0000
  C   C946      1.0  0.58470  0.57642  0.29399  1.0000
  C   C947      1.0  0.42358  0.00828  0.29399  1.0000
  C   C948      1.0  0.99172  0.41530  0.29399  1.0000
  C   C949      1.0  0.91803  0.24309  0.96066  1.0000
  C   C950      1.0  0.75691  0.67495  0.96066  1.0000
  C   C951      1.0  0.32505  0.08197  0.96066  1.0000
  C   C952      1.0  0.25137  0.90975  0.62732  1.0000
  C   C953      1.0  0.09025  0.34161  0.62732  1.0000
  C   C954      1.0  0.65839  0.74863  0.62732  1.0000
  C   C955      1.0  0.03396  0.25275  0.66690  1.0000
  C   C956      1.0  0.74725  0.78121  0.66690  1.0000
  C   C957      1.0  0.21879  0.96604  0.66690  1.0000
  C   C958      1.0  0.70063  0.58608  0.00023  1.0000
  C   C959      1.0  0.41392  0.11454  0.00023  1.0000
  C   C960      1.0  0.88546  0.29937  0.00023  1.0000
  C   C961      1.0  0.36729  0.91942  0.33357  1.0000
  C   C962      1.0  0.08058  0.44788  0.33357  1.0000
  C   C963      1.0  0.55212  0.63271  0.33357  1.0000
  C   C964      1.0  0.96604  0.74725  0.33310  1.0000
  C   C965      1.0  0.25275  0.21879  0.33310  1.0000
  C   C966      1.0  0.78121  0.03396  0.33310  1.0000
  C   C967      1.0  0.29937  0.41392  0.99977  1.0000
  C   C968      1.0  0.58608  0.88546  0.99977  1.0000
  C   C969      1.0  0.11454  0.70063  0.99977  1.0000
  C   C970      1.0  0.63271  0.08058  0.66643  1.0000
  C   C971      1.0  0.91942  0.55212  0.66643  1.0000
  C   C972      1.0  0.44788  0.36729  0.66643  1.0000
  H   H541      1.0  0.04430  0.24120  0.65700  1.0000
  H   H542      1.0  0.75880  0.80310  0.65700  1.0000
  H   H543      1.0  0.19690  0.95570  0.65700  1.0000
  H   H544      1.0  0.71097  0.57453  0.99033  1.0000
  H   H545      1.0  0.42547  0.13643  0.99033  1.0000
  H   H546      1.0  0.86357  0.28903  0.99033  1.0000
  H   H547      1.0  0.37763  0.90787  0.32367  1.0000
  H   H548      1.0  0.09213  0.46977  0.32367  1.0000
  H   H549      1.0  0.53023  0.62237  0.32367  1.0000
  H   H550      1.0  0.95570  0.75880  0.34300  1.0000
  H   H551      1.0  0.24120  0.19690  0.34300  1.0000
  H   H552      1.0  0.80310  0.04430  0.34300  1.0000
  H   H553      1.0  0.28903  0.42547  0.00967  1.0000
  H   H554      1.0  0.57453  0.86357  0.00967  1.0000
  H   H555      1.0  0.13643  0.71097  0.00967  1.0000
  H   H556      1.0  0.62237  0.09213  0.67633  1.0000
  H   H557      1.0  0.90787  0.53023  0.67633  1.0000
  H   H558      1.0  0.46977  0.37763  0.67633  1.0000
  C   C973      1.0  0.00065  0.24482  0.61599  1.0000
  C   C974      1.0  0.75518  0.75583  0.61599  1.0000
  C   C975      1.0  0.24417  0.99935  0.61599  1.0000
  C   C976      1.0  0.66732  0.57815  0.94932  1.0000
  C   C977      1.0  0.42185  0.08916  0.94932  1.0000
  C   C978      1.0  0.91084  0.33268  0.94932  1.0000
  C   C979      1.0  0.33398  0.91149  0.28266  1.0000
  C   C980      1.0  0.08851  0.42250  0.28266  1.0000
  C   C981      1.0  0.57750  0.66602  0.28266  1.0000
  C   C982      1.0  0.99935  0.75518  0.38401  1.0000
  C   C983      1.0  0.24482  0.24417  0.38401  1.0000
  C   C984      1.0  0.75583  0.00065  0.38401  1.0000
  C   C985      1.0  0.33268  0.42185  0.05068  1.0000
  C   C986      1.0  0.57815  0.91084  0.05068  1.0000
  C   C987      1.0  0.08916  0.66732  0.05068  1.0000
  C   C988      1.0  0.66602  0.08851  0.71734  1.0000
  C   C989      1.0  0.91149  0.57750  0.71734  1.0000
  C   C990      1.0  0.42250  0.33398  0.71734  1.0000
  C   C991      1.0  0.51369  0.46770  0.70881  1.0000
  C   C992      1.0  0.53230  0.04599  0.70881  1.0000
  C   C993      1.0  0.95401  0.48631  0.70881  1.0000
  C   C994      1.0  0.18036  0.80103  0.04214  1.0000
  C   C995      1.0  0.19897  0.37932  0.04214  1.0000
  C   C996      1.0  0.62068  0.81964  0.04214  1.0000
  C   C997      1.0  0.84702  0.13437  0.37548  1.0000
  C   C998      1.0  0.86563  0.71266  0.37548  1.0000
  C   C999      1.0  0.28734  0.15298  0.37548  1.0000
  C   C1000     1.0  0.48631  0.53230  0.29119  1.0000
  C   C1001     1.0  0.46770  0.95401  0.29119  1.0000
  C   C1002     1.0  0.04599  0.51369  0.29119  1.0000
  C   C1003     1.0  0.81964  0.19897  0.95786  1.0000
  C   C1004     1.0  0.80103  0.62068  0.95786  1.0000
  C   C1005     1.0  0.37932  0.18036  0.95786  1.0000
  C   C1006     1.0  0.15298  0.86563  0.62452  1.0000
  C   C1007     1.0  0.13437  0.28734  0.62452  1.0000
  C   C1008     1.0  0.71266  0.84702  0.62452  1.0000
  H   H559      1.0  0.53200  0.47420  0.69420  1.0000
  H   H560      1.0  0.52580  0.05780  0.69420  1.0000
  H   H561      1.0  0.94220  0.46800  0.69420  1.0000
  H   H562      1.0  0.19867  0.80753  0.02753  1.0000
  H   H563      1.0  0.19247  0.39113  0.02753  1.0000
  H   H564      1.0  0.60887  0.80133  0.02753  1.0000
  H   H565      1.0  0.86533  0.14087  0.36087  1.0000
  H   H566      1.0  0.85913  0.72447  0.36087  1.0000
  H   H567      1.0  0.27553  0.13467  0.36087  1.0000
  H   H568      1.0  0.46800  0.52580  0.30580  1.0000
  H   H569      1.0  0.47420  0.94220  0.30580  1.0000
  H   H570      1.0  0.05780  0.53200  0.30580  1.0000
  H   H571      1.0  0.80133  0.19247  0.97247  1.0000
  H   H572      1.0  0.80753  0.60887  0.97247  1.0000
  H   H573      1.0  0.39113  0.19867  0.97247  1.0000
  H   H574      1.0  0.13467  0.85913  0.63913  1.0000
  H   H575      1.0  0.14087  0.27553  0.63913  1.0000
  H   H576      1.0  0.72447  0.86533  0.63913  1.0000
  C   C1009     1.0  0.99513  0.27454  0.66505  1.0000
  C   C1010     1.0  0.72546  0.72059  0.66505  1.0000
  C   C1011     1.0  0.27941  0.00487  0.66505  1.0000
  C   C1012     1.0  0.66180  0.60787  0.99838  1.0000
  C   C1013     1.0  0.39213  0.05392  0.99838  1.0000
  C   C1014     1.0  0.94608  0.33820  0.99838  1.0000
  C   C1015     1.0  0.32846  0.94121  0.33172  1.0000
  C   C1016     1.0  0.05879  0.38726  0.33172  1.0000
  C   C1017     1.0  0.61274  0.67154  0.33172  1.0000
  C   C1018     1.0  0.00487  0.72546  0.33495  1.0000
  C   C1019     1.0  0.27454  0.27941  0.33495  1.0000
  C   C1020     1.0  0.72059  0.99513  0.33495  1.0000
  C   C1021     1.0  0.33820  0.39213  0.00162  1.0000
  C   C1022     1.0  0.60787  0.94608  0.00162  1.0000
  C   C1023     1.0  0.05392  0.66180  0.00162  1.0000
  C   C1024     1.0  0.67154  0.05879  0.66828  1.0000
  C   C1025     1.0  0.94121  0.61274  0.66828  1.0000
  C   C1026     1.0  0.38726  0.32846  0.66828  1.0000
  H   H577      1.0  0.97830  0.27710  0.65380  1.0000
  H   H578      1.0  0.72290  0.70120  0.65380  1.0000
  H   H579      1.0  0.29880  0.02170  0.65380  1.0000
  H   H580      1.0  0.64497  0.61043  0.98713  1.0000
  H   H581      1.0  0.38957  0.03453  0.98713  1.0000
  H   H582      1.0  0.96547  0.35503  0.98713  1.0000
  H   H583      1.0  0.31163  0.94377  0.32047  1.0000
  H   H584      1.0  0.05623  0.36787  0.32047  1.0000
  H   H585      1.0  0.63213  0.68837  0.32047  1.0000
  H   H586      1.0  0.02170  0.72290  0.34620  1.0000
  H   H587      1.0  0.27710  0.29880  0.34620  1.0000
  H   H588      1.0  0.70120  0.97830  0.34620  1.0000
  H   H589      1.0  0.35503  0.38957  0.01287  1.0000
  H   H590      1.0  0.61043  0.96547  0.01287  1.0000
  H   H591      1.0  0.03453  0.64497  0.01287  1.0000
  H   H592      1.0  0.68837  0.05623  0.67953  1.0000
  H   H593      1.0  0.94377  0.63213  0.67953  1.0000
  H   H594      1.0  0.36787  0.31163  0.67953  1.0000
  C   C1027     1.0  0.36832  0.42427  0.62952  1.0000
  C   C1028     1.0  0.57573  0.94405  0.62952  1.0000
  C   C1029     1.0  0.05595  0.63168  0.62952  1.0000
  C   C1030     1.0  0.03499  0.75760  0.96285  1.0000
  C   C1031     1.0  0.24240  0.27738  0.96285  1.0000
  C   C1032     1.0  0.72262  0.96501  0.96285  1.0000
  C   C1033     1.0  0.70165  0.09094  0.29619  1.0000
  C   C1034     1.0  0.90906  0.61072  0.29619  1.0000
  C   C1035     1.0  0.38928  0.29835  0.29619  1.0000
  C   C1036     1.0  0.63168  0.57573  0.37048  1.0000
  C   C1037     1.0  0.42427  0.05595  0.37048  1.0000
  C   C1038     1.0  0.94405  0.36832  0.37048  1.0000
  C   C1039     1.0  0.96501  0.24240  0.03715  1.0000
  C   C1040     1.0  0.75760  0.72262  0.03715  1.0000
  C   C1041     1.0  0.27738  0.03499  0.03715  1.0000
  C   C1042     1.0  0.29835  0.90906  0.70381  1.0000
  C   C1043     1.0  0.09094  0.38928  0.70381  1.0000
  C   C1044     1.0  0.61072  0.70165  0.70381  1.0000
  C   C1045     1.0  0.34770  0.44706  0.53225  1.0000
  C   C1046     1.0  0.55294  0.90064  0.53225  1.0000
  C   C1047     1.0  0.09936  0.65230  0.53225  1.0000
  C   C1048     1.0  0.01437  0.78039  0.86558  1.0000
  C   C1049     1.0  0.21961  0.23397  0.86558  1.0000
  C   C1050     1.0  0.76603  0.98563  0.86558  1.0000
  C   C1051     1.0  0.68103  0.11373  0.19892  1.0000
  C   C1052     1.0  0.88627  0.56731  0.19892  1.0000
  C   C1053     1.0  0.43269  0.31897  0.19892  1.0000
  C   C1054     1.0  0.65230  0.55294  0.46775  1.0000
  C   C1055     1.0  0.44706  0.09936  0.46775  1.0000
  C   C1056     1.0  0.90064  0.34770  0.46775  1.0000
  C   C1057     1.0  0.98563  0.21961  0.13442  1.0000
  C   C1058     1.0  0.78039  0.76603  0.13442  1.0000
  C   C1059     1.0  0.23397  0.01437  0.13442  1.0000
  C   C1060     1.0  0.31897  0.88627  0.80108  1.0000
  C   C1061     1.0  0.11373  0.43269  0.80108  1.0000
  C   C1062     1.0  0.56731  0.68103  0.80108  1.0000
  C   C1063     1.0  0.06909  0.25902  0.71811  1.0000
  C   C1064     1.0  0.74098  0.81007  0.71811  1.0000
  C   C1065     1.0  0.18993  0.93091  0.71811  1.0000
  C   C1066     1.0  0.73576  0.59235  0.05144  1.0000
  C   C1067     1.0  0.40765  0.14340  0.05144  1.0000
  C   C1068     1.0  0.85660  0.26424  0.05144  1.0000
  C   C1069     1.0  0.40242  0.92569  0.38478  1.0000
  C   C1070     1.0  0.07431  0.47674  0.38478  1.0000
  C   C1071     1.0  0.52326  0.59758  0.38478  1.0000
  C   C1072     1.0  0.93091  0.74098  0.28189  1.0000
  C   C1073     1.0  0.25902  0.18993  0.28189  1.0000
  C   C1074     1.0  0.81007  0.06909  0.28189  1.0000
  C   C1075     1.0  0.26424  0.40765  0.94856  1.0000
  C   C1076     1.0  0.59235  0.85660  0.94856  1.0000
  C   C1077     1.0  0.14340  0.73576  0.94856  1.0000
  C   C1078     1.0  0.59758  0.07431  0.61522  1.0000
  C   C1079     1.0  0.92569  0.52326  0.61522  1.0000
  C   C1080     1.0  0.47674  0.40242  0.61522  1.0000
  C   C1081     1.0  0.34930  0.38812  0.68034  1.0000
  C   C1082     1.0  0.61188  0.96118  0.68034  1.0000
  C   C1083     1.0  0.03882  0.65070  0.68034  1.0000
  C   C1084     1.0  0.01597  0.72145  0.01367  1.0000
  C   C1085     1.0  0.27855  0.29451  0.01367  1.0000
  C   C1086     1.0  0.70549  0.98403  0.01367  1.0000
  C   C1087     1.0  0.68263  0.05479  0.34701  1.0000
  C   C1088     1.0  0.94521  0.62785  0.34701  1.0000
  C   C1089     1.0  0.37215  0.31737  0.34701  1.0000
  C   C1090     1.0  0.65070  0.61188  0.31966  1.0000
  C   C1091     1.0  0.38812  0.03882  0.31966  1.0000
  C   C1092     1.0  0.96118  0.34930  0.31966  1.0000
  C   C1093     1.0  0.98403  0.27855  0.98633  1.0000
  C   C1094     1.0  0.72145  0.70549  0.98633  1.0000
  C   C1095     1.0  0.29451  0.01597  0.98633  1.0000
  C   C1096     1.0  0.31737  0.94521  0.65299  1.0000
  C   C1097     1.0  0.05479  0.37215  0.65299  1.0000
  C   C1098     1.0  0.62785  0.68263  0.65299  1.0000
  H   H595      1.0  0.32710  0.37530  0.67130  1.0000
  H   H596      1.0  0.62470  0.95180  0.67130  1.0000
  H   H597      1.0  0.04820  0.67290  0.67130  1.0000
  H   H598      1.0  0.99377  0.70863  0.00463  1.0000
  H   H599      1.0  0.29137  0.28513  0.00463  1.0000
  H   H600      1.0  0.71487  0.00623  0.00463  1.0000
  H   H601      1.0  0.66043  0.04197  0.33797  1.0000
  H   H602      1.0  0.95803  0.61847  0.33797  1.0000
  H   H603      1.0  0.38153  0.33957  0.33797  1.0000
  H   H604      1.0  0.67290  0.62470  0.32870  1.0000
  H   H605      1.0  0.37530  0.04820  0.32870  1.0000
  H   H606      1.0  0.95180  0.32710  0.32870  1.0000
  H   H607      1.0  0.00623  0.29137  0.99537  1.0000
  H   H608      1.0  0.70863  0.71487  0.99537  1.0000
  H   H609      1.0  0.28513  0.99377  0.99537  1.0000
  H   H610      1.0  0.33957  0.95803  0.66203  1.0000
  H   H611      1.0  0.04197  0.38153  0.66203  1.0000
  H   H612      1.0  0.61847  0.66043  0.66203  1.0000
  C   C1099     1.0  0.98600  0.30524  0.71108  1.0000
  C   C1100     1.0  0.69476  0.68076  0.71108  1.0000
  C   C1101     1.0  0.31924  0.01400  0.71108  1.0000
  C   C1102     1.0  0.65267  0.63857  0.04441  1.0000
  C   C1103     1.0  0.36143  0.01409  0.04441  1.0000
  C   C1104     1.0  0.98591  0.34733  0.04441  1.0000
  C   C1105     1.0  0.31933  0.97191  0.37775  1.0000
  C   C1106     1.0  0.02809  0.34743  0.37775  1.0000
  C   C1107     1.0  0.65257  0.68067  0.37775  1.0000
  C   C1108     1.0  0.01400  0.69476  0.28892  1.0000
  C   C1109     1.0  0.30524  0.31924  0.28892  1.0000
  C   C1110     1.0  0.68076  0.98600  0.28892  1.0000
  C   C1111     1.0  0.34733  0.36143  0.95559  1.0000
  C   C1112     1.0  0.63857  0.98591  0.95559  1.0000
  C   C1113     1.0  0.01409  0.65267  0.95559  1.0000
  C   C1114     1.0  0.68067  0.02809  0.62225  1.0000
  C   C1115     1.0  0.97191  0.65257  0.62225  1.0000
  C   C1116     1.0  0.34743  0.31933  0.62225  1.0000
  C   C1117     1.0  0.02738  0.28240  0.71264  1.0000
  C   C1118     1.0  0.71760  0.74498  0.71264  1.0000
  C   C1119     1.0  0.25502  0.97262  0.71264  1.0000
  C   C1120     1.0  0.69405  0.61573  0.04597  1.0000
  C   C1121     1.0  0.38427  0.07831  0.04597  1.0000
  C   C1122     1.0  0.92169  0.30595  0.04597  1.0000
  C   C1123     1.0  0.36071  0.94907  0.37931  1.0000
  C   C1124     1.0  0.05093  0.41165  0.37931  1.0000
  C   C1125     1.0  0.58835  0.63929  0.37931  1.0000
  C   C1126     1.0  0.97262  0.71760  0.28736  1.0000
  C   C1127     1.0  0.28240  0.25502  0.28736  1.0000
  C   C1128     1.0  0.74498  0.02738  0.28736  1.0000
  C   C1129     1.0  0.30595  0.38427  0.95403  1.0000
  C   C1130     1.0  0.61573  0.92169  0.95403  1.0000
  C   C1131     1.0  0.07831  0.69405  0.95403  1.0000
  C   C1132     1.0  0.63929  0.05093  0.62069  1.0000
  C   C1133     1.0  0.94907  0.58835  0.62069  1.0000
  C   C1134     1.0  0.41165  0.36071  0.62069  1.0000
  H   H613      1.0  0.03340  0.29110  0.73380  1.0000
  H   H614      1.0  0.70890  0.74230  0.73380  1.0000
  H   H615      1.0  0.25770  0.96660  0.73380  1.0000
  H   H616      1.0  0.70007  0.62443  0.06713  1.0000
  H   H617      1.0  0.37557  0.07563  0.06713  1.0000
  H   H618      1.0  0.92437  0.29993  0.06713  1.0000
  H   H619      1.0  0.36673  0.95777  0.40047  1.0000
  H   H620      1.0  0.04223  0.40897  0.40047  1.0000
  H   H621      1.0  0.59103  0.63327  0.40047  1.0000
  H   H622      1.0  0.96660  0.70890  0.26620  1.0000
  H   H623      1.0  0.29110  0.25770  0.26620  1.0000
  H   H624      1.0  0.74230  0.03340  0.26620  1.0000
  H   H625      1.0  0.29993  0.37557  0.93287  1.0000
  H   H626      1.0  0.62443  0.92437  0.93287  1.0000
  H   H627      1.0  0.07563  0.70007  0.93287  1.0000
  H   H628      1.0  0.63327  0.04223  0.59953  1.0000
  H   H629      1.0  0.95777  0.59103  0.59953  1.0000
  H   H630      1.0  0.40897  0.36673  0.59953  1.0000
  C   C1135     1.0  0.32747  0.34877  0.72877  1.0000
  C   C1136     1.0  0.65123  0.97870  0.72877  1.0000
  C   C1137     1.0  0.02130  0.67253  0.72877  1.0000
  C   C1138     1.0  0.99414  0.68210  0.06210  1.0000
  C   C1139     1.0  0.31790  0.31203  0.06210  1.0000
  C   C1140     1.0  0.68797  0.00586  0.06210  1.0000
  C   C1141     1.0  0.66080  0.01544  0.39544  1.0000
  C   C1142     1.0  0.98456  0.64537  0.39544  1.0000
  C   C1143     1.0  0.35463  0.33920  0.39544  1.0000
  C   C1144     1.0  0.67253  0.65123  0.27123  1.0000
  C   C1145     1.0  0.34877  0.02130  0.27123  1.0000
  C   C1146     1.0  0.97870  0.32747  0.27123  1.0000
  C   C1147     1.0  0.00586  0.31790  0.93790  1.0000
  C   C1148     1.0  0.68210  0.68797  0.93790  1.0000
  C   C1149     1.0  0.31203  0.99414  0.93790  1.0000
  C   C1150     1.0  0.33920  0.98456  0.60456  1.0000
  C   C1151     1.0  0.01544  0.35463  0.60456  1.0000
  C   C1152     1.0  0.64537  0.66080  0.60456  1.0000
  C   C1153     1.0  0.35460  0.43844  0.56527  1.0000
  C   C1154     1.0  0.56156  0.91616  0.56527  1.0000
  C   C1155     1.0  0.08384  0.64540  0.56527  1.0000
  C   C1156     1.0  0.02127  0.77177  0.89860  1.0000
  C   C1157     1.0  0.22823  0.24949  0.89860  1.0000
  C   C1158     1.0  0.75051  0.97873  0.89860  1.0000
  C   C1159     1.0  0.68793  0.10511  0.23194  1.0000
  C   C1160     1.0  0.89489  0.58283  0.23194  1.0000
  C   C1161     1.0  0.41717  0.31207  0.23194  1.0000
  C   C1162     1.0  0.64540  0.56156  0.43473  1.0000
  C   C1163     1.0  0.43844  0.08384  0.43473  1.0000
  C   C1164     1.0  0.91616  0.35460  0.43473  1.0000
  C   C1165     1.0  0.97873  0.22823  0.10140  1.0000
  C   C1166     1.0  0.77177  0.75051  0.10140  1.0000
  C   C1167     1.0  0.24949  0.02127  0.10140  1.0000
  C   C1168     1.0  0.31207  0.89489  0.76806  1.0000
  C   C1169     1.0  0.10511  0.41717  0.76806  1.0000
  C   C1170     1.0  0.58283  0.68793  0.76806  1.0000
  C   C1171     1.0  0.04300  0.26450  0.69886  1.0000
  C   C1172     1.0  0.73550  0.77850  0.69886  1.0000
  C   C1173     1.0  0.22150  0.95700  0.69886  1.0000
  C   C1174     1.0  0.70967  0.59783  0.03219  1.0000
  C   C1175     1.0  0.40217  0.11183  0.03219  1.0000
  C   C1176     1.0  0.88817  0.29033  0.03219  1.0000
  C   C1177     1.0  0.37633  0.93117  0.36553  1.0000
  C   C1178     1.0  0.06883  0.44517  0.36553  1.0000
  C   C1179     1.0  0.55483  0.62367  0.36553  1.0000
  C   C1180     1.0  0.95700  0.73550  0.30114  1.0000
  C   C1181     1.0  0.26450  0.22150  0.30114  1.0000
  C   C1182     1.0  0.77850  0.04300  0.30114  1.0000
  C   C1183     1.0  0.29033  0.40217  0.96781  1.0000
  C   C1184     1.0  0.59783  0.88817  0.96781  1.0000
  C   C1185     1.0  0.11183  0.70967  0.96781  1.0000
  C   C1186     1.0  0.62367  0.06883  0.63447  1.0000
  C   C1187     1.0  0.93117  0.55483  0.63447  1.0000
  C   C1188     1.0  0.44517  0.37633  0.63447  1.0000
  C   C1189     1.0  0.33044  0.19737  0.83246  1.0000
  C   C1190     1.0  0.80263  0.13307  0.83246  1.0000
  C   C1191     1.0  0.86693  0.66956  0.83246  1.0000
  C   C1192     1.0  0.99711  0.53070  0.16579  1.0000
  C   C1193     1.0  0.46930  0.46640  0.16579  1.0000
  C   C1194     1.0  0.53360  0.00289  0.16579  1.0000
  C   C1195     1.0  0.66377  0.86404  0.49913  1.0000
  C   C1196     1.0  0.13596  0.79974  0.49913  1.0000
  C   C1197     1.0  0.20026  0.33623  0.49913  1.0000
  C   C1198     1.0  0.66956  0.80263  0.16754  1.0000
  C   C1199     1.0  0.19737  0.86693  0.16754  1.0000
  C   C1200     1.0  0.13307  0.33044  0.16754  1.0000
  C   C1201     1.0  0.00289  0.46930  0.83421  1.0000
  C   C1202     1.0  0.53070  0.53360  0.83421  1.0000
  C   C1203     1.0  0.46640  0.99711  0.83421  1.0000
  C   C1204     1.0  0.33623  0.13596  0.50087  1.0000
  C   C1205     1.0  0.86404  0.20026  0.50087  1.0000
  C   C1206     1.0  0.79974  0.66377  0.50087  1.0000
  H   H631      1.0  0.31480  0.17360  0.82640  1.0000
  H   H632      1.0  0.82640  0.14120  0.82640  1.0000
  H   H633      1.0  0.85880  0.68520  0.82640  1.0000
  H   H634      1.0  0.98147  0.50693  0.15973  1.0000
  H   H635      1.0  0.49307  0.47453  0.15973  1.0000
  H   H636      1.0  0.52547  0.01853  0.15973  1.0000
  H   H637      1.0  0.64813  0.84027  0.49307  1.0000
  H   H638      1.0  0.15973  0.80787  0.49307  1.0000
  H   H639      1.0  0.19213  0.35187  0.49307  1.0000
  H   H640      1.0  0.68520  0.82640  0.17360  1.0000
  H   H641      1.0  0.17360  0.85880  0.17360  1.0000
  H   H642      1.0  0.14120  0.31480  0.17360  1.0000
  H   H643      1.0  0.01853  0.49307  0.84027  1.0000
  H   H644      1.0  0.50693  0.52547  0.84027  1.0000
  H   H645      1.0  0.47453  0.98147  0.84027  1.0000
  H   H646      1.0  0.35187  0.15973  0.50693  1.0000
  H   H647      1.0  0.84027  0.19213  0.50693  1.0000
  H   H648      1.0  0.80787  0.64813  0.50693  1.0000
  H   H649      1.0  0.34290  0.19800  0.85190  1.0000
  H   H650      1.0  0.80200  0.14490  0.85190  1.0000
  H   H651      1.0  0.85510  0.65710  0.85190  1.0000
  H   H652      1.0  0.00957  0.53133  0.18523  1.0000
  H   H653      1.0  0.46867  0.47823  0.18523  1.0000
  H   H654      1.0  0.52177  0.99043  0.18523  1.0000
  H   H655      1.0  0.67623  0.86467  0.51857  1.0000
  H   H656      1.0  0.13533  0.81157  0.51857  1.0000
  H   H657      1.0  0.18843  0.32377  0.51857  1.0000
  H   H658      1.0  0.65710  0.80200  0.14810  1.0000
  H   H659      1.0  0.19800  0.85510  0.14810  1.0000
  H   H660      1.0  0.14490  0.34290  0.14810  1.0000
  H   H661      1.0  0.99043  0.46867  0.81477  1.0000
  H   H662      1.0  0.53133  0.52177  0.81477  1.0000
  H   H663      1.0  0.47823  0.00957  0.81477  1.0000
  H   H664      1.0  0.32377  0.13533  0.48143  1.0000
  H   H665      1.0  0.86467  0.18843  0.48143  1.0000
  H   H666      1.0  0.81157  0.67623  0.48143  1.0000
  H   H667      1.0  0.34670  0.20900  0.81510  1.0000
  H   H668      1.0  0.79100  0.13770  0.81510  1.0000
  H   H669      1.0  0.86230  0.65330  0.81510  1.0000
  H   H670      1.0  0.01337  0.54233  0.14843  1.0000
  H   H671      1.0  0.45767  0.47103  0.14843  1.0000
  H   H672      1.0  0.52897  0.98663  0.14843  1.0000
  H   H673      1.0  0.68003  0.87567  0.48177  1.0000
  H   H674      1.0  0.12433  0.80437  0.48177  1.0000
  H   H675      1.0  0.19563  0.31997  0.48177  1.0000
  H   H676      1.0  0.65330  0.79100  0.18490  1.0000
  H   H677      1.0  0.20900  0.86230  0.18490  1.0000
  H   H678      1.0  0.13770  0.34670  0.18490  1.0000
  H   H679      1.0  0.98663  0.45767  0.85157  1.0000
  H   H680      1.0  0.54233  0.52897  0.85157  1.0000
  H   H681      1.0  0.47103  0.01337  0.85157  1.0000
  H   H682      1.0  0.31997  0.12433  0.51823  1.0000
  H   H683      1.0  0.87567  0.19563  0.51823  1.0000
  H   H684      1.0  0.80437  0.68003  0.51823  1.0000
  O   O1        1.0  0.10880  0.17870  0.88420  1.0000
  O   O2        1.0  0.82130  0.93010  0.88420  1.0000
  O   O3        1.0  0.06990  0.89120  0.88420  1.0000
  O   O4        1.0  0.77547  0.51203  0.21753  1.0000
  O   O5        1.0  0.48797  0.26343  0.21753  1.0000
  O   O6        1.0  0.73657  0.22453  0.21753  1.0000
  O   O7        1.0  0.44213  0.84537  0.55087  1.0000
  O   O8        1.0  0.15463  0.59677  0.55087  1.0000
  O   O9        1.0  0.40323  0.55787  0.55087  1.0000
  O   O10       1.0  0.89120  0.82130  0.11580  1.0000
  O   O11       1.0  0.17870  0.06990  0.11580  1.0000
  O   O12       1.0  0.93010  0.10880  0.11580  1.0000
  O   O13       1.0  0.22453  0.48797  0.78247  1.0000
  O   O14       1.0  0.51203  0.73657  0.78247  1.0000
  O   O15       1.0  0.26343  0.77547  0.78247  1.0000
  O   O16       1.0  0.55787  0.15463  0.44913  1.0000
  O   O17       1.0  0.84537  0.40323  0.44913  1.0000
  O   O18       1.0  0.59677  0.44213  0.44913  1.0000
  O   O19       1.0  0.94432  0.20225  0.50646  1.0000
  O   O20       1.0  0.79775  0.74207  0.50646  1.0000
  O   O21       1.0  0.25793  0.05568  0.50646  1.0000
  O   O22       1.0  0.61099  0.53558  0.83979  1.0000
  O   O23       1.0  0.46442  0.07540  0.83979  1.0000
  O   O24       1.0  0.92460  0.38901  0.83979  1.0000
  O   O25       1.0  0.27765  0.86892  0.17313  1.0000
  O   O26       1.0  0.13108  0.40874  0.17313  1.0000
  O   O27       1.0  0.59126  0.72235  0.17313  1.0000
  O   O28       1.0  0.05568  0.79775  0.49354  1.0000
  O   O29       1.0  0.20225  0.25793  0.49354  1.0000
  O   O30       1.0  0.74207  0.94432  0.49354  1.0000
  O   O31       1.0  0.38901  0.46442  0.16021  1.0000
  O   O32       1.0  0.53558  0.92460  0.16021  1.0000
  O   O33       1.0  0.07540  0.61099  0.16021  1.0000
  O   O34       1.0  0.72235  0.13108  0.82687  1.0000
  O   O35       1.0  0.86892  0.59126  0.82687  1.0000
  O   O36       1.0  0.40874  0.27765  0.82687  1.0000
  O   O37       1.0  0.99805  0.21764  0.49783  1.0000
  O   O38       1.0  0.78236  0.78041  0.49783  1.0000
  O   O39       1.0  0.21959  0.00195  0.49783  1.0000
  O   O40       1.0  0.66472  0.55097  0.83116  1.0000
  O   O41       1.0  0.44903  0.11374  0.83116  1.0000
  O   O42       1.0  0.88626  0.33528  0.83116  1.0000
  O   O43       1.0  0.33138  0.88431  0.16450  1.0000
  O   O44       1.0  0.11569  0.44708  0.16450  1.0000
  O   O45       1.0  0.55292  0.66862  0.16450  1.0000
  O   O46       1.0  0.00195  0.78236  0.50217  1.0000
  O   O47       1.0  0.21764  0.21959  0.50217  1.0000
  O   O48       1.0  0.78041  0.99805  0.50217  1.0000
  O   O49       1.0  0.33528  0.44903  0.16884  1.0000
  O   O50       1.0  0.55097  0.88626  0.16884  1.0000
  O   O51       1.0  0.11374  0.66472  0.16884  1.0000
  O   O52       1.0  0.66862  0.11569  0.83550  1.0000
  O   O53       1.0  0.88431  0.55292  0.83550  1.0000
  O   O54       1.0  0.44708  0.33138  0.83550  1.0000
  O   O55       1.0  0.32099  0.24860  0.84700  1.0000
  O   O56       1.0  0.75140  0.07239  0.84700  1.0000
  O   O57       1.0  0.92761  0.67901  0.84700  1.0000
  O   O58       1.0  0.98766  0.58193  0.18033  1.0000
  O   O59       1.0  0.41807  0.40572  0.18033  1.0000
  O   O60       1.0  0.59428  0.01234  0.18033  1.0000
  O   O61       1.0  0.65432  0.91527  0.51367  1.0000
  O   O62       1.0  0.08473  0.73906  0.51367  1.0000
  O   O63       1.0  0.26094  0.34568  0.51367  1.0000
  O   O64       1.0  0.67901  0.75140  0.15300  1.0000
  O   O65       1.0  0.24860  0.92761  0.15300  1.0000
  O   O66       1.0  0.07239  0.32099  0.15300  1.0000
  O   O67       1.0  0.01234  0.41807  0.81967  1.0000
  O   O68       1.0  0.58193  0.59428  0.81967  1.0000
  O   O69       1.0  0.40572  0.98766  0.81967  1.0000
  O   O70       1.0  0.34568  0.08473  0.48633  1.0000
  O   O71       1.0  0.91527  0.26094  0.48633  1.0000
  O   O72       1.0  0.73906  0.65432  0.48633  1.0000
  C   C1207     1.0  0.12290  0.23680  0.86870  1.0000
  C   C1208     1.0  0.76320  0.88610  0.86870  1.0000
  C   C1209     1.0  0.11390  0.87710  0.86870  1.0000
  C   C1210     1.0  0.78957  0.57013  0.20203  1.0000
  C   C1211     1.0  0.42987  0.21943  0.20203  1.0000
  C   C1212     1.0  0.78057  0.21043  0.20203  1.0000
  C   C1213     1.0  0.45623  0.90347  0.53537  1.0000
  C   C1214     1.0  0.09653  0.55277  0.53537  1.0000
  C   C1215     1.0  0.44723  0.54377  0.53537  1.0000
  C   C1216     1.0  0.87710  0.76320  0.13130  1.0000
  C   C1217     1.0  0.23680  0.11390  0.13130  1.0000
  C   C1218     1.0  0.88610  0.12290  0.13130  1.0000
  C   C1219     1.0  0.21043  0.42987  0.79797  1.0000
  C   C1220     1.0  0.57013  0.78057  0.79797  1.0000
  C   C1221     1.0  0.21943  0.78957  0.79797  1.0000
  C   C1222     1.0  0.54377  0.09653  0.46463  1.0000
  C   C1223     1.0  0.90347  0.44723  0.46463  1.0000
  C   C1224     1.0  0.55277  0.45623  0.46463  1.0000
  H   H685      1.0  0.13100  0.25180  0.85000  1.0000
  H   H686      1.0  0.74820  0.87920  0.85000  1.0000
  H   H687      1.0  0.12080  0.86900  0.85000  1.0000
  H   H688      1.0  0.79767  0.58513  0.18333  1.0000
  H   H689      1.0  0.41487  0.21253  0.18333  1.0000
  H   H690      1.0  0.78747  0.20233  0.18333  1.0000
  H   H691      1.0  0.46433  0.91847  0.51667  1.0000
  H   H692      1.0  0.08153  0.54587  0.51667  1.0000
  H   H693      1.0  0.45413  0.53567  0.51667  1.0000
  H   H694      1.0  0.86900  0.74820  0.15000  1.0000
  H   H695      1.0  0.25180  0.12080  0.15000  1.0000
  H   H696      1.0  0.87920  0.13100  0.15000  1.0000
  H   H697      1.0  0.20233  0.41487  0.81667  1.0000
  H   H698      1.0  0.58513  0.78747  0.81667  1.0000
  H   H699      1.0  0.21253  0.79767  0.81667  1.0000
  H   H700      1.0  0.53567  0.08153  0.48333  1.0000
  H   H701      1.0  0.91847  0.45413  0.48333  1.0000
  H   H702      1.0  0.54587  0.46433  0.48333  1.0000
  H   H703      1.0  0.13930  0.24740  0.88630  1.0000
  H   H704      1.0  0.75260  0.89190  0.88630  1.0000
  H   H705      1.0  0.10810  0.86070  0.88630  1.0000
  H   H706      1.0  0.80597  0.58073  0.21963  1.0000
  H   H707      1.0  0.41927  0.22523  0.21963  1.0000
  H   H708      1.0  0.77477  0.19403  0.21963  1.0000
  H   H709      1.0  0.47263  0.91407  0.55297  1.0000
  H   H710      1.0  0.08593  0.55857  0.55297  1.0000
  H   H711      1.0  0.44143  0.52737  0.55297  1.0000
  H   H712      1.0  0.86070  0.75260  0.11370  1.0000
  H   H713      1.0  0.24740  0.10810  0.11370  1.0000
  H   H714      1.0  0.89190  0.13930  0.11370  1.0000
  H   H715      1.0  0.19403  0.41927  0.78037  1.0000
  H   H716      1.0  0.58073  0.77477  0.78037  1.0000
  H   H717      1.0  0.22523  0.80597  0.78037  1.0000
  H   H718      1.0  0.52737  0.08593  0.44703  1.0000
  H   H719      1.0  0.91407  0.44143  0.44703  1.0000
  H   H720      1.0  0.55857  0.47263  0.44703  1.0000
  H   H721      1.0  0.10060  0.23340  0.87530  1.0000
  H   H722      1.0  0.76660  0.86720  0.87530  1.0000
  H   H723      1.0  0.13280  0.89940  0.87530  1.0000
  H   H724      1.0  0.76727  0.56673  0.20863  1.0000
  H   H725      1.0  0.43327  0.20053  0.20863  1.0000
  H   H726      1.0  0.79947  0.23273  0.20863  1.0000
  H   H727      1.0  0.43393  0.90007  0.54197  1.0000
  H   H728      1.0  0.09993  0.53387  0.54197  1.0000
  H   H729      1.0  0.46613  0.56607  0.54197  1.0000
  H   H730      1.0  0.89940  0.76660  0.12470  1.0000
  H   H731      1.0  0.23340  0.13280  0.12470  1.0000
  H   H732      1.0  0.86720  0.10060  0.12470  1.0000
  H   H733      1.0  0.23273  0.43327  0.79137  1.0000
  H   H734      1.0  0.56673  0.79947  0.79137  1.0000
  H   H735      1.0  0.20053  0.76727  0.79137  1.0000
  H   H736      1.0  0.56607  0.09993  0.45803  1.0000
  H   H737      1.0  0.90007  0.46613  0.45803  1.0000
  H   H738      1.0  0.53387  0.43393  0.45803  1.0000
  O   O73       1.0  0.94790  0.14471  0.46910  1.0000
  O   O74       1.0  0.85529  0.80319  0.46910  1.0000
  O   O75       1.0  0.19681  0.05210  0.46910  1.0000
  O   O76       1.0  0.61457  0.47804  0.80243  1.0000
  O   O77       1.0  0.52196  0.13652  0.80243  1.0000
  O   O78       1.0  0.86348  0.38543  0.80243  1.0000
  O   O79       1.0  0.28123  0.81138  0.13577  1.0000
  O   O80       1.0  0.18862  0.46986  0.13577  1.0000
  O   O81       1.0  0.53014  0.71877  0.13577  1.0000
  O   O82       1.0  0.05210  0.85529  0.53090  1.0000
  O   O83       1.0  0.14471  0.19681  0.53090  1.0000
  O   O84       1.0  0.80319  0.94790  0.53090  1.0000
  O   O85       1.0  0.38543  0.52196  0.19757  1.0000
  O   O86       1.0  0.47804  0.86348  0.19757  1.0000
  O   O87       1.0  0.13652  0.61457  0.19757  1.0000
  O   O88       1.0  0.71877  0.18862  0.86423  1.0000
  O   O89       1.0  0.81138  0.53014  0.86423  1.0000
  O   O90       1.0  0.46986  0.28123  0.86423  1.0000
  O   O91       1.0  0.99370  0.16830  0.43960  1.0000
  O   O92       1.0  0.83170  0.82540  0.43960  1.0000
  O   O93       1.0  0.17460  0.00630  0.43960  1.0000
  O   O94       1.0  0.66037  0.50163  0.77293  1.0000
  O   O95       1.0  0.49837  0.15873  0.77293  1.0000
  O   O96       1.0  0.84127  0.33963  0.77293  1.0000
  O   O97       1.0  0.32703  0.83497  0.10627  1.0000
  O   O98       1.0  0.16503  0.49207  0.10627  1.0000
  O   O99       1.0  0.50793  0.67297  0.10627  1.0000
  O   O100      1.0  0.00630  0.83170  0.56040  1.0000
  O   O101      1.0  0.16830  0.17460  0.56040  1.0000
  O   O102      1.0  0.82540  0.99370  0.56040  1.0000
  O   O103      1.0  0.33963  0.49837  0.22707  1.0000
  O   O104      1.0  0.50163  0.84127  0.22707  1.0000
  O   O105      1.0  0.15873  0.66037  0.22707  1.0000
  O   O106      1.0  0.67297  0.16503  0.89373  1.0000
  O   O107      1.0  0.83497  0.50793  0.89373  1.0000
  O   O108      1.0  0.49207  0.32703  0.89373  1.0000
  O   O109      1.0  0.94880  0.37750  0.77326  1.0000
  O   O110      1.0  0.62250  0.57130  0.77326  1.0000
  O   O111      1.0  0.42870  0.05120  0.77326  1.0000
  O   O112      1.0  0.61547  0.71083  0.10659  1.0000
  O   O113      1.0  0.28917  0.90463  0.10659  1.0000
  O   O114      1.0  0.09537  0.38453  0.10659  1.0000
  O   O115      1.0  0.28213  0.04417  0.43993  1.0000
  O   O116      1.0  0.95583  0.23797  0.43993  1.0000
  O   O117      1.0  0.76203  0.71787  0.43993  1.0000
  O   O118      1.0  0.05120  0.62250  0.22674  1.0000
  O   O119      1.0  0.37750  0.42870  0.22674  1.0000
  O   O120      1.0  0.57130  0.94880  0.22674  1.0000
  O   O121      1.0  0.38453  0.28917  0.89341  1.0000
  O   O122      1.0  0.71083  0.09537  0.89341  1.0000
  O   O123      1.0  0.90463  0.61547  0.89341  1.0000
  O   O124      1.0  0.71787  0.95583  0.56007  1.0000
  O   O125      1.0  0.04417  0.76203  0.56007  1.0000
  O   O126      1.0  0.23797  0.28213  0.56007  1.0000
  O   O127      1.0  0.90690  0.34963  0.74490  1.0000
  O   O128      1.0  0.65037  0.55727  0.74490  1.0000
  O   O129      1.0  0.44273  0.09310  0.74490  1.0000
  O   O130      1.0  0.57357  0.68296  0.07823  1.0000
  O   O131      1.0  0.31704  0.89060  0.07823  1.0000
  O   O132      1.0  0.10940  0.42643  0.07823  1.0000
  O   O133      1.0  0.24023  0.01630  0.41157  1.0000
  O   O134      1.0  0.98370  0.22394  0.41157  1.0000
  O   O135      1.0  0.77606  0.75977  0.41157  1.0000
  O   O136      1.0  0.09310  0.65037  0.25510  1.0000
  O   O137      1.0  0.34963  0.44273  0.25510  1.0000
  O   O138      1.0  0.55727  0.90690  0.25510  1.0000
  O   O139      1.0  0.42643  0.31704  0.92177  1.0000
  O   O140      1.0  0.68296  0.10940  0.92177  1.0000
  O   O141      1.0  0.89060  0.57357  0.92177  1.0000
  O   O142      1.0  0.75977  0.98370  0.58843  1.0000
  O   O143      1.0  0.01630  0.77606  0.58843  1.0000
  O   O144      1.0  0.22394  0.24023  0.58843  1.0000
  O   O145      1.0  0.23832  0.17112  0.77051  1.0000
  O   O146      1.0  0.82888  0.06720  0.77051  1.0000
  O   O147      1.0  0.93280  0.76168  0.77051  1.0000
  O   O148      1.0  0.90499  0.50445  0.10384  1.0000
  O   O149      1.0  0.49555  0.40053  0.10384  1.0000
  O   O150      1.0  0.59947  0.09501  0.10384  1.0000
  O   O151      1.0  0.57165  0.83779  0.43718  1.0000
  O   O152      1.0  0.16221  0.73387  0.43718  1.0000
  O   O153      1.0  0.26613  0.42835  0.43718  1.0000
  O   O154      1.0  0.76168  0.82888  0.22949  1.0000
  O   O155      1.0  0.17112  0.93280  0.22949  1.0000
  O   O156      1.0  0.06720  0.23832  0.22949  1.0000
  O   O157      1.0  0.09501  0.49555  0.89616  1.0000
  O   O158      1.0  0.50445  0.59947  0.89616  1.0000
  O   O159      1.0  0.40053  0.90499  0.89616  1.0000
  O   O160      1.0  0.42835  0.16221  0.56282  1.0000
  O   O161      1.0  0.83779  0.26613  0.56282  1.0000
  O   O162      1.0  0.73387  0.57165  0.56282  1.0000
  H   H739      1.0  0.22550  0.16990  0.75450  1.0000
  H   H740      1.0  0.83010  0.05560  0.75450  1.0000
  H   H741      1.0  0.94440  0.77450  0.75450  1.0000
  H   H742      1.0  0.89217  0.50323  0.08783  1.0000
  H   H743      1.0  0.49677  0.38893  0.08783  1.0000
  H   H744      1.0  0.61107  0.10783  0.08783  1.0000
  H   H745      1.0  0.55883  0.83657  0.42117  1.0000
  H   H746      1.0  0.16343  0.72227  0.42117  1.0000
  H   H747      1.0  0.27773  0.44117  0.42117  1.0000
  H   H748      1.0  0.77450  0.83010  0.24550  1.0000
  H   H749      1.0  0.16990  0.94440  0.24550  1.0000
  H   H750      1.0  0.05560  0.22550  0.24550  1.0000
  H   H751      1.0  0.10783  0.49677  0.91217  1.0000
  H   H752      1.0  0.50323  0.61107  0.91217  1.0000
  H   H753      1.0  0.38893  0.89217  0.91217  1.0000
  H   H754      1.0  0.44117  0.16343  0.57883  1.0000
  H   H755      1.0  0.83657  0.27773  0.57883  1.0000
  H   H756      1.0  0.72227  0.55883  0.57883  1.0000
  H   H757      1.0  0.25230  0.16330  0.76860  1.0000
  H   H758      1.0  0.83670  0.08900  0.76860  1.0000
  H   H759      1.0  0.91100  0.74770  0.76860  1.0000
  H   H760      1.0  0.91897  0.49663  0.10193  1.0000
  H   H761      1.0  0.50337  0.42233  0.10193  1.0000
  H   H762      1.0  0.57767  0.08103  0.10193  1.0000
  H   H763      1.0  0.58563  0.82997  0.43527  1.0000
  H   H764      1.0  0.17003  0.75567  0.43527  1.0000
  H   H765      1.0  0.24433  0.41437  0.43527  1.0000
  H   H766      1.0  0.74770  0.83670  0.23140  1.0000
  H   H767      1.0  0.16330  0.91100  0.23140  1.0000
  H   H768      1.0  0.08900  0.25230  0.23140  1.0000
  H   H769      1.0  0.08103  0.50337  0.89807  1.0000
  H   H770      1.0  0.49663  0.57767  0.89807  1.0000
  H   H771      1.0  0.42233  0.91897  0.89807  1.0000
  H   H772      1.0  0.41437  0.17003  0.56473  1.0000
  H   H773      1.0  0.82997  0.24433  0.56473  1.0000
  H   H774      1.0  0.75567  0.58563  0.56473  1.0000
  O   O163      1.0  0.58035  0.49540  0.73639  1.0000
  O   O164      1.0  0.50460  0.08495  0.73639  1.0000
  O   O165      1.0  0.91505  0.41965  0.73639  1.0000
  O   O166      1.0  0.24702  0.82873  0.06972  1.0000
  O   O167      1.0  0.17127  0.41828  0.06972  1.0000
  O   O168      1.0  0.58172  0.75298  0.06972  1.0000
  O   O169      1.0  0.91368  0.16207  0.40306  1.0000
  O   O170      1.0  0.83793  0.75162  0.40306  1.0000
  O   O171      1.0  0.24838  0.08632  0.40306  1.0000
  O   O172      1.0  0.41965  0.50460  0.26361  1.0000
  O   O173      1.0  0.49540  0.91505  0.26361  1.0000
  O   O174      1.0  0.08495  0.58035  0.26361  1.0000
  O   O175      1.0  0.75298  0.17127  0.93028  1.0000
  O   O176      1.0  0.82873  0.58172  0.93028  1.0000
  O   O177      1.0  0.41828  0.24702  0.93028  1.0000
  O   O178      1.0  0.08632  0.83793  0.59694  1.0000
  O   O179      1.0  0.16207  0.24838  0.59694  1.0000
  O   O180      1.0  0.75162  0.91368  0.59694  1.0000
  O   O181      1.0  0.27776  0.19230  0.82979  1.0000
  O   O182      1.0  0.80770  0.08546  0.82979  1.0000
  O   O183      1.0  0.91454  0.72224  0.82979  1.0000
  O   O184      1.0  0.94443  0.52563  0.16312  1.0000
  O   O185      1.0  0.47437  0.41879  0.16312  1.0000
  O   O186      1.0  0.58121  0.05557  0.16312  1.0000
  O   O187      1.0  0.61109  0.85897  0.49646  1.0000
  O   O188      1.0  0.14103  0.75213  0.49646  1.0000
  O   O189      1.0  0.24787  0.38891  0.49646  1.0000
  O   O190      1.0  0.72224  0.80770  0.17021  1.0000
  O   O191      1.0  0.19230  0.91454  0.17021  1.0000
  O   O192      1.0  0.08546  0.27776  0.17021  1.0000
  O   O193      1.0  0.05557  0.47437  0.83688  1.0000
  O   O194      1.0  0.52563  0.58121  0.83688  1.0000
  O   O195      1.0  0.41879  0.94443  0.83688  1.0000
  O   O196      1.0  0.38891  0.14103  0.50354  1.0000
  O   O197      1.0  0.85897  0.24787  0.50354  1.0000
  O   O198      1.0  0.75213  0.61109  0.50354  1.0000
  O   O199      1.0  0.13255  0.19293  0.83721  1.0000
  O   O200      1.0  0.80707  0.93962  0.83721  1.0000
  O   O201      1.0  0.06038  0.86745  0.83721  1.0000
  O   O202      1.0  0.79922  0.52626  0.17054  1.0000
  O   O203      1.0  0.47374  0.27295  0.17054  1.0000
  O   O204      1.0  0.72705  0.20078  0.17054  1.0000
  O   O205      1.0  0.46588  0.85960  0.50388  1.0000
  O   O206      1.0  0.14040  0.60629  0.50388  1.0000
  O   O207      1.0  0.39371  0.53412  0.50388  1.0000
  O   O208      1.0  0.86745  0.80707  0.16279  1.0000
  O   O209      1.0  0.19293  0.06038  0.16279  1.0000
  O   O210      1.0  0.93962  0.13255  0.16279  1.0000
  O   O211      1.0  0.20078  0.47374  0.82946  1.0000
  O   O212      1.0  0.52626  0.72705  0.82946  1.0000
  O   O213      1.0  0.27295  0.79922  0.82946  1.0000
  O   O214      1.0  0.53412  0.14040  0.49612  1.0000
  O   O215      1.0  0.85960  0.39371  0.49612  1.0000
  O   O216      1.0  0.60629  0.46588  0.49612  1.0000
  O   O217      1.0  0.25781  0.23906  0.79275  1.0000
  O   O218      1.0  0.76094  0.01875  0.79275  1.0000
  O   O219      1.0  0.98125  0.74219  0.79275  1.0000
  O   O220      1.0  0.92448  0.57239  0.12608  1.0000
  O   O221      1.0  0.42761  0.35208  0.12608  1.0000
  O   O222      1.0  0.64792  0.07552  0.12608  1.0000
  O   O223      1.0  0.59114  0.90573  0.45942  1.0000
  O   O224      1.0  0.09427  0.68542  0.45942  1.0000
  O   O225      1.0  0.31458  0.40886  0.45942  1.0000
  O   O226      1.0  0.74219  0.76094  0.20725  1.0000
  O   O227      1.0  0.23906  0.98125  0.20725  1.0000
  O   O228      1.0  0.01875  0.25781  0.20725  1.0000
  O   O229      1.0  0.07552  0.42761  0.87392  1.0000
  O   O230      1.0  0.57239  0.64792  0.87392  1.0000
  O   O231      1.0  0.35208  0.92448  0.87392  1.0000
  O   O232      1.0  0.40886  0.09427  0.54058  1.0000
  O   O233      1.0  0.90573  0.31458  0.54058  1.0000
  O   O234      1.0  0.68542  0.59114  0.54058  1.0000
  O   O235      1.0  0.19515  0.14368  0.82798  1.0000
  O   O236      1.0  0.85632  0.05147  0.82798  1.0000
  O   O237      1.0  0.94853  0.80485  0.82798  1.0000
  O   O238      1.0  0.86182  0.47701  0.16131  1.0000
  O   O239      1.0  0.52299  0.38480  0.16131  1.0000
  O   O240      1.0  0.61520  0.13818  0.16131  1.0000
  O   O241      1.0  0.52848  0.81035  0.49465  1.0000
  O   O242      1.0  0.18965  0.71814  0.49465  1.0000
  O   O243      1.0  0.28186  0.47152  0.49465  1.0000
  O   O244      1.0  0.80485  0.85632  0.17202  1.0000
  O   O245      1.0  0.14368  0.94853  0.17202  1.0000
  O   O246      1.0  0.05147  0.19515  0.17202  1.0000
  O   O247      1.0  0.13818  0.52299  0.83869  1.0000
  O   O248      1.0  0.47701  0.61520  0.83869  1.0000
  O   O249      1.0  0.38480  0.86182  0.83869  1.0000
  O   O250      1.0  0.47152  0.18965  0.50535  1.0000
  O   O251      1.0  0.81035  0.28186  0.50535  1.0000
  O   O252      1.0  0.71814  0.52848  0.50535  1.0000
  O   O253      1.0  0.56300  0.49934  0.78484  1.0000
  O   O254      1.0  0.50066  0.06366  0.78484  1.0000
  O   O255      1.0  0.93634  0.43700  0.78484  1.0000
  O   O256      1.0  0.22967  0.83267  0.11817  1.0000
  O   O257      1.0  0.16733  0.39699  0.11817  1.0000
  O   O258      1.0  0.60301  0.77033  0.11817  1.0000
  O   O259      1.0  0.89633  0.16601  0.45151  1.0000
  O   O260      1.0  0.83399  0.73033  0.45151  1.0000
  O   O261      1.0  0.26967  0.10367  0.45151  1.0000
  O   O262      1.0  0.43700  0.50066  0.21516  1.0000
  O   O263      1.0  0.49934  0.93634  0.21516  1.0000
  O   O264      1.0  0.06366  0.56300  0.21516  1.0000
  O   O265      1.0  0.77033  0.16733  0.88183  1.0000
  O   O266      1.0  0.83267  0.60301  0.88183  1.0000
  O   O267      1.0  0.39699  0.22967  0.88183  1.0000
  O   O268      1.0  0.10367  0.83399  0.54849  1.0000
  O   O269      1.0  0.16601  0.26967  0.54849  1.0000
  O   O270      1.0  0.73033  0.89633  0.54849  1.0000
  O   O271      1.0  0.15578  0.25618  0.79644  1.0000
  O   O272      1.0  0.74382  0.89960  0.79644  1.0000
  O   O273      1.0  0.10040  0.84422  0.79644  1.0000
  O   O274      1.0  0.82245  0.58951  0.12977  1.0000
  O   O275      1.0  0.41049  0.23293  0.12977  1.0000
  O   O276      1.0  0.76707  0.17755  0.12977  1.0000
  O   O277      1.0  0.48911  0.92285  0.46311  1.0000
  O   O278      1.0  0.07715  0.56627  0.46311  1.0000
  O   O279      1.0  0.43373  0.51089  0.46311  1.0000
  O   O280      1.0  0.84422  0.74382  0.20356  1.0000
  O   O281      1.0  0.25618  0.10040  0.20356  1.0000
  O   O282      1.0  0.89960  0.15578  0.20356  1.0000
  O   O283      1.0  0.17755  0.41049  0.87023  1.0000
  O   O284      1.0  0.58951  0.76707  0.87023  1.0000
  O   O285      1.0  0.23293  0.82245  0.87023  1.0000
  O   O286      1.0  0.51089  0.07715  0.53689  1.0000
  O   O287      1.0  0.92285  0.43373  0.53689  1.0000
  O   O288      1.0  0.56627  0.48911  0.53689  1.0000
  O   O289      1.0  0.37267  0.46372  0.51388  1.0000
  O   O290      1.0  0.53628  0.90895  0.51388  1.0000
  O   O291      1.0  0.09105  0.62733  0.51388  1.0000
  O   O292      1.0  0.03934  0.79705  0.84721  1.0000
  O   O293      1.0  0.20295  0.24228  0.84721  1.0000
  O   O294      1.0  0.75772  0.96066  0.84721  1.0000
  O   O295      1.0  0.70600  0.13039  0.18055  1.0000
  O   O296      1.0  0.86961  0.57562  0.18055  1.0000
  O   O297      1.0  0.42438  0.29400  0.18055  1.0000
  O   O298      1.0  0.62733  0.53628  0.48612  1.0000
  O   O299      1.0  0.46372  0.09105  0.48612  1.0000
  O   O300      1.0  0.90895  0.37267  0.48612  1.0000
  O   O301      1.0  0.96066  0.20295  0.15279  1.0000
  O   O302      1.0  0.79705  0.75772  0.15279  1.0000
  O   O303      1.0  0.24228  0.03934  0.15279  1.0000
  O   O304      1.0  0.29400  0.86961  0.81945  1.0000
  O   O305      1.0  0.13039  0.42438  0.81945  1.0000
  O   O306      1.0  0.57562  0.70600  0.81945  1.0000
  O   O307      1.0  0.31557  0.43579  0.52451  1.0000
  O   O308      1.0  0.56421  0.87978  0.52451  1.0000
  O   O309      1.0  0.12022  0.68443  0.52451  1.0000
  O   O310      1.0  0.98224  0.76912  0.85784  1.0000
  O   O311      1.0  0.23088  0.21311  0.85784  1.0000
  O   O312      1.0  0.78689  0.01776  0.85784  1.0000
  O   O313      1.0  0.64890  0.10246  0.19118  1.0000
  O   O314      1.0  0.89754  0.54645  0.19118  1.0000
  O   O315      1.0  0.45355  0.35110  0.19118  1.0000
  O   O316      1.0  0.68443  0.56421  0.47549  1.0000
  O   O317      1.0  0.43579  0.12022  0.47549  1.0000
  O   O318      1.0  0.87978  0.31557  0.47549  1.0000
  O   O319      1.0  0.01776  0.23088  0.14216  1.0000
  O   O320      1.0  0.76912  0.78689  0.14216  1.0000
  O   O321      1.0  0.21311  0.98224  0.14216  1.0000
  O   O322      1.0  0.35110  0.89754  0.80882  1.0000
  O   O323      1.0  0.10246  0.45355  0.80882  1.0000
  O   O324      1.0  0.54645  0.64890  0.80882  1.0000
  O   O325      1.0  0.21697  0.25080  0.77767  1.0000
  O   O326      1.0  0.74920  0.96617  0.77767  1.0000
  O   O327      1.0  0.03383  0.78303  0.77767  1.0000
  O   O328      1.0  0.88364  0.58413  0.11100  1.0000
  O   O329      1.0  0.41587  0.29950  0.11100  1.0000
  O   O330      1.0  0.70050  0.11636  0.11100  1.0000
  O   O331      1.0  0.55030  0.91747  0.44434  1.0000
  O   O332      1.0  0.08253  0.63284  0.44434  1.0000
  O   O333      1.0  0.36716  0.44970  0.44434  1.0000
  O   O334      1.0  0.78303  0.74920  0.22233  1.0000
  O   O335      1.0  0.25080  0.03383  0.22233  1.0000
  O   O336      1.0  0.96617  0.21697  0.22233  1.0000
  O   O337      1.0  0.11636  0.41587  0.88900  1.0000
  O   O338      1.0  0.58413  0.70050  0.88900  1.0000
  O   O339      1.0  0.29950  0.88364  0.88900  1.0000
  O   O340      1.0  0.44970  0.08253  0.55566  1.0000
  O   O341      1.0  0.91747  0.36716  0.55566  1.0000
  O   O342      1.0  0.63284  0.55030  0.55566  1.0000
  O   O343      1.0  0.13880  0.20852  0.76667  1.0000
  O   O344      1.0  0.79148  0.93028  0.76667  1.0000
  O   O345      1.0  0.06972  0.86120  0.76667  1.0000
  O   O346      1.0  0.80547  0.54185  0.10000  1.0000
  O   O347      1.0  0.45815  0.26361  0.10000  1.0000
  O   O348      1.0  0.73639  0.19453  0.10000  1.0000
  O   O349      1.0  0.47213  0.87519  0.43334  1.0000
  O   O350      1.0  0.12481  0.59695  0.43334  1.0000
  O   O351      1.0  0.40305  0.52787  0.43334  1.0000
  O   O352      1.0  0.86120  0.79148  0.23333  1.0000
  O   O353      1.0  0.20852  0.06972  0.23333  1.0000
  O   O354      1.0  0.93028  0.13880  0.23333  1.0000
  O   O355      1.0  0.19453  0.45815  0.90000  1.0000
  O   O356      1.0  0.54185  0.73639  0.90000  1.0000
  O   O357      1.0  0.26361  0.80547  0.90000  1.0000
  O   O358      1.0  0.52787  0.12481  0.56666  1.0000
  O   O359      1.0  0.87519  0.40305  0.56666  1.0000
  O   O360      1.0  0.59695  0.47213  0.56666  1.0000
  O   O361      1.0  0.18032  0.17795  0.80220  1.0000
  O   O362      1.0  0.82205  0.00237  0.80220  1.0000
  O   O363      1.0  0.99763  0.81968  0.80220  1.0000
  O   O364      1.0  0.84699  0.51128  0.13553  1.0000
  O   O365      1.0  0.48872  0.33570  0.13553  1.0000
  O   O366      1.0  0.66430  0.15301  0.13553  1.0000
  O   O367      1.0  0.51365  0.84462  0.46887  1.0000
  O   O368      1.0  0.15538  0.66904  0.46887  1.0000
  O   O369      1.0  0.33096  0.48635  0.46887  1.0000
  O   O370      1.0  0.81968  0.82205  0.19780  1.0000
  O   O371      1.0  0.17795  0.99763  0.19780  1.0000
  O   O372      1.0  0.00237  0.18032  0.19780  1.0000
  O   O373      1.0  0.15301  0.48872  0.86447  1.0000
  O   O374      1.0  0.51128  0.66430  0.86447  1.0000
  O   O375      1.0  0.33570  0.84699  0.86447  1.0000
  O   O376      1.0  0.48635  0.15538  0.53113  1.0000
  O   O377      1.0  0.84462  0.33096  0.53113  1.0000
  O   O378      1.0  0.66904  0.51365  0.53113  1.0000
  C   C1225     1.0  0.00480  0.11664  0.43736  1.0000
  C   C1226     1.0  0.88336  0.88816  0.43736  1.0000
  C   C1227     1.0  0.11184  0.99520  0.43736  1.0000
  C   C1228     1.0  0.67147  0.44997  0.77069  1.0000
  C   C1229     1.0  0.55003  0.22149  0.77069  1.0000
  C   C1230     1.0  0.77851  0.32853  0.77069  1.0000
  C   C1231     1.0  0.33813  0.78331  0.10403  1.0000
  C   C1232     1.0  0.21669  0.55483  0.10403  1.0000
  C   C1233     1.0  0.44517  0.66187  0.10403  1.0000
  C   C1234     1.0  0.99520  0.88336  0.56264  1.0000
  C   C1235     1.0  0.11664  0.11184  0.56264  1.0000
  C   C1236     1.0  0.88816  0.00480  0.56264  1.0000
  C   C1237     1.0  0.32853  0.55003  0.22931  1.0000
  C   C1238     1.0  0.44997  0.77851  0.22931  1.0000
  C   C1239     1.0  0.22149  0.67147  0.22931  1.0000
  C   C1240     1.0  0.66187  0.21669  0.89597  1.0000
  C   C1241     1.0  0.78331  0.44517  0.89597  1.0000
  C   C1242     1.0  0.55483  0.33813  0.89597  1.0000
  H   H775      1.0  0.01890  0.13620  0.42480  1.0000
  H   H776      1.0  0.86380  0.88270  0.42480  1.0000
  H   H777      1.0  0.11730  0.98110  0.42480  1.0000
  H   H778      1.0  0.68557  0.46953  0.75813  1.0000
  H   H779      1.0  0.53047  0.21603  0.75813  1.0000
  H   H780      1.0  0.78397  0.31443  0.75813  1.0000
  H   H781      1.0  0.35223  0.80287  0.09147  1.0000
  H   H782      1.0  0.19713  0.54937  0.09147  1.0000
  H   H783      1.0  0.45063  0.64777  0.09147  1.0000
  H   H784      1.0  0.98110  0.86380  0.57520  1.0000
  H   H785      1.0  0.13620  0.11730  0.57520  1.0000
  H   H786      1.0  0.88270  0.01890  0.57520  1.0000
  H   H787      1.0  0.31443  0.53047  0.24187  1.0000
  H   H788      1.0  0.46953  0.78397  0.24187  1.0000
  H   H789      1.0  0.21603  0.68557  0.24187  1.0000
  H   H790      1.0  0.64777  0.19713  0.90853  1.0000
  H   H791      1.0  0.80287  0.45063  0.90853  1.0000
  H   H792      1.0  0.54937  0.35223  0.90853  1.0000
  C   C1243     1.0  0.95633  0.08619  0.46922  1.0000
  C   C1244     1.0  0.91381  0.87014  0.46922  1.0000
  C   C1245     1.0  0.12986  0.04367  0.46922  1.0000
  C   C1246     1.0  0.62300  0.41952  0.80255  1.0000
  C   C1247     1.0  0.58048  0.20347  0.80255  1.0000
  C   C1248     1.0  0.79653  0.37700  0.80255  1.0000
  C   C1249     1.0  0.28966  0.75286  0.13589  1.0000
  C   C1250     1.0  0.24714  0.53681  0.13589  1.0000
  C   C1251     1.0  0.46319  0.71034  0.13589  1.0000
  C   C1252     1.0  0.04367  0.91381  0.53078  1.0000
  C   C1253     1.0  0.08619  0.12986  0.53078  1.0000
  C   C1254     1.0  0.87014  0.95633  0.53078  1.0000
  C   C1255     1.0  0.37700  0.58048  0.19745  1.0000
  C   C1256     1.0  0.41952  0.79653  0.19745  1.0000
  C   C1257     1.0  0.20347  0.62300  0.19745  1.0000
  C   C1258     1.0  0.71034  0.24714  0.86411  1.0000
  C   C1259     1.0  0.75286  0.46319  0.86411  1.0000
  C   C1260     1.0  0.53681  0.28966  0.86411  1.0000
  H   H793      1.0  0.93670  0.08410  0.47950  1.0000
  H   H794      1.0  0.91590  0.85260  0.47950  1.0000
  H   H795      1.0  0.14740  0.06330  0.47950  1.0000
  H   H796      1.0  0.60337  0.41743  0.81283  1.0000
  H   H797      1.0  0.58257  0.18593  0.81283  1.0000
  H   H798      1.0  0.81407  0.39663  0.81283  1.0000
  H   H799      1.0  0.27003  0.75077  0.14617  1.0000
  H   H800      1.0  0.24923  0.51927  0.14617  1.0000
  H   H801      1.0  0.48073  0.72997  0.14617  1.0000
  H   H802      1.0  0.06330  0.91590  0.52050  1.0000
  H   H803      1.0  0.08410  0.14740  0.52050  1.0000
  H   H804      1.0  0.85260  0.93670  0.52050  1.0000
  H   H805      1.0  0.39663  0.58257  0.18717  1.0000
  H   H806      1.0  0.41743  0.81407  0.18717  1.0000
  H   H807      1.0  0.18593  0.60337  0.18717  1.0000
  H   H808      1.0  0.72997  0.24923  0.85383  1.0000
  H   H809      1.0  0.75077  0.48073  0.85383  1.0000
  H   H810      1.0  0.51927  0.27003  0.85383  1.0000
  C   C1261     1.0  0.01230  0.08901  0.43850  1.0000
  C   C1262     1.0  0.91099  0.92329  0.43850  1.0000
  C   C1263     1.0  0.07671  0.98770  0.43850  1.0000
  C   C1264     1.0  0.67897  0.42234  0.77183  1.0000
  C   C1265     1.0  0.57766  0.25662  0.77183  1.0000
  C   C1266     1.0  0.74338  0.32103  0.77183  1.0000
  C   C1267     1.0  0.34563  0.75568  0.10517  1.0000
  C   C1268     1.0  0.24432  0.58996  0.10517  1.0000
  C   C1269     1.0  0.41004  0.65437  0.10517  1.0000
  C   C1270     1.0  0.98770  0.91099  0.56150  1.0000
  C   C1271     1.0  0.08901  0.07671  0.56150  1.0000
  C   C1272     1.0  0.92329  0.01230  0.56150  1.0000
  C   C1273     1.0  0.32103  0.57766  0.22817  1.0000
  C   C1274     1.0  0.42234  0.74338  0.22817  1.0000
  C   C1275     1.0  0.25662  0.67897  0.22817  1.0000
  C   C1276     1.0  0.65437  0.24432  0.89483  1.0000
  C   C1277     1.0  0.75568  0.41004  0.89483  1.0000
  C   C1278     1.0  0.58996  0.34563  0.89483  1.0000
  H   H811      1.0  0.03210  0.09110  0.42850  1.0000
  H   H812      1.0  0.90890  0.94100  0.42850  1.0000
  H   H813      1.0  0.05900  0.96790  0.42850  1.0000
  H   H814      1.0  0.69877  0.42443  0.76183  1.0000
  H   H815      1.0  0.57557  0.27433  0.76183  1.0000
  H   H816      1.0  0.72567  0.30123  0.76183  1.0000
  H   H817      1.0  0.36543  0.75777  0.09517  1.0000
  H   H818      1.0  0.24223  0.60767  0.09517  1.0000
  H   H819      1.0  0.39233  0.63457  0.09517  1.0000
  H   H820      1.0  0.96790  0.90890  0.57150  1.0000
  H   H821      1.0  0.09110  0.05900  0.57150  1.0000
  H   H822      1.0  0.94100  0.03210  0.57150  1.0000
  H   H823      1.0  0.30123  0.57557  0.23817  1.0000
  H   H824      1.0  0.42443  0.72567  0.23817  1.0000
  H   H825      1.0  0.27433  0.69877  0.23817  1.0000
  H   H826      1.0  0.63457  0.24223  0.90483  1.0000
  H   H827      1.0  0.75777  0.39233  0.90483  1.0000
  H   H828      1.0  0.60767  0.36543  0.90483  1.0000
  C   C1279     1.0  0.96229  0.05807  0.47043  1.0000
  C   C1280     1.0  0.94193  0.90422  0.47043  1.0000
  C   C1281     1.0  0.09578  0.03771  0.47043  1.0000
  C   C1282     1.0  0.62896  0.39140  0.80376  1.0000
  C   C1283     1.0  0.60860  0.23755  0.80376  1.0000
  C   C1284     1.0  0.76245  0.37104  0.80376  1.0000
  C   C1285     1.0  0.29562  0.72474  0.13710  1.0000
  C   C1286     1.0  0.27526  0.57089  0.13710  1.0000
  C   C1287     1.0  0.42911  0.70438  0.13710  1.0000
  C   C1288     1.0  0.03771  0.94193  0.52957  1.0000
  C   C1289     1.0  0.05807  0.09578  0.52957  1.0000
  C   C1290     1.0  0.90422  0.96229  0.52957  1.0000
  C   C1291     1.0  0.37104  0.60860  0.19624  1.0000
  C   C1292     1.0  0.39140  0.76245  0.19624  1.0000
  C   C1293     1.0  0.23755  0.62896  0.19624  1.0000
  C   C1294     1.0  0.70438  0.27526  0.86290  1.0000
  C   C1295     1.0  0.72474  0.42911  0.86290  1.0000
  C   C1296     1.0  0.57089  0.29562  0.86290  1.0000
  H   H829      1.0  0.94710  0.03830  0.48230  1.0000
  H   H830      1.0  0.96170  0.90880  0.48230  1.0000
  H   H831      1.0  0.09120  0.05290  0.48230  1.0000
  H   H832      1.0  0.61377  0.37163  0.81563  1.0000
  H   H833      1.0  0.62837  0.24213  0.81563  1.0000
  H   H834      1.0  0.75787  0.38623  0.81563  1.0000
  H   H835      1.0  0.28043  0.70497  0.14897  1.0000
  H   H836      1.0  0.29503  0.57547  0.14897  1.0000
  H   H837      1.0  0.42453  0.71957  0.14897  1.0000
  H   H838      1.0  0.05290  0.96170  0.51770  1.0000
  H   H839      1.0  0.03830  0.09120  0.51770  1.0000
  H   H840      1.0  0.90880  0.94710  0.51770  1.0000
  H   H841      1.0  0.38623  0.62837  0.18437  1.0000
  H   H842      1.0  0.37163  0.75787  0.18437  1.0000
  H   H843      1.0  0.24213  0.61377  0.18437  1.0000
  H   H844      1.0  0.71957  0.29503  0.85103  1.0000
  H   H845      1.0  0.70497  0.42453  0.85103  1.0000
  H   H846      1.0  0.57547  0.28043  0.85103  1.0000
  C   C1297     1.0  0.97750  0.11560  0.45400  1.0000
  C   C1298     1.0  0.88440  0.86190  0.45400  1.0000
  C   C1299     1.0  0.13810  0.02250  0.45400  1.0000
  C   C1300     1.0  0.64417  0.44893  0.78733  1.0000
  C   C1301     1.0  0.55107  0.19523  0.78733  1.0000
  C   C1302     1.0  0.80477  0.35583  0.78733  1.0000
  C   C1303     1.0  0.31083  0.78227  0.12067  1.0000
  C   C1304     1.0  0.21773  0.52857  0.12067  1.0000
  C   C1305     1.0  0.47143  0.68917  0.12067  1.0000
  C   C1306     1.0  0.02250  0.88440  0.54600  1.0000
  C   C1307     1.0  0.11560  0.13810  0.54600  1.0000
  C   C1308     1.0  0.86190  0.97750  0.54600  1.0000
  C   C1309     1.0  0.35583  0.55107  0.21267  1.0000
  C   C1310     1.0  0.44893  0.80477  0.21267  1.0000
  C   C1311     1.0  0.19523  0.64417  0.21267  1.0000
  C   C1312     1.0  0.68917  0.21773  0.87933  1.0000
  C   C1313     1.0  0.78227  0.47143  0.87933  1.0000
  C   C1314     1.0  0.52857  0.31083  0.87933  1.0000
  C   C1315     1.0  0.98912  0.05865  0.45511  1.0000
  C   C1316     1.0  0.94135  0.93047  0.45511  1.0000
  C   C1317     1.0  0.06953  0.01088  0.45511  1.0000
  C   C1318     1.0  0.65579  0.39198  0.78844  1.0000
  C   C1319     1.0  0.60802  0.26380  0.78844  1.0000
  C   C1320     1.0  0.73620  0.34421  0.78844  1.0000
  C   C1321     1.0  0.32245  0.72532  0.12178  1.0000
  C   C1322     1.0  0.27468  0.59714  0.12178  1.0000
  C   C1323     1.0  0.40286  0.67755  0.12178  1.0000
  C   C1324     1.0  0.01088  0.94135  0.54489  1.0000
  C   C1325     1.0  0.05865  0.06953  0.54489  1.0000
  C   C1326     1.0  0.93047  0.98912  0.54489  1.0000
  C   C1327     1.0  0.34421  0.60802  0.21156  1.0000
  C   C1328     1.0  0.39198  0.73620  0.21156  1.0000
  C   C1329     1.0  0.26380  0.65579  0.21156  1.0000
  C   C1330     1.0  0.67755  0.27468  0.87822  1.0000
  C   C1331     1.0  0.72532  0.40286  0.87822  1.0000
  C   C1332     1.0  0.59714  0.32245  0.87822  1.0000
  C   C1333     1.0  0.96708  0.99528  0.45443  1.0000
  C   C1334     1.0  0.00472  0.97180  0.45443  1.0000
  C   C1335     1.0  0.02820  0.03292  0.45443  1.0000
  C   C1336     1.0  0.63375  0.32861  0.78776  1.0000
  C   C1337     1.0  0.67139  0.30513  0.78776  1.0000
  C   C1338     1.0  0.69487  0.36625  0.78776  1.0000
  C   C1339     1.0  0.30041  0.66195  0.12110  1.0000
  C   C1340     1.0  0.33805  0.63847  0.12110  1.0000
  C   C1341     1.0  0.36153  0.69959  0.12110  1.0000
  C   C1342     1.0  0.03292  0.00472  0.54557  1.0000
  C   C1343     1.0  0.99528  0.02820  0.54557  1.0000
  C   C1344     1.0  0.97180  0.96708  0.54557  1.0000
  C   C1345     1.0  0.36625  0.67139  0.21224  1.0000
  C   C1346     1.0  0.32861  0.69487  0.21224  1.0000
  C   C1347     1.0  0.30513  0.63375  0.21224  1.0000
  C   C1348     1.0  0.69959  0.33805  0.87890  1.0000
  C   C1349     1.0  0.66195  0.36153  0.87890  1.0000
  C   C1350     1.0  0.63847  0.30041  0.87890  1.0000
  H   H847      1.0  0.94460  0.99200  0.45450  1.0000
  H   H848      1.0  0.00800  0.95260  0.45450  1.0000
  H   H849      1.0  0.04740  0.05540  0.45450  1.0000
  H   H850      1.0  0.61127  0.32533  0.78783  1.0000
  H   H851      1.0  0.67467  0.28593  0.78783  1.0000
  H   H852      1.0  0.71407  0.38873  0.78783  1.0000
  H   H853      1.0  0.27793  0.65867  0.12117  1.0000
  H   H854      1.0  0.34133  0.61927  0.12117  1.0000
  H   H855      1.0  0.38073  0.72207  0.12117  1.0000
  H   H856      1.0  0.05540  0.00800  0.54550  1.0000
  H   H857      1.0  0.99200  0.04740  0.54550  1.0000
  H   H858      1.0  0.95260  0.94460  0.54550  1.0000
  H   H859      1.0  0.38873  0.67467  0.21217  1.0000
  H   H860      1.0  0.32533  0.71407  0.21217  1.0000
  H   H861      1.0  0.28593  0.61127  0.21217  1.0000
  H   H862      1.0  0.72207  0.34133  0.87883  1.0000
  H   H863      1.0  0.65867  0.38073  0.87883  1.0000
  H   H864      1.0  0.61927  0.27793  0.87883  1.0000
  C   C1351     1.0  0.99504  0.02884  0.45442  1.0000
  C   C1352     1.0  0.97116  0.96620  0.45442  1.0000
  C   C1353     1.0  0.03380  0.00496  0.45442  1.0000
  C   C1354     1.0  0.66171  0.36217  0.78775  1.0000
  C   C1355     1.0  0.63783  0.29953  0.78775  1.0000
  C   C1356     1.0  0.70047  0.33829  0.78775  1.0000
  C   C1357     1.0  0.32837  0.69551  0.12109  1.0000
  C   C1358     1.0  0.30449  0.63287  0.12109  1.0000
  C   C1359     1.0  0.36713  0.67163  0.12109  1.0000
  C   C1360     1.0  0.00496  0.97116  0.54558  1.0000
  C   C1361     1.0  0.02884  0.03380  0.54558  1.0000
  C   C1362     1.0  0.96620  0.99504  0.54558  1.0000
  C   C1363     1.0  0.33829  0.63783  0.21225  1.0000
  C   C1364     1.0  0.36217  0.70047  0.21225  1.0000
  C   C1365     1.0  0.29953  0.66171  0.21225  1.0000
  C   C1366     1.0  0.67163  0.30449  0.87891  1.0000
  C   C1367     1.0  0.69551  0.36713  0.87891  1.0000
  C   C1368     1.0  0.63287  0.32837  0.87891  1.0000
