data_image0
_chemical_formula_structural       Mn4O24C12H12
_chemical_formula_sum              "Mn4 O24 C12 H12"
_cell_length_a       8.926
_cell_length_b       12.767
_cell_length_c       9.196
_cell_angle_alpha    90
_cell_angle_beta     90
_cell_angle_gamma    90

_space_group_name_H-M_alt    "P 1"
_space_group_IT_number       1

loop_
  _space_group_symop_operation_xyz
  'x, y, z'

loop_
  _atom_site_type_symbol
  _atom_site_label
  _atom_site_symmetry_multiplicity
  _atom_site_fract_x
  _atom_site_fract_y
  _atom_site_fract_z
  _atom_site_occupancy
  Mn  Mn1       1.0  0.50000  0.50000  0.50000  1.0000
  Mn  Mn2       1.0  0.00000  0.50000  0.00000  1.0000
  Mn  Mn3       1.0  0.00000  0.00000  0.00000  1.0000
  Mn  Mn4       1.0  0.50000  0.00000  0.50000  1.0000
  O   O1        1.0  0.48275  0.66330  0.41954  1.0000
  O   O2        1.0  0.01725  0.33670  0.91954  1.0000
  O   O3        1.0  0.98275  0.83670  0.08046  1.0000
  O   O4        1.0  0.51725  0.16330  0.58046  1.0000
  O   O5        1.0  0.51725  0.33670  0.58046  1.0000
  O   O6        1.0  0.98275  0.66330  0.08046  1.0000
  O   O7        1.0  0.01725  0.16330  0.91954  1.0000
  O   O8        1.0  0.48275  0.83670  0.41954  1.0000
  O   O9        1.0  0.29850  0.45825  0.37482  1.0000
  O   O10       1.0  0.20150  0.54175  0.87482  1.0000
  O   O11       1.0  0.79850  0.04175  0.12518  1.0000
  O   O12       1.0  0.70150  0.95825  0.62518  1.0000
  O   O13       1.0  0.70150  0.54175  0.62518  1.0000
  O   O14       1.0  0.79850  0.45825  0.12518  1.0000
  O   O15       1.0  0.20150  0.95825  0.87482  1.0000
  O   O16       1.0  0.29850  0.04175  0.37482  1.0000
  O   O17       1.0  0.13485  0.45849  0.19299  1.0000
  O   O18       1.0  0.36515  0.54151  0.69299  1.0000
  O   O19       1.0  0.63485  0.04151  0.30701  1.0000
  O   O20       1.0  0.86515  0.95849  0.80701  1.0000
  O   O21       1.0  0.86515  0.54151  0.80701  1.0000
  O   O22       1.0  0.63485  0.45849  0.30701  1.0000
  O   O23       1.0  0.36515  0.95849  0.69299  1.0000
  O   O24       1.0  0.13485  0.04151  0.19299  1.0000
  C   C1        1.0  0.48830  0.75000  0.47540  1.0000
  C   C2        1.0  0.01170  0.25000  0.97540  1.0000
  C   C3        1.0  0.98830  0.75000  0.02460  1.0000
  C   C4        1.0  0.51170  0.25000  0.52460  1.0000
  C   C5        1.0  0.25485  0.48251  0.25112  1.0000
  C   C6        1.0  0.24515  0.51749  0.75112  1.0000
  C   C7        1.0  0.75485  0.01749  0.24888  1.0000
  C   C8        1.0  0.74515  0.98251  0.74888  1.0000
  C   C9        1.0  0.74515  0.51749  0.74888  1.0000
  C   C10       1.0  0.75485  0.48251  0.24888  1.0000
  C   C11       1.0  0.24515  0.98251  0.75112  1.0000
  C   C12       1.0  0.25485  0.01749  0.25112  1.0000
  H   H1        1.0  0.49830  0.75000  0.57610  1.0000
  H   H2        1.0  0.00170  0.25000  0.07610  1.0000
  H   H3        1.0  0.99830  0.75000  0.92390  1.0000
  H   H4        1.0  0.50170  0.25000  0.42390  1.0000
  H   H5        1.0  0.31980  0.52340  0.19600  1.0000
  H   H6        1.0  0.18020  0.47660  0.69600  1.0000
  H   H7        1.0  0.81980  0.97660  0.30400  1.0000
  H   H8        1.0  0.68020  0.02340  0.80400  1.0000
  H   H9        1.0  0.68020  0.47660  0.80400  1.0000
  H   H10       1.0  0.81980  0.52340  0.30400  1.0000
  H   H11       1.0  0.18020  0.02340  0.69600  1.0000
  H   H12       1.0  0.31980  0.97660  0.19600  1.0000
