data_image0
_chemical_formula_structural       Bi4S8O16N8C12H4C4H4C4H4C16H4C4H4C4H4C4
_chemical_formula_sum              "Bi4 S8 O16 N8 C48 H24"
_cell_length_a       10.0459
_cell_length_b       11.4179
_cell_length_c       15.4175
_cell_angle_alpha    90
_cell_angle_beta     90
_cell_angle_gamma    90

_space_group_name_H-M_alt    "P 1"
_space_group_IT_number       1

loop_
  _space_group_symop_operation_xyz
  'x, y, z'

loop_
  _atom_site_type_symbol
  _atom_site_label
  _atom_site_symmetry_multiplicity
  _atom_site_fract_x
  _atom_site_fract_y
  _atom_site_fract_z
  _atom_site_occupancy
  Bi  Bi1       1.0  0.85950  0.39862  0.24689  1.0000
  Bi  Bi2       1.0  0.64050  0.60138  0.74689  1.0000
  Bi  Bi3       1.0  0.14050  0.89862  0.25311  1.0000
  Bi  Bi4       1.0  0.35950  0.10138  0.75311  1.0000
  S   S1        1.0  0.02161  0.57967  0.24046  1.0000
  S   S2        1.0  0.47839  0.42033  0.74046  1.0000
  S   S3        1.0  0.97839  0.07967  0.25954  1.0000
  S   S4        1.0  0.52161  0.92033  0.75954  1.0000
  S   S5        1.0  0.73278  0.49683  0.11608  1.0000
  S   S6        1.0  0.76722  0.50317  0.61608  1.0000
  S   S7        1.0  0.26722  0.99683  0.38392  1.0000
  S   S8        1.0  0.23278  0.00317  0.88392  1.0000
  O   O1        1.0  0.28010  0.72070  0.30430  1.0000
  O   O2        1.0  0.21990  0.27930  0.80430  1.0000
  O   O3        1.0  0.71990  0.22070  0.19570  1.0000
  O   O4        1.0  0.78010  0.77930  0.69570  1.0000
  O   O5        1.0  0.35920  0.69810  0.17440  1.0000
  O   O6        1.0  0.14080  0.30190  0.67440  1.0000
  O   O7        1.0  0.64080  0.19810  0.32560  1.0000
  O   O8        1.0  0.85920  0.80190  0.82560  1.0000
  O   O9        1.0  0.66980  0.54220  0.93130  1.0000
  O   O10       1.0  0.83020  0.45780  0.43130  1.0000
  O   O11       1.0  0.33020  0.04220  0.56870  1.0000
  O   O12       1.0  0.16980  0.95780  0.06870  1.0000
  O   O13       1.0  0.78830  0.47700  0.82100  1.0000
  O   O14       1.0  0.71170  0.52300  0.32100  1.0000
  O   O15       1.0  0.21170  0.97700  0.67900  1.0000
  O   O16       1.0  0.28830  0.02300  0.17900  1.0000
  N   N1        1.0  0.13400  0.37220  0.25830  1.0000
  N   N2        1.0  0.36600  0.62780  0.75830  1.0000
  N   N3        1.0  0.86600  0.87220  0.24170  1.0000
  N   N4        1.0  0.63400  0.12780  0.74170  1.0000
  N   N5        1.0  0.93510  0.35870  0.09990  1.0000
  N   N6        1.0  0.56490  0.64130  0.59990  1.0000
  N   N7        1.0  0.06490  0.85870  0.40010  1.0000
  N   N8        1.0  0.43510  0.14130  0.90010  1.0000
  C   C1        1.0  0.31280  0.66050  0.24090  1.0000
  C   C2        1.0  0.18720  0.33950  0.74090  1.0000
  C   C3        1.0  0.68720  0.16050  0.25910  1.0000
  C   C4        1.0  0.81280  0.83950  0.75910  1.0000
  C   C5        1.0  0.28970  0.53050  0.24930  1.0000
  C   C6        1.0  0.21030  0.46950  0.74930  1.0000
  C   C7        1.0  0.71030  0.03050  0.25070  1.0000
  C   C8        1.0  0.78970  0.96950  0.75070  1.0000
  C   C9        1.0  0.39470  0.45090  0.25450  1.0000
  C   C10       1.0  0.10530  0.54910  0.75450  1.0000
  C   C11       1.0  0.60530  0.95090  0.24550  1.0000
  C   C12       1.0  0.89470  0.04910  0.74550  1.0000
  H   H1        1.0  0.48240  0.47640  0.25050  1.0000
  H   H2        1.0  0.01760  0.52360  0.75050  1.0000
  H   H3        1.0  0.51760  0.97640  0.24950  1.0000
  H   H4        1.0  0.98240  0.02360  0.74950  1.0000
  C   C13       1.0  0.36610  0.33190  0.26570  1.0000
  C   C14       1.0  0.13390  0.66810  0.76570  1.0000
  C   C15       1.0  0.63390  0.83190  0.23430  1.0000
  C   C16       1.0  0.86610  0.16810  0.73430  1.0000
  H   H5        1.0  0.43410  0.27740  0.27230  1.0000
  H   H6        1.0  0.06590  0.72260  0.77230  1.0000
  H   H7        1.0  0.56590  0.77740  0.22770  1.0000
  H   H8        1.0  0.93410  0.22260  0.72770  1.0000
  C   C17       1.0  0.23640  0.29780  0.26680  1.0000
  C   C18       1.0  0.26360  0.70220  0.76680  1.0000
  C   C19       1.0  0.76360  0.79780  0.23320  1.0000
  C   C20       1.0  0.73640  0.20220  0.73320  1.0000
  H   H9        1.0  0.21770  0.21860  0.27380  1.0000
  H   H10       1.0  0.28230  0.78140  0.77380  1.0000
  H   H11       1.0  0.78230  0.71860  0.22620  1.0000
  H   H12       1.0  0.71770  0.28140  0.72620  1.0000
  C   C21       1.0  0.16080  0.48630  0.25090  1.0000
  C   C22       1.0  0.33920  0.51370  0.75090  1.0000
  C   C23       1.0  0.83920  0.98630  0.24910  1.0000
  C   C24       1.0  0.66080  0.01370  0.74910  1.0000
  C   C25       1.0  0.76360  0.48550  0.90170  1.0000
  C   C26       1.0  0.73640  0.51450  0.40170  1.0000
  C   C27       1.0  0.23640  0.98550  0.59830  1.0000
  C   C28       1.0  0.26360  0.01450  0.09830  1.0000
  C   C29       1.0  0.85380  0.41760  0.96030  1.0000
  C   C30       1.0  0.64620  0.58240  0.46030  1.0000
  C   C31       1.0  0.14620  0.91760  0.53970  1.0000
  C   C32       1.0  0.35380  0.08240  0.03970  1.0000
  C   C33       1.0  0.95330  0.35060  0.92400  1.0000
  C   C34       1.0  0.54670  0.64940  0.42400  1.0000
  C   C35       1.0  0.04670  0.85060  0.57600  1.0000
  C   C36       1.0  0.45330  0.14940  0.07600  1.0000
  H   H13       1.0  0.96190  0.34860  0.86400  1.0000
  H   H14       1.0  0.53810  0.65140  0.36400  1.0000
  H   H15       1.0  0.03810  0.84860  0.63600  1.0000
  H   H16       1.0  0.46190  0.15140  0.13600  1.0000
  C   C37       1.0  0.04070  0.28640  0.97400  1.0000
  C   C38       1.0  0.45930  0.71360  0.47400  1.0000
  C   C39       1.0  0.95930  0.78640  0.52600  1.0000
  C   C40       1.0  0.54070  0.21360  0.02600  1.0000
  H   H17       1.0  0.10640  0.24090  0.94820  1.0000
  H   H18       1.0  0.39360  0.75910  0.44820  1.0000
  H   H19       1.0  0.89360  0.74090  0.55180  1.0000
  H   H20       1.0  0.60640  0.25910  0.05180  1.0000
  C   C41       1.0  0.02880  0.29110  0.06280  1.0000
  C   C42       1.0  0.47120  0.70890  0.56280  1.0000
  C   C43       1.0  0.97120  0.79110  0.43720  1.0000
  C   C44       1.0  0.52880  0.20890  0.93720  1.0000
  H   H21       1.0  0.08590  0.24720  0.09730  1.0000
  H   H22       1.0  0.41410  0.75280  0.59730  1.0000
  H   H23       1.0  0.91410  0.74720  0.40270  1.0000
  H   H24       1.0  0.58590  0.25280  0.90270  1.0000
  C   C45       1.0  0.84670  0.42090  0.05220  1.0000
  C   C46       1.0  0.65330  0.57910  0.55220  1.0000
  C   C47       1.0  0.15330  0.92090  0.44780  1.0000
  C   C48       1.0  0.34670  0.07910  0.94780  1.0000
