data_image0
_chemical_formula_structural       Os2Na2C2H2C2H2C2H2C4H2C2H2C4H2C2H2C2H2C12N12O2H4
_chemical_formula_sum              "Os2 Na2 C32 H20 N12 O2"
_cell_length_a       6.5785
_cell_length_b       10.6416
_cell_length_c       15.6335
_cell_angle_alpha    105.243
_cell_angle_beta     95.882
_cell_angle_gamma    99.237

_space_group_name_H-M_alt    "P 1"
_space_group_IT_number       1

loop_
  _space_group_symop_operation_xyz
  'x, y, z'

loop_
  _atom_site_type_symbol
  _atom_site_label
  _atom_site_symmetry_multiplicity
  _atom_site_fract_x
  _atom_site_fract_y
  _atom_site_fract_z
  _atom_site_occupancy
  Os  Os1       1.0  0.34932  0.84103  0.73528  1.0000
  Os  Os2       1.0  0.65068  0.15897  0.26472  1.0000
  Na  Na1       1.0  0.00000  0.00000  0.00000  1.0000
  Na  Na2       1.0  0.50000  0.00000  0.00000  1.0000
  C   C1        1.0  0.31830  0.07610  0.37730  1.0000
  C   C2        1.0  0.68170  0.92390  0.62270  1.0000
  H   H1        1.0  0.23110  0.03190  0.32170  1.0000
  H   H2        1.0  0.76890  0.96810  0.67830  1.0000
  C   C3        1.0  0.24460  0.07180  0.45860  1.0000
  C   C4        1.0  0.75540  0.92820  0.54140  1.0000
  H   H3        1.0  0.10730  0.02550  0.45650  1.0000
  H   H4        1.0  0.89270  0.97450  0.54350  1.0000
  C   C5        1.0  0.36530  0.13230  0.53940  1.0000
  C   C6        1.0  0.63470  0.86770  0.46060  1.0000
  H   H5        1.0  0.31340  0.12860  0.59340  1.0000
  H   H6        1.0  0.68660  0.87140  0.40660  1.0000
  C   C7        1.0  0.57320  0.20190  0.54190  1.0000
  C   C8        1.0  0.42680  0.79810  0.45810  1.0000
  C   C9        1.0  0.71200  0.26650  0.62180  1.0000
  C   C10       1.0  0.28800  0.73350  0.37820  1.0000
  H   H7        1.0  0.66790  0.26810  0.67790  1.0000
  H   H8        1.0  0.33210  0.73190  0.32210  1.0000
  C   C11       1.0  0.91100  0.32720  0.61910  1.0000
  C   C12       1.0  0.08900  0.67280  0.38090  1.0000
  H   H9        1.0  0.00520  0.36640  0.67340  1.0000
  H   H10       1.0  0.99480  0.63360  0.32660  1.0000
  C   C13       1.0  0.97840  0.33230  0.53510  1.0000
  C   C14       1.0  0.02160  0.66770  0.46490  1.0000
  C   C15       1.0  0.18010  0.39650  0.52800  1.0000
  C   C16       1.0  0.81990  0.60350  0.47200  1.0000
  H   H11       1.0  0.27960  0.44080  0.58010  1.0000
  H   H12       1.0  0.72040  0.55920  0.41990  1.0000
  C   C17       1.0  0.22620  0.39310  0.44620  1.0000
  C   C18       1.0  0.77380  0.60690  0.55380  1.0000
  H   H13       1.0  0.35920  0.43800  0.44080  1.0000
  H   H14       1.0  0.64080  0.56200  0.55920  1.0000
  C   C19       1.0  0.08400  0.32520  0.36790  1.0000
  C   C20       1.0  0.91600  0.67480  0.63210  1.0000
  H   H15       1.0  0.12280  0.32420  0.31090  1.0000
  H   H16       1.0  0.87720  0.67580  0.68910  1.0000
  C   C21       1.0  0.84460  0.26640  0.45570  1.0000
  C   C22       1.0  0.15540  0.73360  0.54430  1.0000
  C   C23       1.0  0.63590  0.20130  0.45810  1.0000
  C   C24       1.0  0.36410  0.79870  0.54190  1.0000
  C   C25       1.0  0.44100  0.66500  0.73130  1.0000
  C   C26       1.0  0.55900  0.33500  0.26870  1.0000
  C   C27       1.0  0.79510  0.18330  0.16340  1.0000
  C   C28       1.0  0.20490  0.81670  0.83660  1.0000
  C   C29       1.0  0.25750  0.01820  0.74480  1.0000
  C   C30       1.0  0.74250  0.98180  0.25520  1.0000
  C   C31       1.0  0.59750  0.93810  0.82560  1.0000
  C   C32       1.0  0.40250  0.06190  0.17440  1.0000
  N   N1        1.0  0.51380  0.14320  0.37820  1.0000
  N   N2        1.0  0.48620  0.85680  0.62180  1.0000
  N   N3        1.0  0.89610  0.26240  0.37290  1.0000
  N   N4        1.0  0.10390  0.73760  0.62710  1.0000
  N   N5        1.0  0.48510  0.56510  0.73120  1.0000
  N   N6        1.0  0.51490  0.43490  0.26880  1.0000
  N   N7        1.0  0.13440  0.80300  0.89950  1.0000
  N   N8        1.0  0.86560  0.19700  0.10050  1.0000
  N   N9        1.0  0.20950  0.12070  0.75190  1.0000
  N   N10       1.0  0.79050  0.87930  0.24810  1.0000
  N   N11       1.0  0.26070  0.00490  0.11910  1.0000
  N   N12       1.0  0.73930  0.99510  0.88090  1.0000
  O   O1        1.0  0.29300  0.13570  0.95840  1.0000
  O   O2        1.0  0.70700  0.86430  0.04160  1.0000
  H   H17       1.0  0.72480  0.86220  0.10220  1.0000
  H   H18       1.0  0.27520  0.13780  0.89780  1.0000
  H   H19       1.0  0.72120  0.79800  0.99990  1.0000
  H   H20       1.0  0.27880  0.20200  0.00010  1.0000
