data_image0
_chemical_formula_structural       Zn2S2O14N12C8H4C2H6C2H6C2H2C2H2C8H4C2H6C2H6C2H2C2H2C4H2C4H2C4H2C4
_chemical_formula_sum              "Zn2 S2 O14 N12 C48 H46"
_cell_length_a       9.691
_cell_length_b       14.157
_cell_length_c       16.055
_cell_angle_alpha    107.408
_cell_angle_beta     99.937
_cell_angle_gamma    104.264

_space_group_name_H-M_alt    "P 1"
_space_group_IT_number       1

loop_
  _space_group_symop_operation_xyz
  'x, y, z'

loop_
  _atom_site_type_symbol
  _atom_site_label
  _atom_site_symmetry_multiplicity
  _atom_site_fract_x
  _atom_site_fract_y
  _atom_site_fract_z
  _atom_site_occupancy
  Zn  Zn1       1.0  0.80800  0.90897  0.93976  1.0000
  Zn  Zn2       1.0  0.19200  0.09103  0.06024  1.0000
  S   S1        1.0  0.98870  0.48582  0.70239  1.0000
  S   S2        1.0  0.01130  0.51418  0.29761  1.0000
  O   O1        1.0  0.94870  0.85580  0.87650  1.0000
  O   O2        1.0  0.05130  0.14420  0.12350  1.0000
  O   O3        1.0  0.17450  0.95560  0.96440  1.0000
  O   O4        1.0  0.82550  0.04440  0.03560  1.0000
  O   O5        1.0  0.59750  0.83500  0.91660  1.0000
  O   O6        1.0  0.40250  0.16500  0.08340  1.0000
  O   O7        1.0  0.57070  0.70760  0.78870  1.0000
  O   O8        1.0  0.42930  0.29240  0.21130  1.0000
  O   O9        1.0  0.07610  0.41710  0.69370  1.0000
  O   O10       1.0  0.92390  0.58290  0.30630  1.0000
  O   O11       1.0  0.87920  0.46260  0.75060  1.0000
  O   O12       1.0  0.12080  0.53740  0.24940  1.0000
  O   O13       1.0  0.92470  0.49460  0.61750  1.0000
  O   O14       1.0  0.07530  0.50540  0.38250  1.0000
  N   N1        1.0  0.95630  0.75860  0.11520  1.0000
  N   N2        1.0  0.04370  0.24140  0.88480  1.0000
  N   N3        1.0  0.91340  0.82740  0.17450  1.0000
  N   N4        1.0  0.08660  0.17260  0.82550  1.0000
  N   N5        1.0  0.87310  0.84660  0.04010  1.0000
  N   N6        1.0  0.12690  0.15340  0.95990  1.0000
  N   N7        1.0  0.73730  0.01200  0.71800  1.0000
  N   N8        1.0  0.26270  0.98800  0.28200  1.0000
  N   N9        1.0  0.65770  0.06160  0.76600  1.0000
  N   N10       1.0  0.34230  0.93840  0.23400  1.0000
  N   N11       1.0  0.75890  0.97440  0.83980  1.0000
  N   N12       1.0  0.24110  0.02560  0.16020  1.0000
  C   C1        1.0  0.01250  0.59220  0.06730  1.0000
  C   C2        1.0  0.98750  0.40780  0.93270  1.0000
  C   C3        1.0  0.13150  0.58480  0.03240  1.0000
  C   C4        1.0  0.86850  0.41520  0.96760  1.0000
  C   C5        1.0  0.11860  0.48960  0.96500  1.0000
  C   C6        1.0  0.88140  0.51040  0.03500  1.0000
  C   C7        1.0  0.02660  0.68970  0.14530  1.0000
  C   C8        1.0  0.97340  0.31030  0.85470  1.0000
  H   H1        1.0  0.98140  0.66950  0.18940  1.0000
  H   H2        1.0  0.01860  0.33050  0.81060  1.0000
  H   H3        1.0  0.13040  0.72740  0.17480  1.0000
  H   H4        1.0  0.86960  0.27260  0.82520  1.0000
  C   C9        1.0  0.27210  0.67700  0.06310  1.0000
  C   C10       1.0  0.72790  0.32300  0.93690  1.0000
  H   H5        1.0  0.32750  0.68550  0.12200  1.0000
  H   H6        1.0  0.67250  0.31450  0.87800  1.0000
  H   H7        1.0  0.24710  0.73920  0.06590  1.0000
  H   H8        1.0  0.75290  0.26080  0.93410  1.0000
  H   H9        1.0  0.33050  0.66460  0.02090  1.0000
  H   H10       1.0  0.66950  0.33540  0.97910  1.0000
  C   C11       1.0  0.25160  0.47810  0.93080  1.0000
  C   C12       1.0  0.74840  0.52190  0.06920  1.0000
  H   H11       1.0  0.29870  0.54050  0.92110  1.0000
  H   H12       1.0  0.70130  0.45950  0.07890  1.0000
  H   H13       1.0  0.22060  0.41970  0.87480  1.0000
  H   H14       1.0  0.77940  0.58030  0.12520  1.0000
  H   H15       1.0  0.31990  0.46680  0.97480  1.0000
  H   H16       1.0  0.68010  0.53320  0.02520  1.0000
  C   C13       1.0  0.86420  0.87770  0.12580  1.0000
  C   C14       1.0  0.13580  0.12230  0.87420  1.0000
  H   H17       1.0  0.82600  0.93110  0.14900  1.0000
  H   H18       1.0  0.17400  0.06890  0.85100  1.0000
  C   C15       1.0  0.93360  0.77180  0.03690  1.0000
  C   C16       1.0  0.06640  0.22820  0.96310  1.0000
  H   H19       1.0  0.95680  0.73370  0.98620  1.0000
  H   H20       1.0  0.04320  0.26630  0.01380  1.0000
  C   C17       1.0  0.62310  0.01320  0.56680  1.0000
  C   C18       1.0  0.37690  0.98680  0.43320  1.0000
  C   C19       1.0  0.52710  0.91290  0.51430  1.0000
  C   C20       1.0  0.47290  0.08710  0.48570  1.0000
  C   C21       1.0  0.40470  0.89940  0.44580  1.0000
  C   C22       1.0  0.59530  0.10060  0.55420  1.0000
  C   C23       1.0  0.76230  0.02560  0.63400  1.0000
  C   C24       1.0  0.23770  0.97440  0.36600  1.0000
  H   H21       1.0  0.80750  0.97500  0.60570  1.0000
  H   H22       1.0  0.19250  0.02500  0.39430  1.0000
  H   H23       1.0  0.83130  0.09460  0.64910  1.0000
  H   H24       1.0  0.16870  0.90540  0.35090  1.0000
  C   C25       1.0  0.55230  0.81800  0.53120  1.0000
  C   C26       1.0  0.44770  0.18200  0.46880  1.0000
  H   H25       1.0  0.50010  0.80260  0.57370  1.0000
  H   H26       1.0  0.49990  0.19740  0.42630  1.0000
  H   H27       1.0  0.65600  0.83180  0.55540  1.0000
  H   H28       1.0  0.34400  0.16820  0.44460  1.0000
  H   H29       1.0  0.51680  0.75930  0.47520  1.0000
  H   H30       1.0  0.48320  0.24070  0.52480  1.0000
  C   C27       1.0  0.30800  0.78950  0.38580  1.0000
  C   C28       1.0  0.69200  0.21050  0.61420  1.0000
  H   H31       1.0  0.35570  0.76050  0.34140  1.0000
  H   H32       1.0  0.64430  0.23950  0.65860  1.0000
  H   H33       1.0  0.21450  0.79130  0.35580  1.0000
  H   H34       1.0  0.78550  0.20870  0.64420  1.0000
  H   H35       1.0  0.29250  0.74700  0.42220  1.0000
  H   H36       1.0  0.70750  0.25300  0.57780  1.0000
  C   C29       1.0  0.67270  0.03600  0.83750  1.0000
  C   C30       1.0  0.32730  0.96400  0.16250  1.0000
  H   H37       1.0  0.62800  0.05820  0.88330  1.0000
  H   H38       1.0  0.37200  0.94180  0.11670  1.0000
  C   C31       1.0  0.79610  0.96130  0.76290  1.0000
  C   C32       1.0  0.20390  0.03870  0.23710  1.0000
  H   H39       1.0  0.85580  0.92170  0.74320  1.0000
  H   H40       1.0  0.14420  0.07830  0.25680  1.0000
  C   C33       1.0  0.14730  0.79050  0.85920  1.0000
  C   C34       1.0  0.85270  0.20950  0.14080  1.0000
  C   C35       1.0  0.29860  0.81140  0.87200  1.0000
  C   C36       1.0  0.70140  0.18860  0.12800  1.0000
  H   H41       1.0  0.36210  0.87790  0.90790  1.0000
  H   H42       1.0  0.63790  0.12210  0.09210  1.0000
  C   C37       1.0  0.35590  0.73470  0.83210  1.0000
  C   C38       1.0  0.64410  0.26530  0.16790  1.0000
  C   C39       1.0  0.26160  0.63500  0.77960  1.0000
  C   C40       1.0  0.73840  0.36500  0.22040  1.0000
  H   H43       1.0  0.29920  0.58300  0.75180  1.0000
  H   H44       1.0  0.70080  0.41700  0.24820  1.0000
  C   C41       1.0  0.11140  0.61370  0.76900  1.0000
  C   C42       1.0  0.88860  0.38630  0.23100  1.0000
  C   C43       1.0  0.05370  0.69110  0.80680  1.0000
  C   C44       1.0  0.94630  0.30890  0.19320  1.0000
  H   H45       1.0  0.95200  0.67640  0.79700  1.0000
  H   H46       1.0  0.04800  0.32360  0.20300  1.0000
  C   C45       1.0  0.08590  0.87440  0.90360  1.0000
  C   C46       1.0  0.91410  0.12560  0.09640  1.0000
  C   C47       1.0  0.52080  0.75940  0.84540  1.0000
  C   C48       1.0  0.47920  0.24060  0.15460  1.0000
