data_image0
_chemical_formula_structural       C72H36C36H36C72H36C36H36C72H72C54H36C54H18C36N108C36H36N54O144Zn36
_chemical_formula_sum              "C468 H306 N162 O144 Zn36"
_cell_length_a       21.5586
_cell_length_b       21.5586
_cell_length_c       62.2218
_cell_angle_alpha    90
_cell_angle_beta     90
_cell_angle_gamma    120

_space_group_name_H-M_alt    "P 1"
_space_group_IT_number       1

loop_
  _space_group_symop_operation_xyz
  'x, y, z'

loop_
  _atom_site_type_symbol
  _atom_site_label
  _atom_site_symmetry_multiplicity
  _atom_site_fract_x
  _atom_site_fract_y
  _atom_site_fract_z
  _atom_site_occupancy
  C   C1        1.0  0.25360  0.52630  0.38388  1.0000
  C   C2        1.0  0.47370  0.72730  0.38388  1.0000
  C   C3        1.0  0.27270  0.74640  0.38388  1.0000
  C   C4        1.0  0.52630  0.25360  0.11612  1.0000
  C   C5        1.0  0.72730  0.47370  0.11612  1.0000
  C   C6        1.0  0.74640  0.27270  0.11612  1.0000
  C   C7        1.0  0.92027  0.85963  0.71721  1.0000
  C   C8        1.0  0.14037  0.06063  0.71721  1.0000
  C   C9        1.0  0.93937  0.07973  0.71721  1.0000
  C   C10       1.0  0.19297  0.58693  0.44945  1.0000
  C   C11       1.0  0.39397  0.80703  0.44945  1.0000
  C   C12       1.0  0.41307  0.60603  0.44945  1.0000
  C   C13       1.0  0.58693  0.19297  0.05055  1.0000
  C   C14       1.0  0.80703  0.39397  0.05055  1.0000
  C   C15       1.0  0.60603  0.41307  0.05055  1.0000
  C   C16       1.0  0.85963  0.92027  0.78279  1.0000
  C   C17       1.0  0.06063  0.14037  0.78279  1.0000
  C   C18       1.0  0.07973  0.93937  0.78279  1.0000
  C   C19       1.0  0.74640  0.47370  0.61612  1.0000
  C   C20       1.0  0.52630  0.27270  0.61612  1.0000
  C   C21       1.0  0.72730  0.25360  0.61612  1.0000
  C   C22       1.0  0.47370  0.74640  0.88388  1.0000
  C   C23       1.0  0.27270  0.52630  0.88388  1.0000
  C   C24       1.0  0.25360  0.72730  0.88388  1.0000
  C   C25       1.0  0.07973  0.14037  0.28279  1.0000
  C   C26       1.0  0.85963  0.93937  0.28279  1.0000
  C   C27       1.0  0.06063  0.92027  0.28279  1.0000
  C   C28       1.0  0.80703  0.41307  0.55055  1.0000
  C   C29       1.0  0.60603  0.19297  0.55055  1.0000
  C   C30       1.0  0.58693  0.39397  0.55055  1.0000
  C   C31       1.0  0.41307  0.80703  0.94945  1.0000
  C   C32       1.0  0.19297  0.60603  0.94945  1.0000
  C   C33       1.0  0.39397  0.58693  0.94945  1.0000
  C   C34       1.0  0.14037  0.07973  0.21721  1.0000
  C   C35       1.0  0.93937  0.85963  0.21721  1.0000
  C   C36       1.0  0.92027  0.06063  0.21721  1.0000
  C   C37       1.0  0.27160  0.55000  0.36263  1.0000
  C   C38       1.0  0.45000  0.72160  0.36263  1.0000
  C   C39       1.0  0.27840  0.72840  0.36263  1.0000
  C   C40       1.0  0.55000  0.27160  0.13737  1.0000
  C   C41       1.0  0.72160  0.45000  0.13737  1.0000
  C   C42       1.0  0.72840  0.27840  0.13737  1.0000
  C   C43       1.0  0.93827  0.88333  0.69596  1.0000
  C   C44       1.0  0.11667  0.05493  0.69596  1.0000
  C   C45       1.0  0.94507  0.06173  0.69596  1.0000
  C   C46       1.0  0.21667  0.60493  0.47070  1.0000
  C   C47       1.0  0.38827  0.78333  0.47070  1.0000
  C   C48       1.0  0.39507  0.61173  0.47070  1.0000
  C   C49       1.0  0.60493  0.21667  0.02930  1.0000
  C   C50       1.0  0.78333  0.38827  0.02930  1.0000
  C   C51       1.0  0.61173  0.39507  0.02930  1.0000
  C   C52       1.0  0.88333  0.93827  0.80404  1.0000
  C   C53       1.0  0.05493  0.11667  0.80404  1.0000
  C   C54       1.0  0.06173  0.94507  0.80404  1.0000
  C   C55       1.0  0.72840  0.45000  0.63737  1.0000
  C   C56       1.0  0.55000  0.27840  0.63737  1.0000
  C   C57       1.0  0.72160  0.27160  0.63737  1.0000
  C   C58       1.0  0.45000  0.72840  0.86263  1.0000
  C   C59       1.0  0.27840  0.55000  0.86263  1.0000
  C   C60       1.0  0.27160  0.72160  0.86263  1.0000
  C   C61       1.0  0.06173  0.11667  0.30404  1.0000
  C   C62       1.0  0.88333  0.94507  0.30404  1.0000
  C   C63       1.0  0.05493  0.93827  0.30404  1.0000
  C   C64       1.0  0.78333  0.39507  0.52930  1.0000
  C   C65       1.0  0.61173  0.21667  0.52930  1.0000
  C   C66       1.0  0.60493  0.38827  0.52930  1.0000
  C   C67       1.0  0.39507  0.78333  0.97070  1.0000
  C   C68       1.0  0.21667  0.61173  0.97070  1.0000
  C   C69       1.0  0.38827  0.60493  0.97070  1.0000
  C   C70       1.0  0.11667  0.06173  0.19596  1.0000
  C   C71       1.0  0.94507  0.88333  0.19596  1.0000
  C   C72       1.0  0.93827  0.05493  0.19596  1.0000
  H   H1        1.0  0.25819  0.58146  0.35689  1.0000
  H   H2        1.0  0.41854  0.67673  0.35689  1.0000
  H   H3        1.0  0.32327  0.74181  0.35689  1.0000
  H   H4        1.0  0.58146  0.25819  0.14311  1.0000
  H   H5        1.0  0.67673  0.41854  0.14311  1.0000
  H   H6        1.0  0.74181  0.32327  0.14311  1.0000
  H   H7        1.0  0.92486  0.91479  0.69022  1.0000
  H   H8        1.0  0.08521  0.01006  0.69022  1.0000
  H   H9        1.0  0.98994  0.07514  0.69022  1.0000
  H   H10       1.0  0.24813  0.59152  0.47644  1.0000
  H   H11       1.0  0.34340  0.75187  0.47644  1.0000
  H   H12       1.0  0.40848  0.65660  0.47644  1.0000
  H   H13       1.0  0.59152  0.24813  0.02356  1.0000
  H   H14       1.0  0.75187  0.34340  0.02356  1.0000
  H   H15       1.0  0.65660  0.40848  0.02356  1.0000
  H   H16       1.0  0.91479  0.92486  0.80978  1.0000
  H   H17       1.0  0.01006  0.08521  0.80978  1.0000
  H   H18       1.0  0.07514  0.98994  0.80978  1.0000
  H   H19       1.0  0.74181  0.41854  0.64311  1.0000
  H   H20       1.0  0.58146  0.32327  0.64311  1.0000
  H   H21       1.0  0.67673  0.25819  0.64311  1.0000
  H   H22       1.0  0.41854  0.74181  0.85689  1.0000
  H   H23       1.0  0.32327  0.58146  0.85689  1.0000
  H   H24       1.0  0.25819  0.67673  0.85689  1.0000
  H   H25       1.0  0.07514  0.08521  0.30978  1.0000
  H   H26       1.0  0.91479  0.98994  0.30978  1.0000
  H   H27       1.0  0.01006  0.92486  0.30978  1.0000
  H   H28       1.0  0.75187  0.40848  0.52356  1.0000
  H   H29       1.0  0.65660  0.24813  0.52356  1.0000
  H   H30       1.0  0.59152  0.34340  0.52356  1.0000
  H   H31       1.0  0.40848  0.75187  0.97644  1.0000
  H   H32       1.0  0.24813  0.65660  0.97644  1.0000
  H   H33       1.0  0.34340  0.59152  0.97644  1.0000
  H   H34       1.0  0.08521  0.07514  0.19022  1.0000
  H   H35       1.0  0.98994  0.91479  0.19022  1.0000
  H   H36       1.0  0.92486  0.01006  0.19022  1.0000
  C   C73       1.0  0.30840  0.52730  0.35036  1.0000
  C   C74       1.0  0.47270  0.78110  0.35036  1.0000
  C   C75       1.0  0.21890  0.69160  0.35036  1.0000
  C   C76       1.0  0.52730  0.30840  0.14964  1.0000
  C   C77       1.0  0.78110  0.47270  0.14964  1.0000
  C   C78       1.0  0.69160  0.21890  0.14964  1.0000
  C   C79       1.0  0.97507  0.86063  0.68369  1.0000
  C   C80       1.0  0.13937  0.11443  0.68369  1.0000
  C   C81       1.0  0.88557  0.02493  0.68369  1.0000
  C   C82       1.0  0.19397  0.64173  0.48297  1.0000
  C   C83       1.0  0.44777  0.80603  0.48297  1.0000
  C   C84       1.0  0.35827  0.55223  0.48297  1.0000
  C   C85       1.0  0.64173  0.19397  0.01703  1.0000
  C   C86       1.0  0.80603  0.44777  0.01703  1.0000
  C   C87       1.0  0.55223  0.35827  0.01703  1.0000
  C   C88       1.0  0.86063  0.97507  0.81631  1.0000
  C   C89       1.0  0.11443  0.13937  0.81631  1.0000
  C   C90       1.0  0.02493  0.88557  0.81631  1.0000
  C   C91       1.0  0.69160  0.47270  0.64964  1.0000
  C   C92       1.0  0.52730  0.21890  0.64964  1.0000
  C   C93       1.0  0.78110  0.30840  0.64964  1.0000
  C   C94       1.0  0.47270  0.69160  0.85036  1.0000
  C   C95       1.0  0.21890  0.52730  0.85036  1.0000
  C   C96       1.0  0.30840  0.78110  0.85036  1.0000
  C   C97       1.0  0.02493  0.13937  0.31631  1.0000
  C   C98       1.0  0.86063  0.88557  0.31631  1.0000
  C   C99       1.0  0.11443  0.97507  0.31631  1.0000
  C   C100      1.0  0.80603  0.35827  0.51703  1.0000
  C   C101      1.0  0.55223  0.19397  0.51703  1.0000
  C   C102      1.0  0.64173  0.44777  0.51703  1.0000
  C   C103      1.0  0.35827  0.80603  0.98297  1.0000
  C   C104      1.0  0.19397  0.55223  0.98297  1.0000
  C   C105      1.0  0.44777  0.64173  0.98297  1.0000
  C   C106      1.0  0.13937  0.02493  0.18369  1.0000
  C   C107      1.0  0.88557  0.86063  0.18369  1.0000
  C   C108      1.0  0.97507  0.11443  0.18369  1.0000
  H   H37       1.0  0.31981  0.54310  0.33624  1.0000
  H   H38       1.0  0.45690  0.77671  0.33624  1.0000
  H   H39       1.0  0.22329  0.68019  0.33624  1.0000
  H   H40       1.0  0.54310  0.31981  0.16376  1.0000
  H   H41       1.0  0.77671  0.45690  0.16376  1.0000
  H   H42       1.0  0.68019  0.22329  0.16376  1.0000
  H   H43       1.0  0.98648  0.87643  0.66957  1.0000
  H   H44       1.0  0.12357  0.11004  0.66957  1.0000
  H   H45       1.0  0.88996  0.01352  0.66957  1.0000
  H   H46       1.0  0.20977  0.65314  0.49709  1.0000
  H   H47       1.0  0.44338  0.79023  0.49709  1.0000
  H   H48       1.0  0.34686  0.55662  0.49709  1.0000
  H   H49       1.0  0.65314  0.20977  0.00291  1.0000
  H   H50       1.0  0.79023  0.44338  0.00291  1.0000
  H   H51       1.0  0.55662  0.34686  0.00291  1.0000
  H   H52       1.0  0.87643  0.98648  0.83043  1.0000
  H   H53       1.0  0.11004  0.12357  0.83043  1.0000
  H   H54       1.0  0.01352  0.88996  0.83043  1.0000
  H   H55       1.0  0.68019  0.45690  0.66376  1.0000
  H   H56       1.0  0.54310  0.22329  0.66376  1.0000
  H   H57       1.0  0.77671  0.31981  0.66376  1.0000
  H   H58       1.0  0.45690  0.68019  0.83624  1.0000
  H   H59       1.0  0.22329  0.54310  0.83624  1.0000
  H   H60       1.0  0.31981  0.77671  0.83624  1.0000
  H   H61       1.0  0.01352  0.12357  0.33043  1.0000
  H   H62       1.0  0.87643  0.88996  0.33043  1.0000
  H   H63       1.0  0.11004  0.98648  0.33043  1.0000
  H   H64       1.0  0.79023  0.34686  0.50291  1.0000
  H   H65       1.0  0.55662  0.20977  0.50291  1.0000
  H   H66       1.0  0.65314  0.44338  0.50291  1.0000
  H   H67       1.0  0.34686  0.79023  0.99709  1.0000
  H   H68       1.0  0.20977  0.55662  0.99709  1.0000
  H   H69       1.0  0.44338  0.65314  0.99709  1.0000
  H   H70       1.0  0.12357  0.01352  0.16957  1.0000
  H   H71       1.0  0.88996  0.87643  0.16957  1.0000
  H   H72       1.0  0.98648  0.11004  0.16957  1.0000
  C   C109      1.0  0.32830  0.48320  0.35817  1.0000
  C   C110      1.0  0.51680  0.84510  0.35817  1.0000
  C   C111      1.0  0.15490  0.67170  0.35817  1.0000
  C   C112      1.0  0.48320  0.32830  0.14183  1.0000
  C   C113      1.0  0.84510  0.51680  0.14183  1.0000
  C   C114      1.0  0.67170  0.15490  0.14183  1.0000
  C   C115      1.0  0.99497  0.81653  0.69150  1.0000
  C   C116      1.0  0.18347  0.17843  0.69150  1.0000
  C   C117      1.0  0.82157  0.00503  0.69150  1.0000
  C   C118      1.0  0.14987  0.66163  0.47516  1.0000
  C   C119      1.0  0.51177  0.85013  0.47516  1.0000
  C   C120      1.0  0.33837  0.48823  0.47516  1.0000
  C   C121      1.0  0.66163  0.14987  0.02484  1.0000
  C   C122      1.0  0.85013  0.51177  0.02484  1.0000
  C   C123      1.0  0.48823  0.33837  0.02484  1.0000
  C   C124      1.0  0.81653  0.99497  0.80850  1.0000
  C   C125      1.0  0.17843  0.18347  0.80850  1.0000
  C   C126      1.0  0.00503  0.82157  0.80850  1.0000
  C   C127      1.0  0.67170  0.51680  0.64183  1.0000
  C   C128      1.0  0.48320  0.15490  0.64183  1.0000
  C   C129      1.0  0.84510  0.32830  0.64183  1.0000
  C   C130      1.0  0.51680  0.67170  0.85817  1.0000
  C   C131      1.0  0.15490  0.48320  0.85817  1.0000
  C   C132      1.0  0.32830  0.84510  0.85817  1.0000
  C   C133      1.0  0.00503  0.18347  0.30850  1.0000
  C   C134      1.0  0.81653  0.82157  0.30850  1.0000
  C   C135      1.0  0.17843  0.99497  0.30850  1.0000
  C   C136      1.0  0.85013  0.33837  0.52484  1.0000
  C   C137      1.0  0.48823  0.14987  0.52484  1.0000
  C   C138      1.0  0.66163  0.51177  0.52484  1.0000
  C   C139      1.0  0.33837  0.85013  0.97516  1.0000
  C   C140      1.0  0.14987  0.48823  0.97516  1.0000
  C   C141      1.0  0.51177  0.66163  0.97516  1.0000
  C   C142      1.0  0.18347  0.00503  0.19150  1.0000
  C   C143      1.0  0.82157  0.81653  0.19150  1.0000
  C   C144      1.0  0.99497  0.17843  0.19150  1.0000
  C   C145      1.0  0.31040  0.45760  0.37922  1.0000
  C   C146      1.0  0.54240  0.85280  0.37922  1.0000
  C   C147      1.0  0.14720  0.68960  0.37922  1.0000
  C   C148      1.0  0.45760  0.31040  0.12078  1.0000
  C   C149      1.0  0.85280  0.54240  0.12078  1.0000
  C   C150      1.0  0.68960  0.14720  0.12078  1.0000
  C   C151      1.0  0.97707  0.79093  0.71255  1.0000
  C   C152      1.0  0.20907  0.18613  0.71255  1.0000
  C   C153      1.0  0.81387  0.02293  0.71255  1.0000
  C   C154      1.0  0.12427  0.64373  0.45411  1.0000
  C   C155      1.0  0.51947  0.87573  0.45411  1.0000
  C   C156      1.0  0.35627  0.48053  0.45411  1.0000
  C   C157      1.0  0.64373  0.12427  0.04589  1.0000
  C   C158      1.0  0.87573  0.51947  0.04589  1.0000
  C   C159      1.0  0.48053  0.35627  0.04589  1.0000
  C   C160      1.0  0.79093  0.97707  0.78745  1.0000
  C   C161      1.0  0.18613  0.20907  0.78745  1.0000
  C   C162      1.0  0.02293  0.81387  0.78745  1.0000
  C   C163      1.0  0.68960  0.54240  0.62078  1.0000
  C   C164      1.0  0.45760  0.14720  0.62078  1.0000
  C   C165      1.0  0.85280  0.31040  0.62078  1.0000
  C   C166      1.0  0.54240  0.68960  0.87922  1.0000
  C   C167      1.0  0.14720  0.45760  0.87922  1.0000
  C   C168      1.0  0.31040  0.85280  0.87922  1.0000
  C   C169      1.0  0.02293  0.20907  0.28745  1.0000
  C   C170      1.0  0.79093  0.81387  0.28745  1.0000
  C   C171      1.0  0.18613  0.97707  0.28745  1.0000
  C   C172      1.0  0.87573  0.35627  0.54589  1.0000
  C   C173      1.0  0.48053  0.12427  0.54589  1.0000
  C   C174      1.0  0.64373  0.51947  0.54589  1.0000
  C   C175      1.0  0.35627  0.87573  0.95411  1.0000
  C   C176      1.0  0.12427  0.48053  0.95411  1.0000
  C   C177      1.0  0.51947  0.64373  0.95411  1.0000
  C   C178      1.0  0.20907  0.02293  0.21255  1.0000
  C   C179      1.0  0.81387  0.79093  0.21255  1.0000
  C   C180      1.0  0.97707  0.18613  0.21255  1.0000
  H   H73       1.0  0.32275  0.42478  0.38441  1.0000
  H   H74       1.0  0.57522  0.89797  0.38441  1.0000
  H   H75       1.0  0.10203  0.67725  0.38441  1.0000
  H   H76       1.0  0.42478  0.32275  0.11559  1.0000
  H   H77       1.0  0.89797  0.57522  0.11559  1.0000
  H   H78       1.0  0.67725  0.10203  0.11559  1.0000
  H   H79       1.0  0.98942  0.75811  0.71774  1.0000
  H   H80       1.0  0.24189  0.23130  0.71774  1.0000
  H   H81       1.0  0.76870  0.01058  0.71774  1.0000
  H   H82       1.0  0.09145  0.65608  0.44892  1.0000
  H   H83       1.0  0.56464  0.90855  0.44892  1.0000
  H   H84       1.0  0.34392  0.43536  0.44892  1.0000
  H   H85       1.0  0.65608  0.09145  0.05108  1.0000
  H   H86       1.0  0.90855  0.56464  0.05108  1.0000
  H   H87       1.0  0.43536  0.34392  0.05108  1.0000
  H   H88       1.0  0.75811  0.98942  0.78226  1.0000
  H   H89       1.0  0.23130  0.24189  0.78226  1.0000
  H   H90       1.0  0.01058  0.76870  0.78226  1.0000
  H   H91       1.0  0.67725  0.57522  0.61559  1.0000
  H   H92       1.0  0.42478  0.10203  0.61559  1.0000
  H   H93       1.0  0.89797  0.32275  0.61559  1.0000
  H   H94       1.0  0.57522  0.67725  0.88441  1.0000
  H   H95       1.0  0.10203  0.42478  0.88441  1.0000
  H   H96       1.0  0.32275  0.89797  0.88441  1.0000
  H   H97       1.0  0.01058  0.24189  0.28226  1.0000
  H   H98       1.0  0.75811  0.76870  0.28226  1.0000
  H   H99       1.0  0.23130  0.98942  0.28226  1.0000
  H   H100      1.0  0.90855  0.34392  0.55108  1.0000
  H   H101      1.0  0.43536  0.09145  0.55108  1.0000
  H   H102      1.0  0.65608  0.56464  0.55108  1.0000
  H   H103      1.0  0.34392  0.90855  0.94892  1.0000
  H   H104      1.0  0.09145  0.43536  0.94892  1.0000
  H   H105      1.0  0.56464  0.65608  0.94892  1.0000
  H   H106      1.0  0.24189  0.01058  0.21774  1.0000
  H   H107      1.0  0.76870  0.75811  0.21774  1.0000
  H   H108      1.0  0.98942  0.23130  0.21774  1.0000
  C   C181      1.0  0.27440  0.48080  0.39232  1.0000
  C   C182      1.0  0.51920  0.79360  0.39232  1.0000
  C   C183      1.0  0.20640  0.72560  0.39232  1.0000
  C   C184      1.0  0.48080  0.27440  0.10768  1.0000
  C   C185      1.0  0.79360  0.51920  0.10768  1.0000
  C   C186      1.0  0.72560  0.20640  0.10768  1.0000
  C   C187      1.0  0.94107  0.81413  0.72565  1.0000
  C   C188      1.0  0.18587  0.12693  0.72565  1.0000
  C   C189      1.0  0.87307  0.05893  0.72565  1.0000
  C   C190      1.0  0.14747  0.60773  0.44101  1.0000
  C   C191      1.0  0.46027  0.85253  0.44101  1.0000
  C   C192      1.0  0.39227  0.53973  0.44101  1.0000
  C   C193      1.0  0.60773  0.14747  0.05899  1.0000
  C   C194      1.0  0.85253  0.46027  0.05899  1.0000
  C   C195      1.0  0.53973  0.39227  0.05899  1.0000
  C   C196      1.0  0.81413  0.94107  0.77435  1.0000
  C   C197      1.0  0.12693  0.18587  0.77435  1.0000
  C   C198      1.0  0.05893  0.87307  0.77435  1.0000
  C   C199      1.0  0.72560  0.51920  0.60768  1.0000
  C   C200      1.0  0.48080  0.20640  0.60768  1.0000
  C   C201      1.0  0.79360  0.27440  0.60768  1.0000
  C   C202      1.0  0.51920  0.72560  0.89232  1.0000
  C   C203      1.0  0.20640  0.48080  0.89232  1.0000
  C   C204      1.0  0.27440  0.79360  0.89232  1.0000
  C   C205      1.0  0.05893  0.18587  0.27435  1.0000
  C   C206      1.0  0.81413  0.87307  0.27435  1.0000
  C   C207      1.0  0.12693  0.94107  0.27435  1.0000
  C   C208      1.0  0.85253  0.39227  0.55899  1.0000
  C   C209      1.0  0.53973  0.14747  0.55899  1.0000
  C   C210      1.0  0.60773  0.46027  0.55899  1.0000
  C   C211      1.0  0.39227  0.85253  0.94101  1.0000
  C   C212      1.0  0.14747  0.53973  0.94101  1.0000
  C   C213      1.0  0.46027  0.60773  0.94101  1.0000
  C   C214      1.0  0.18587  0.05893  0.22565  1.0000
  C   C215      1.0  0.87307  0.81413  0.22565  1.0000
  C   C216      1.0  0.94107  0.12693  0.22565  1.0000
  H   H109      1.0  0.26443  0.46588  0.40655  1.0000
  H   H110      1.0  0.53412  0.79855  0.40655  1.0000
  H   H111      1.0  0.20145  0.73557  0.40655  1.0000
  H   H112      1.0  0.46588  0.26443  0.09345  1.0000
  H   H113      1.0  0.79855  0.53412  0.09345  1.0000
  H   H114      1.0  0.73557  0.20145  0.09345  1.0000
  H   H115      1.0  0.93110  0.79921  0.73988  1.0000
  H   H116      1.0  0.20079  0.13188  0.73988  1.0000
  H   H117      1.0  0.86812  0.06890  0.73988  1.0000
  H   H118      1.0  0.13255  0.59776  0.42678  1.0000
  H   H119      1.0  0.46522  0.86745  0.42678  1.0000
  H   H120      1.0  0.40224  0.53478  0.42678  1.0000
  H   H121      1.0  0.59776  0.13255  0.07322  1.0000
  H   H122      1.0  0.86745  0.46522  0.07322  1.0000
  H   H123      1.0  0.53478  0.40224  0.07322  1.0000
  H   H124      1.0  0.79921  0.93110  0.76012  1.0000
  H   H125      1.0  0.13188  0.20079  0.76012  1.0000
  H   H126      1.0  0.06890  0.86812  0.76012  1.0000
  H   H127      1.0  0.73557  0.53412  0.59345  1.0000
  H   H128      1.0  0.46588  0.20145  0.59345  1.0000
  H   H129      1.0  0.79855  0.26443  0.59345  1.0000
  H   H130      1.0  0.53412  0.73557  0.90655  1.0000
  H   H131      1.0  0.20145  0.46588  0.90655  1.0000
  H   H132      1.0  0.26443  0.79855  0.90655  1.0000
  H   H133      1.0  0.06890  0.20079  0.26012  1.0000
  H   H134      1.0  0.79921  0.86812  0.26012  1.0000
  H   H135      1.0  0.13188  0.93110  0.26012  1.0000
  H   H136      1.0  0.86745  0.40224  0.57322  1.0000
  H   H137      1.0  0.53478  0.13255  0.57322  1.0000
  H   H138      1.0  0.59776  0.46522  0.57322  1.0000
  H   H139      1.0  0.40224  0.86745  0.92678  1.0000
  H   H140      1.0  0.13255  0.53478  0.92678  1.0000
  H   H141      1.0  0.46522  0.59776  0.92678  1.0000
  H   H142      1.0  0.20079  0.06890  0.23988  1.0000
  H   H143      1.0  0.86812  0.79921  0.23988  1.0000
  H   H144      1.0  0.93110  0.13188  0.23988  1.0000
  C   C217      1.0  0.36960  0.46180  0.34400  1.0000
  C   C218      1.0  0.53820  0.90780  0.34400  1.0000
  C   C219      1.0  0.09220  0.63040  0.34400  1.0000
  C   C220      1.0  0.46180  0.36960  0.15600  1.0000
  C   C221      1.0  0.90780  0.53820  0.15600  1.0000
  C   C222      1.0  0.63040  0.09220  0.15600  1.0000
  C   C223      1.0  0.03627  0.79513  0.67733  1.0000
  C   C224      1.0  0.20487  0.24113  0.67733  1.0000
  C   C225      1.0  0.75887  0.96373  0.67733  1.0000
  C   C226      1.0  0.12847  0.70293  0.48933  1.0000
  C   C227      1.0  0.57447  0.87153  0.48933  1.0000
  C   C228      1.0  0.29707  0.42553  0.48933  1.0000
  C   C229      1.0  0.70293  0.12847  0.01067  1.0000
  C   C230      1.0  0.87153  0.57447  0.01067  1.0000
  C   C231      1.0  0.42553  0.29707  0.01067  1.0000
  C   C232      1.0  0.79513  0.03627  0.82267  1.0000
  C   C233      1.0  0.24113  0.20487  0.82267  1.0000
  C   C234      1.0  0.96373  0.75887  0.82267  1.0000
  C   C235      1.0  0.63040  0.53820  0.65600  1.0000
  C   C236      1.0  0.46180  0.09220  0.65600  1.0000
  C   C237      1.0  0.90780  0.36960  0.65600  1.0000
  C   C238      1.0  0.53820  0.63040  0.84400  1.0000
  C   C239      1.0  0.09220  0.46180  0.84400  1.0000
  C   C240      1.0  0.36960  0.90780  0.84400  1.0000
  C   C241      1.0  0.96373  0.20487  0.32267  1.0000
  C   C242      1.0  0.79513  0.75887  0.32267  1.0000
  C   C243      1.0  0.24113  0.03627  0.32267  1.0000
  C   C244      1.0  0.87153  0.29707  0.51067  1.0000
  C   C245      1.0  0.42553  0.12847  0.51067  1.0000
  C   C246      1.0  0.70293  0.57447  0.51067  1.0000
  C   C247      1.0  0.29707  0.87153  0.98933  1.0000
  C   C248      1.0  0.12847  0.42553  0.98933  1.0000
  C   C249      1.0  0.57447  0.70293  0.98933  1.0000
  C   C250      1.0  0.20487  0.96373  0.17733  1.0000
  C   C251      1.0  0.75887  0.79513  0.17733  1.0000
  C   C252      1.0  0.03627  0.24113  0.17733  1.0000
  C   C253      1.0  0.21390  0.55560  0.39650  1.0000
  C   C254      1.0  0.44440  0.65830  0.39650  1.0000
  C   C255      1.0  0.34170  0.78610  0.39650  1.0000
  C   C256      1.0  0.55560  0.21390  0.10350  1.0000
  C   C257      1.0  0.65830  0.44440  0.10350  1.0000
  C   C258      1.0  0.78610  0.34170  0.10350  1.0000
  C   C259      1.0  0.88057  0.88893  0.72983  1.0000
  C   C260      1.0  0.11107  0.99163  0.72983  1.0000
  C   C261      1.0  0.00837  0.11943  0.72983  1.0000
  C   C262      1.0  0.22227  0.54723  0.43683  1.0000
  C   C263      1.0  0.32497  0.77773  0.43683  1.0000
  C   C264      1.0  0.45277  0.67503  0.43683  1.0000
  C   C265      1.0  0.54723  0.22227  0.06317  1.0000
  C   C266      1.0  0.77773  0.32497  0.06317  1.0000
  C   C267      1.0  0.67503  0.45277  0.06317  1.0000
  C   C268      1.0  0.88893  0.88057  0.77017  1.0000
  C   C269      1.0  0.99163  0.11107  0.77017  1.0000
  C   C270      1.0  0.11943  0.00837  0.77017  1.0000
  C   C271      1.0  0.78610  0.44440  0.60350  1.0000
  C   C272      1.0  0.55560  0.34170  0.60350  1.0000
  C   C273      1.0  0.65830  0.21390  0.60350  1.0000
  C   C274      1.0  0.44440  0.78610  0.89650  1.0000
  C   C275      1.0  0.34170  0.55560  0.89650  1.0000
  C   C276      1.0  0.21390  0.65830  0.89650  1.0000
  C   C277      1.0  0.11943  0.11107  0.27017  1.0000
  C   C278      1.0  0.88893  0.00837  0.27017  1.0000
  C   C279      1.0  0.99163  0.88057  0.27017  1.0000
  C   C280      1.0  0.77773  0.45277  0.56317  1.0000
  C   C281      1.0  0.67503  0.22227  0.56317  1.0000
  C   C282      1.0  0.54723  0.32497  0.56317  1.0000
  C   C283      1.0  0.45277  0.77773  0.93683  1.0000
  C   C284      1.0  0.22227  0.67503  0.93683  1.0000
  C   C285      1.0  0.32497  0.54723  0.93683  1.0000
  C   C286      1.0  0.11107  0.11943  0.22983  1.0000
  C   C287      1.0  0.00837  0.88893  0.22983  1.0000
  C   C288      1.0  0.88057  0.99163  0.22983  1.0000
  H   H145      1.0  0.24619  0.60599  0.39937  1.0000
  H   H146      1.0  0.39401  0.64020  0.39937  1.0000
  H   H147      1.0  0.35980  0.75381  0.39937  1.0000
  H   H148      1.0  0.60599  0.24619  0.10063  1.0000
  H   H149      1.0  0.64020  0.39401  0.10063  1.0000
  H   H150      1.0  0.75381  0.35980  0.10063  1.0000
  H   H151      1.0  0.91286  0.93932  0.73270  1.0000
  H   H152      1.0  0.06068  0.97353  0.73270  1.0000
  H   H153      1.0  0.02647  0.08714  0.73270  1.0000
  H   H154      1.0  0.27266  0.57952  0.43396  1.0000
  H   H155      1.0  0.30687  0.72734  0.43396  1.0000
  H   H156      1.0  0.42048  0.69313  0.43396  1.0000
  H   H157      1.0  0.57952  0.27266  0.06604  1.0000
  H   H158      1.0  0.72734  0.30687  0.06604  1.0000
  H   H159      1.0  0.69313  0.42048  0.06604  1.0000
  H   H160      1.0  0.93932  0.91286  0.76730  1.0000
  H   H161      1.0  0.97353  0.06068  0.76730  1.0000
  H   H162      1.0  0.08714  0.02647  0.76730  1.0000
  H   H163      1.0  0.75381  0.39401  0.60063  1.0000
  H   H164      1.0  0.60599  0.35980  0.60063  1.0000
  H   H165      1.0  0.64020  0.24619  0.60063  1.0000
  H   H166      1.0  0.39401  0.75381  0.89937  1.0000
  H   H167      1.0  0.35980  0.60599  0.89937  1.0000
  H   H168      1.0  0.24619  0.64020  0.89937  1.0000
  H   H169      1.0  0.08714  0.06068  0.26730  1.0000
  H   H170      1.0  0.93932  0.02647  0.26730  1.0000
  H   H171      1.0  0.97353  0.91286  0.26730  1.0000
  H   H172      1.0  0.72734  0.42048  0.56604  1.0000
  H   H173      1.0  0.69313  0.27266  0.56604  1.0000
  H   H174      1.0  0.57952  0.30687  0.56604  1.0000
  H   H175      1.0  0.42048  0.72734  0.93396  1.0000
  H   H176      1.0  0.27266  0.69313  0.93396  1.0000
  H   H177      1.0  0.30687  0.57952  0.93396  1.0000
  H   H178      1.0  0.06068  0.08714  0.23270  1.0000
  H   H179      1.0  0.02647  0.93932  0.23270  1.0000
  H   H180      1.0  0.91286  0.97353  0.23270  1.0000
  H   H181      1.0  0.17483  0.55187  0.38775  1.0000
  H   H182      1.0  0.44813  0.62296  0.38775  1.0000
  H   H183      1.0  0.37704  0.82517  0.38775  1.0000
  H   H184      1.0  0.55187  0.17483  0.11225  1.0000
  H   H185      1.0  0.62296  0.44813  0.11225  1.0000
  H   H186      1.0  0.82517  0.37704  0.11225  1.0000
  H   H187      1.0  0.84150  0.88520  0.72108  1.0000
  H   H188      1.0  0.11480  0.95629  0.72108  1.0000
  H   H189      1.0  0.04371  0.15850  0.72108  1.0000
  H   H190      1.0  0.21854  0.50816  0.44558  1.0000
  H   H191      1.0  0.28963  0.78146  0.44558  1.0000
  H   H192      1.0  0.49184  0.71037  0.44558  1.0000
  H   H193      1.0  0.50816  0.21854  0.05442  1.0000
  H   H194      1.0  0.78146  0.28963  0.05442  1.0000
  H   H195      1.0  0.71037  0.49184  0.05442  1.0000
  H   H196      1.0  0.88520  0.84150  0.77892  1.0000
  H   H197      1.0  0.95629  0.11480  0.77892  1.0000
  H   H198      1.0  0.15850  0.04371  0.77892  1.0000
  H   H199      1.0  0.82517  0.44813  0.61225  1.0000
  H   H200      1.0  0.55187  0.37704  0.61225  1.0000
  H   H201      1.0  0.62296  0.17483  0.61225  1.0000
  H   H202      1.0  0.44813  0.82517  0.88775  1.0000
  H   H203      1.0  0.37704  0.55187  0.88775  1.0000
  H   H204      1.0  0.17483  0.62296  0.88775  1.0000
  H   H205      1.0  0.15850  0.11480  0.27892  1.0000
  H   H206      1.0  0.88520  0.04371  0.27892  1.0000
  H   H207      1.0  0.95629  0.84150  0.27892  1.0000
  H   H208      1.0  0.78146  0.49184  0.55442  1.0000
  H   H209      1.0  0.71037  0.21854  0.55442  1.0000
  H   H210      1.0  0.50816  0.28963  0.55442  1.0000
  H   H211      1.0  0.49184  0.78146  0.94558  1.0000
  H   H212      1.0  0.21854  0.71037  0.94558  1.0000
  H   H213      1.0  0.28963  0.50816  0.94558  1.0000
  H   H214      1.0  0.11480  0.15850  0.22108  1.0000
  H   H215      1.0  0.04371  0.88520  0.22108  1.0000
  H   H216      1.0  0.84150  0.95629  0.22108  1.0000
  C   C289      1.0  0.12030  0.45360  0.41667  1.0000
  C   C290      1.0  0.54640  0.66670  0.41667  1.0000
  C   C291      1.0  0.33330  0.87970  0.41667  1.0000
  C   C292      1.0  0.45360  0.12030  0.08333  1.0000
  C   C293      1.0  0.66670  0.54640  0.08333  1.0000
  C   C294      1.0  0.87970  0.33330  0.08333  1.0000
  C   C295      1.0  0.78697  0.78693  0.75000  1.0000
  C   C296      1.0  0.21307  0.00003  0.75000  1.0000
  C   C297      1.0  0.99997  0.21303  0.75000  1.0000
  C   C298      1.0  0.87970  0.54640  0.58333  1.0000
  C   C299      1.0  0.45360  0.33330  0.58333  1.0000
  C   C300      1.0  0.66670  0.12030  0.58333  1.0000
  C   C301      1.0  0.54640  0.87970  0.91667  1.0000
  C   C302      1.0  0.33330  0.45360  0.91667  1.0000
  C   C303      1.0  0.12030  0.66670  0.91667  1.0000
  C   C304      1.0  0.21303  0.21307  0.25000  1.0000
  C   C305      1.0  0.78693  0.99997  0.25000  1.0000
  C   C306      1.0  0.00003  0.78697  0.25000  1.0000
  C   C307      1.0  0.08900  0.41910  0.43576  1.0000
  C   C308      1.0  0.58090  0.66990  0.43576  1.0000
  C   C309      1.0  0.33010  0.91100  0.43576  1.0000
  C   C310      1.0  0.41910  0.08900  0.06424  1.0000
  C   C311      1.0  0.66990  0.58090  0.06424  1.0000
  C   C312      1.0  0.91100  0.33010  0.06424  1.0000
  C   C313      1.0  0.75567  0.75243  0.76909  1.0000
  C   C314      1.0  0.24757  0.00323  0.76909  1.0000
  C   C315      1.0  0.99677  0.24433  0.76909  1.0000
  C   C316      1.0  0.08577  0.42233  0.39757  1.0000
  C   C317      1.0  0.33657  0.91423  0.39757  1.0000
  C   C318      1.0  0.57767  0.66343  0.39757  1.0000
  C   C319      1.0  0.42233  0.08577  0.10243  1.0000
  C   C320      1.0  0.91423  0.33657  0.10243  1.0000
  C   C321      1.0  0.66343  0.57767  0.10243  1.0000
  C   C322      1.0  0.75243  0.75567  0.73091  1.0000
  C   C323      1.0  0.00323  0.24757  0.73091  1.0000
  C   C324      1.0  0.24433  0.99677  0.73091  1.0000
  C   C325      1.0  0.91100  0.58090  0.56424  1.0000
  C   C326      1.0  0.41910  0.33010  0.56424  1.0000
  C   C327      1.0  0.66990  0.08900  0.56424  1.0000
  C   C328      1.0  0.58090  0.91100  0.93576  1.0000
  C   C329      1.0  0.33010  0.41910  0.93576  1.0000
  C   C330      1.0  0.08900  0.66990  0.93576  1.0000
  C   C331      1.0  0.24433  0.24757  0.23091  1.0000
  C   C332      1.0  0.75243  0.99677  0.23091  1.0000
  C   C333      1.0  0.00323  0.75567  0.23091  1.0000
  C   C334      1.0  0.91423  0.57767  0.60243  1.0000
  C   C335      1.0  0.66343  0.08577  0.60243  1.0000
  C   C336      1.0  0.42233  0.33657  0.60243  1.0000
  C   C337      1.0  0.57767  0.91423  0.89757  1.0000
  C   C338      1.0  0.08577  0.66343  0.89757  1.0000
  C   C339      1.0  0.33657  0.42233  0.89757  1.0000
  C   C340      1.0  0.24757  0.24433  0.26909  1.0000
  C   C341      1.0  0.99677  0.75243  0.26909  1.0000
  C   C342      1.0  0.75567  0.00323  0.26909  1.0000
  H   H217      1.0  0.11119  0.44026  0.44868  1.0000
  H   H218      1.0  0.55974  0.67093  0.44868  1.0000
  H   H219      1.0  0.32907  0.88881  0.44868  1.0000
  H   H220      1.0  0.44026  0.11119  0.05132  1.0000
  H   H221      1.0  0.67093  0.55974  0.05132  1.0000
  H   H222      1.0  0.88881  0.32907  0.05132  1.0000
  H   H223      1.0  0.77786  0.77359  0.78201  1.0000
  H   H224      1.0  0.22641  0.00426  0.78201  1.0000
  H   H225      1.0  0.99574  0.22214  0.78201  1.0000
  H   H226      1.0  0.10693  0.44452  0.38465  1.0000
  H   H227      1.0  0.33760  0.89307  0.38465  1.0000
  H   H228      1.0  0.55548  0.66240  0.38465  1.0000
  H   H229      1.0  0.44452  0.10693  0.11535  1.0000
  H   H230      1.0  0.89307  0.33760  0.11535  1.0000
  H   H231      1.0  0.66240  0.55548  0.11535  1.0000
  H   H232      1.0  0.77359  0.77786  0.71799  1.0000
  H   H233      1.0  0.00426  0.22641  0.71799  1.0000
  H   H234      1.0  0.22214  0.99574  0.71799  1.0000
  H   H235      1.0  0.88881  0.55974  0.55132  1.0000
  H   H236      1.0  0.44026  0.32907  0.55132  1.0000
  H   H237      1.0  0.67093  0.11119  0.55132  1.0000
  H   H238      1.0  0.55974  0.88881  0.94868  1.0000
  H   H239      1.0  0.32907  0.44026  0.94868  1.0000
  H   H240      1.0  0.11119  0.67093  0.94868  1.0000
  H   H241      1.0  0.22214  0.22641  0.21799  1.0000
  H   H242      1.0  0.77359  0.99574  0.21799  1.0000
  H   H243      1.0  0.00426  0.77786  0.21799  1.0000
  H   H244      1.0  0.89307  0.55548  0.61535  1.0000
  H   H245      1.0  0.66240  0.10693  0.61535  1.0000
  H   H246      1.0  0.44452  0.33760  0.61535  1.0000
  H   H247      1.0  0.55548  0.89307  0.88465  1.0000
  H   H248      1.0  0.10693  0.66240  0.88465  1.0000
  H   H249      1.0  0.33760  0.44452  0.88465  1.0000
  H   H250      1.0  0.22641  0.22214  0.28201  1.0000
  H   H251      1.0  0.99574  0.77359  0.28201  1.0000
  H   H252      1.0  0.77786  0.00426  0.28201  1.0000
  C   C343      1.0  0.02640  0.35510  0.43619  1.0000
  C   C344      1.0  0.64490  0.67130  0.43619  1.0000
  C   C345      1.0  0.32870  0.97360  0.43619  1.0000
  C   C346      1.0  0.35510  0.02640  0.06381  1.0000
  C   C347      1.0  0.67130  0.64490  0.06381  1.0000
  C   C348      1.0  0.97360  0.32870  0.06381  1.0000
  C   C349      1.0  0.69307  0.68843  0.76952  1.0000
  C   C350      1.0  0.31157  0.00463  0.76952  1.0000
  C   C351      1.0  0.99537  0.30693  0.76952  1.0000
  C   C352      1.0  0.02177  0.35973  0.39714  1.0000
  C   C353      1.0  0.33797  0.97823  0.39714  1.0000
  C   C354      1.0  0.64027  0.66203  0.39714  1.0000
  C   C355      1.0  0.35973  0.02177  0.10286  1.0000
  C   C356      1.0  0.97823  0.33797  0.10286  1.0000
  C   C357      1.0  0.66203  0.64027  0.10286  1.0000
  C   C358      1.0  0.68843  0.69307  0.73048  1.0000
  C   C359      1.0  0.00463  0.31157  0.73048  1.0000
  C   C360      1.0  0.30693  0.99537  0.73048  1.0000
  C   C361      1.0  0.97360  0.64490  0.56381  1.0000
  C   C362      1.0  0.35510  0.32870  0.56381  1.0000
  C   C363      1.0  0.67130  0.02640  0.56381  1.0000
  C   C364      1.0  0.64490  0.97360  0.93619  1.0000
  C   C365      1.0  0.32870  0.35510  0.93619  1.0000
  C   C366      1.0  0.02640  0.67130  0.93619  1.0000
  C   C367      1.0  0.30693  0.31157  0.23048  1.0000
  C   C368      1.0  0.68843  0.99537  0.23048  1.0000
  C   C369      1.0  0.00463  0.69307  0.23048  1.0000
  C   C370      1.0  0.97823  0.64027  0.60286  1.0000
  C   C371      1.0  0.66203  0.02177  0.60286  1.0000
  C   C372      1.0  0.35973  0.33797  0.60286  1.0000
  C   C373      1.0  0.64027  0.97823  0.89714  1.0000
  C   C374      1.0  0.02177  0.66203  0.89714  1.0000
  C   C375      1.0  0.33797  0.35973  0.89714  1.0000
  C   C376      1.0  0.31157  0.30693  0.26952  1.0000
  C   C377      1.0  0.99537  0.68843  0.26952  1.0000
  C   C378      1.0  0.69307  0.00463  0.26952  1.0000
  C   C379      1.0  0.98980  0.32310  0.41667  1.0000
  C   C380      1.0  0.67690  0.66670  0.41667  1.0000
  C   C381      1.0  0.33330  0.01020  0.41667  1.0000
  C   C382      1.0  0.32310  0.98980  0.08333  1.0000
  C   C383      1.0  0.66670  0.67690  0.08333  1.0000
  C   C384      1.0  0.01020  0.33330  0.08333  1.0000
  C   C385      1.0  0.65647  0.65643  0.75000  1.0000
  C   C386      1.0  0.34357  0.00003  0.75000  1.0000
  C   C387      1.0  0.99997  0.34353  0.75000  1.0000
  C   C388      1.0  0.01020  0.67690  0.58333  1.0000
  C   C389      1.0  0.32310  0.33330  0.58333  1.0000
  C   C390      1.0  0.66670  0.98980  0.58333  1.0000
  C   C391      1.0  0.67690  0.01020  0.91667  1.0000
  C   C392      1.0  0.33330  0.32310  0.91667  1.0000
  C   C393      1.0  0.98980  0.66670  0.91667  1.0000
  C   C394      1.0  0.34353  0.34357  0.25000  1.0000
  C   C395      1.0  0.65643  0.99997  0.25000  1.0000
  C   C396      1.0  0.00003  0.65647  0.25000  1.0000
  H   H253      1.0  0.94663  0.27996  0.41667  1.0000
  H   H254      1.0  0.72004  0.66667  0.41667  1.0000
  H   H255      1.0  0.33333  0.05337  0.41667  1.0000
  H   H256      1.0  0.27996  0.94663  0.08333  1.0000
  H   H257      1.0  0.66667  0.72004  0.08333  1.0000
  H   H258      1.0  0.05337  0.33333  0.08333  1.0000
  H   H259      1.0  0.61330  0.61329  0.75000  1.0000
  H   H260      1.0  0.38671  0.00000  0.75000  1.0000
  H   H261      1.0  1.00000  0.38670  0.75000  1.0000
  H   H262      1.0  0.05337  0.72004  0.58333  1.0000
  H   H263      1.0  0.27996  0.33333  0.58333  1.0000
  H   H264      1.0  0.66667  0.94663  0.58333  1.0000
  H   H265      1.0  0.72004  0.05337  0.91667  1.0000
  H   H266      1.0  0.33333  0.27996  0.91667  1.0000
  H   H267      1.0  0.94663  0.66667  0.91667  1.0000
  H   H268      1.0  0.38670  0.38671  0.25000  1.0000
  H   H269      1.0  0.61329  1.00000  0.25000  1.0000
  H   H270      1.0  0.00000  0.61330  0.25000  1.0000
  C   C397      1.0  0.00430  0.32530  0.45830  1.0000
  C   C398      1.0  0.67470  0.67900  0.45830  1.0000
  C   C399      1.0  0.32100  0.99570  0.45830  1.0000
  C   C400      1.0  0.32530  0.00430  0.04170  1.0000
  C   C401      1.0  0.67900  0.67470  0.04170  1.0000
  C   C402      1.0  0.99570  0.32100  0.04170  1.0000
  C   C403      1.0  0.67097  0.65863  0.79163  1.0000
  C   C404      1.0  0.34137  0.01233  0.79163  1.0000
  C   C405      1.0  0.98767  0.32903  0.79163  1.0000
  C   C406      1.0  0.99197  0.33763  0.37503  1.0000
  C   C407      1.0  0.34567  0.00803  0.37503  1.0000
  C   C408      1.0  0.66237  0.65433  0.37503  1.0000
  C   C409      1.0  0.33763  0.99197  0.12497  1.0000
  C   C410      1.0  0.00803  0.34567  0.12497  1.0000
  C   C411      1.0  0.65433  0.66237  0.12497  1.0000
  C   C412      1.0  0.65863  0.67097  0.70837  1.0000
  C   C413      1.0  0.01233  0.34137  0.70837  1.0000
  C   C414      1.0  0.32903  0.98767  0.70837  1.0000
  C   C415      1.0  0.99570  0.67470  0.54170  1.0000
  C   C416      1.0  0.32530  0.32100  0.54170  1.0000
  C   C417      1.0  0.67900  0.00430  0.54170  1.0000
  C   C418      1.0  0.67470  0.99570  0.95830  1.0000
  C   C419      1.0  0.32100  0.32530  0.95830  1.0000
  C   C420      1.0  0.00430  0.67900  0.95830  1.0000
  C   C421      1.0  0.32903  0.34137  0.20837  1.0000
  C   C422      1.0  0.65863  0.98767  0.20837  1.0000
  C   C423      1.0  0.01233  0.67097  0.20837  1.0000
  C   C424      1.0  0.00803  0.66237  0.62497  1.0000
  C   C425      1.0  0.65433  0.99197  0.62497  1.0000
  C   C426      1.0  0.33763  0.34567  0.62497  1.0000
  C   C427      1.0  0.66237  0.00803  0.87503  1.0000
  C   C428      1.0  0.99197  0.65433  0.87503  1.0000
  C   C429      1.0  0.34567  0.33763  0.87503  1.0000
  C   C430      1.0  0.34137  0.32903  0.29163  1.0000
  C   C431      1.0  0.98767  0.65863  0.29163  1.0000
  C   C432      1.0  0.67097  0.01233  0.29163  1.0000
  N   N1        1.0  0.57390  0.44810  0.31200  1.0000
  N   N2        1.0  0.55190  0.12580  0.31200  1.0000
  N   N3        1.0  0.87420  0.42610  0.31200  1.0000
  N   N4        1.0  0.44810  0.57390  0.18800  1.0000
  N   N5        1.0  0.12580  0.55190  0.18800  1.0000
  N   N6        1.0  0.42610  0.87420  0.18800  1.0000
  N   N7        1.0  0.24057  0.78143  0.64533  1.0000
  N   N8        1.0  0.21857  0.45913  0.64533  1.0000
  N   N9        1.0  0.54087  0.75943  0.64533  1.0000
  N   N10       1.0  0.11477  0.90723  0.52133  1.0000
  N   N11       1.0  0.79247  0.88523  0.52133  1.0000
  N   N12       1.0  0.09277  0.20753  0.52133  1.0000
  N   N13       1.0  0.90723  0.11477  0.97867  1.0000
  N   N14       1.0  0.88523  0.79247  0.97867  1.0000
  N   N15       1.0  0.20753  0.09277  0.97867  1.0000
  N   N16       1.0  0.78143  0.24057  0.85467  1.0000
  N   N17       1.0  0.45913  0.21857  0.85467  1.0000
  N   N18       1.0  0.75943  0.54087  0.85467  1.0000
  N   N19       1.0  0.42610  0.55190  0.68800  1.0000
  N   N20       1.0  0.44810  0.87420  0.68800  1.0000
  N   N21       1.0  0.12580  0.57390  0.68800  1.0000
  N   N22       1.0  0.55190  0.42610  0.81200  1.0000
  N   N23       1.0  0.87420  0.44810  0.81200  1.0000
  N   N24       1.0  0.57390  0.12580  0.81200  1.0000
  N   N25       1.0  0.75943  0.21857  0.35467  1.0000
  N   N26       1.0  0.78143  0.54087  0.35467  1.0000
  N   N27       1.0  0.45913  0.24057  0.35467  1.0000
  N   N28       1.0  0.88523  0.09277  0.47867  1.0000
  N   N29       1.0  0.20753  0.11477  0.47867  1.0000
  N   N30       1.0  0.90723  0.79247  0.47867  1.0000
  N   N31       1.0  0.09277  0.88523  0.02133  1.0000
  N   N32       1.0  0.11477  0.20753  0.02133  1.0000
  N   N33       1.0  0.79247  0.90723  0.02133  1.0000
  N   N34       1.0  0.21857  0.75943  0.14533  1.0000
  N   N35       1.0  0.54087  0.78143  0.14533  1.0000
  N   N36       1.0  0.24057  0.45913  0.14533  1.0000
  N   N37       1.0  0.63720  0.50400  0.31380  1.0000
  N   N38       1.0  0.49600  0.13320  0.31380  1.0000
  N   N39       1.0  0.86680  0.36280  0.31380  1.0000
  N   N40       1.0  0.50400  0.63720  0.18620  1.0000
  N   N41       1.0  0.13320  0.49600  0.18620  1.0000
  N   N42       1.0  0.36280  0.86680  0.18620  1.0000
  N   N43       1.0  0.30387  0.83733  0.64713  1.0000
  N   N44       1.0  0.16267  0.46653  0.64713  1.0000
  N   N45       1.0  0.53347  0.69613  0.64713  1.0000
  N   N46       1.0  0.17067  0.97053  0.51953  1.0000
  N   N47       1.0  0.79987  0.82933  0.51953  1.0000
  N   N48       1.0  0.02947  0.20013  0.51953  1.0000
  N   N49       1.0  0.97053  0.17067  0.98047  1.0000
  N   N50       1.0  0.82933  0.79987  0.98047  1.0000
  N   N51       1.0  0.20013  0.02947  0.98047  1.0000
  N   N52       1.0  0.83733  0.30387  0.85287  1.0000
  N   N53       1.0  0.46653  0.16267  0.85287  1.0000
  N   N54       1.0  0.69613  0.53347  0.85287  1.0000
  N   N55       1.0  0.36280  0.49600  0.68620  1.0000
  N   N56       1.0  0.50400  0.86680  0.68620  1.0000
  N   N57       1.0  0.13320  0.63720  0.68620  1.0000
  N   N58       1.0  0.49600  0.36280  0.81380  1.0000
  N   N59       1.0  0.86680  0.50400  0.81380  1.0000
  N   N60       1.0  0.63720  0.13320  0.81380  1.0000
  N   N61       1.0  0.69613  0.16267  0.35287  1.0000
  N   N62       1.0  0.83733  0.53347  0.35287  1.0000
  N   N63       1.0  0.46653  0.30387  0.35287  1.0000
  N   N64       1.0  0.82933  0.02947  0.48047  1.0000
  N   N65       1.0  0.20013  0.17067  0.48047  1.0000
  N   N66       1.0  0.97053  0.79987  0.48047  1.0000
  N   N67       1.0  0.02947  0.82933  0.01953  1.0000
  N   N68       1.0  0.17067  0.20013  0.01953  1.0000
  N   N69       1.0  0.79987  0.97053  0.01953  1.0000
  N   N70       1.0  0.16267  0.69613  0.14713  1.0000
  N   N71       1.0  0.53347  0.83733  0.14713  1.0000
  N   N72       1.0  0.30387  0.46653  0.14713  1.0000
  N   N73       1.0  0.52720  0.45930  0.32292  1.0000
  N   N74       1.0  0.54070  0.06790  0.32292  1.0000
  N   N75       1.0  0.93210  0.47280  0.32292  1.0000
  N   N76       1.0  0.45930  0.52720  0.17708  1.0000
  N   N77       1.0  0.06790  0.54070  0.17708  1.0000
  N   N78       1.0  0.47280  0.93210  0.17708  1.0000
  N   N79       1.0  0.19387  0.79263  0.65625  1.0000
  N   N80       1.0  0.20737  0.40123  0.65625  1.0000
  N   N81       1.0  0.59877  0.80613  0.65625  1.0000
  N   N82       1.0  0.12597  0.86053  0.51041  1.0000
  N   N83       1.0  0.73457  0.87403  0.51041  1.0000
  N   N84       1.0  0.13947  0.26543  0.51041  1.0000
  N   N85       1.0  0.86053  0.12597  0.98959  1.0000
  N   N86       1.0  0.87403  0.73457  0.98959  1.0000
  N   N87       1.0  0.26543  0.13947  0.98959  1.0000
  N   N88       1.0  0.79263  0.19387  0.84375  1.0000
  N   N89       1.0  0.40123  0.20737  0.84375  1.0000
  N   N90       1.0  0.80613  0.59877  0.84375  1.0000
  N   N91       1.0  0.47280  0.54070  0.67708  1.0000
  N   N92       1.0  0.45930  0.93210  0.67708  1.0000
  N   N93       1.0  0.06790  0.52720  0.67708  1.0000
  N   N94       1.0  0.54070  0.47280  0.82292  1.0000
  N   N95       1.0  0.93210  0.45930  0.82292  1.0000
  N   N96       1.0  0.52720  0.06790  0.82292  1.0000
  N   N97       1.0  0.80613  0.20737  0.34375  1.0000
  N   N98       1.0  0.79263  0.59877  0.34375  1.0000
  N   N99       1.0  0.40123  0.19387  0.34375  1.0000
  N   N100      1.0  0.87403  0.13947  0.48959  1.0000
  N   N101      1.0  0.26543  0.12597  0.48959  1.0000
  N   N102      1.0  0.86053  0.73457  0.48959  1.0000
  N   N103      1.0  0.13947  0.87403  0.01041  1.0000
  N   N104      1.0  0.12597  0.26543  0.01041  1.0000
  N   N105      1.0  0.73457  0.86053  0.01041  1.0000
  N   N106      1.0  0.20737  0.80613  0.15625  1.0000
  N   N107      1.0  0.59877  0.79263  0.15625  1.0000
  N   N108      1.0  0.19387  0.40123  0.15625  1.0000
  C   C433      1.0  0.56640  0.51590  0.33346  1.0000
  C   C434      1.0  0.48410  0.05050  0.33346  1.0000
  C   C435      1.0  0.94950  0.43360  0.33346  1.0000
  C   C436      1.0  0.51590  0.56640  0.16654  1.0000
  C   C437      1.0  0.05050  0.48410  0.16654  1.0000
  C   C438      1.0  0.43360  0.94950  0.16654  1.0000
  C   C439      1.0  0.23307  0.84923  0.66679  1.0000
  C   C440      1.0  0.15077  0.38383  0.66679  1.0000
  C   C441      1.0  0.61617  0.76693  0.66679  1.0000
  C   C442      1.0  0.18257  0.89973  0.49987  1.0000
  C   C443      1.0  0.71717  0.81743  0.49987  1.0000
  C   C444      1.0  0.10027  0.28283  0.49987  1.0000
  C   C445      1.0  0.89973  0.18257  0.00013  1.0000
  C   C446      1.0  0.81743  0.71717  0.00013  1.0000
  C   C447      1.0  0.28283  0.10027  0.00013  1.0000
  C   C448      1.0  0.84923  0.23307  0.83321  1.0000
  C   C449      1.0  0.38383  0.15077  0.83321  1.0000
  C   C450      1.0  0.76693  0.61617  0.83321  1.0000
  C   C451      1.0  0.43360  0.48410  0.66654  1.0000
  C   C452      1.0  0.51590  0.94950  0.66654  1.0000
  C   C453      1.0  0.05050  0.56640  0.66654  1.0000
  C   C454      1.0  0.48410  0.43360  0.83346  1.0000
  C   C455      1.0  0.94950  0.51590  0.83346  1.0000
  C   C456      1.0  0.56640  0.05050  0.83346  1.0000
  C   C457      1.0  0.76693  0.15077  0.33321  1.0000
  C   C458      1.0  0.84923  0.61617  0.33321  1.0000
  C   C459      1.0  0.38383  0.23307  0.33321  1.0000
  C   C460      1.0  0.81743  0.10027  0.50013  1.0000
  C   C461      1.0  0.28283  0.18257  0.50013  1.0000
  C   C462      1.0  0.89973  0.71717  0.50013  1.0000
  C   C463      1.0  0.10027  0.81743  0.99987  1.0000
  C   C464      1.0  0.18257  0.28283  0.99987  1.0000
  C   C465      1.0  0.71717  0.89973  0.99987  1.0000
  C   C466      1.0  0.15077  0.76693  0.16679  1.0000
  C   C467      1.0  0.61617  0.84923  0.16679  1.0000
  C   C468      1.0  0.23307  0.38383  0.16679  1.0000
  H   H271      1.0  0.54962  0.53342  0.34268  1.0000
  H   H272      1.0  0.46658  0.01620  0.34268  1.0000
  H   H273      1.0  0.98380  0.45038  0.34268  1.0000
  H   H274      1.0  0.53342  0.54962  0.15732  1.0000
  H   H275      1.0  0.01620  0.46658  0.15732  1.0000
  H   H276      1.0  0.45038  0.98380  0.15732  1.0000
  H   H277      1.0  0.21629  0.86675  0.67601  1.0000
  H   H278      1.0  0.13325  0.34953  0.67601  1.0000
  H   H279      1.0  0.65047  0.78371  0.67601  1.0000
  H   H280      1.0  0.20009  0.88295  0.49065  1.0000
  H   H281      1.0  0.68287  0.79991  0.49065  1.0000
  H   H282      1.0  0.11705  0.31713  0.49065  1.0000
  H   H283      1.0  0.88295  0.20009  0.00935  1.0000
  H   H284      1.0  0.79991  0.68287  0.00935  1.0000
  H   H285      1.0  0.31713  0.11705  0.00935  1.0000
  H   H286      1.0  0.86675  0.21629  0.82399  1.0000
  H   H287      1.0  0.34953  0.13325  0.82399  1.0000
  H   H288      1.0  0.78371  0.65047  0.82399  1.0000
  H   H289      1.0  0.45038  0.46658  0.65732  1.0000
  H   H290      1.0  0.53342  0.98380  0.65732  1.0000
  H   H291      1.0  0.01620  0.54962  0.65732  1.0000
  H   H292      1.0  0.46658  0.45038  0.84268  1.0000
  H   H293      1.0  0.98380  0.53342  0.84268  1.0000
  H   H294      1.0  0.54962  0.01620  0.84268  1.0000
  H   H295      1.0  0.78371  0.13325  0.32399  1.0000
  H   H296      1.0  0.86675  0.65047  0.32399  1.0000
  H   H297      1.0  0.34953  0.21629  0.32399  1.0000
  H   H298      1.0  0.79991  0.11705  0.50935  1.0000
  H   H299      1.0  0.31713  0.20009  0.50935  1.0000
  H   H300      1.0  0.88295  0.68287  0.50935  1.0000
  H   H301      1.0  0.11705  0.79991  0.99065  1.0000
  H   H302      1.0  0.20009  0.31713  0.99065  1.0000
  H   H303      1.0  0.68287  0.88295  0.99065  1.0000
  H   H304      1.0  0.13325  0.78371  0.17601  1.0000
  H   H305      1.0  0.65047  0.86675  0.17601  1.0000
  H   H306      1.0  0.21629  0.34953  0.17601  1.0000
  N   N109      1.0  0.63530  0.54560  0.32902  1.0000
  N   N110      1.0  0.45440  0.08970  0.32902  1.0000
  N   N111      1.0  0.91030  0.36470  0.32902  1.0000
  N   N112      1.0  0.54560  0.63530  0.17098  1.0000
  N   N113      1.0  0.08970  0.45440  0.17098  1.0000
  N   N114      1.0  0.36470  0.91030  0.17098  1.0000
  N   N115      1.0  0.30197  0.87893  0.66235  1.0000
  N   N116      1.0  0.12107  0.42303  0.66235  1.0000
  N   N117      1.0  0.57697  0.69803  0.66235  1.0000
  N   N118      1.0  0.21227  0.96863  0.50431  1.0000
  N   N119      1.0  0.75637  0.78773  0.50431  1.0000
  N   N120      1.0  0.03137  0.24363  0.50431  1.0000
  N   N121      1.0  0.96863  0.21227  0.99569  1.0000
  N   N122      1.0  0.78773  0.75637  0.99569  1.0000
  N   N123      1.0  0.24363  0.03137  0.99569  1.0000
  N   N124      1.0  0.87893  0.30197  0.83765  1.0000
  N   N125      1.0  0.42303  0.12107  0.83765  1.0000
  N   N126      1.0  0.69803  0.57697  0.83765  1.0000
  N   N127      1.0  0.36470  0.45440  0.67098  1.0000
  N   N128      1.0  0.54560  0.91030  0.67098  1.0000
  N   N129      1.0  0.08970  0.63530  0.67098  1.0000
  N   N130      1.0  0.45440  0.36470  0.82902  1.0000
  N   N131      1.0  0.91030  0.54560  0.82902  1.0000
  N   N132      1.0  0.63530  0.08970  0.82902  1.0000
  N   N133      1.0  0.69803  0.12107  0.33765  1.0000
  N   N134      1.0  0.87893  0.57697  0.33765  1.0000
  N   N135      1.0  0.42303  0.30197  0.33765  1.0000
  N   N136      1.0  0.78773  0.03137  0.49569  1.0000
  N   N137      1.0  0.24363  0.21227  0.49569  1.0000
  N   N138      1.0  0.96863  0.75637  0.49569  1.0000
  N   N139      1.0  0.03137  0.78773  0.00431  1.0000
  N   N140      1.0  0.21227  0.24363  0.00431  1.0000
  N   N141      1.0  0.75637  0.96863  0.00431  1.0000
  N   N142      1.0  0.12107  0.69803  0.16235  1.0000
  N   N143      1.0  0.57697  0.87893  0.16235  1.0000
  N   N144      1.0  0.30197  0.42303  0.16235  1.0000
  N   N145      1.0  0.18520  0.51850  0.41667  1.0000
  N   N146      1.0  0.48150  0.66670  0.41667  1.0000
  N   N147      1.0  0.33330  0.81480  0.41667  1.0000
  N   N148      1.0  0.51850  0.18520  0.08333  1.0000
  N   N149      1.0  0.66670  0.48150  0.08333  1.0000
  N   N150      1.0  0.81480  0.33330  0.08333  1.0000
  N   N151      1.0  0.85187  0.85183  0.75000  1.0000
  N   N152      1.0  0.14817  0.00003  0.75000  1.0000
  N   N153      1.0  0.99997  0.14813  0.75000  1.0000
  N   N154      1.0  0.81480  0.48150  0.58333  1.0000
  N   N155      1.0  0.51850  0.33330  0.58333  1.0000
  N   N156      1.0  0.66670  0.18520  0.58333  1.0000
  N   N157      1.0  0.48150  0.81480  0.91667  1.0000
  N   N158      1.0  0.33330  0.51850  0.91667  1.0000
  N   N159      1.0  0.18520  0.66670  0.91667  1.0000
  N   N160      1.0  0.14813  0.14817  0.25000  1.0000
  N   N161      1.0  0.85183  0.99997  0.25000  1.0000
  N   N162      1.0  0.00003  0.85187  0.25000  1.0000
  O   O1        1.0  0.37720  0.41520  0.34797  1.0000
  O   O2        1.0  0.58480  0.96200  0.34797  1.0000
  O   O3        1.0  0.03800  0.62280  0.34797  1.0000
  O   O4        1.0  0.41520  0.37720  0.15203  1.0000
  O   O5        1.0  0.96200  0.58480  0.15203  1.0000
  O   O6        1.0  0.62280  0.03800  0.15203  1.0000
  O   O7        1.0  0.04387  0.74853  0.68130  1.0000
  O   O8        1.0  0.25147  0.29533  0.68130  1.0000
  O   O9        1.0  0.70467  0.95613  0.68130  1.0000
  O   O10       1.0  0.08187  0.71053  0.48536  1.0000
  O   O11       1.0  0.62867  0.91813  0.48536  1.0000
  O   O12       1.0  0.28947  0.37133  0.48536  1.0000
  O   O13       1.0  0.71053  0.08187  0.01464  1.0000
  O   O14       1.0  0.91813  0.62867  0.01464  1.0000
  O   O15       1.0  0.37133  0.28947  0.01464  1.0000
  O   O16       1.0  0.74853  0.04387  0.81870  1.0000
  O   O17       1.0  0.29533  0.25147  0.81870  1.0000
  O   O18       1.0  0.95613  0.70467  0.81870  1.0000
  O   O19       1.0  0.62280  0.58480  0.65203  1.0000
  O   O20       1.0  0.41520  0.03800  0.65203  1.0000
  O   O21       1.0  0.96200  0.37720  0.65203  1.0000
  O   O22       1.0  0.58480  0.62280  0.84797  1.0000
  O   O23       1.0  0.03800  0.41520  0.84797  1.0000
  O   O24       1.0  0.37720  0.96200  0.84797  1.0000
  O   O25       1.0  0.95613  0.25147  0.31870  1.0000
  O   O26       1.0  0.74853  0.70467  0.31870  1.0000
  O   O27       1.0  0.29533  0.04387  0.31870  1.0000
  O   O28       1.0  0.91813  0.28947  0.51464  1.0000
  O   O29       1.0  0.37133  0.08187  0.51464  1.0000
  O   O30       1.0  0.71053  0.62867  0.51464  1.0000
  O   O31       1.0  0.28947  0.91813  0.98536  1.0000
  O   O32       1.0  0.08187  0.37133  0.98536  1.0000
  O   O33       1.0  0.62867  0.71053  0.98536  1.0000
  O   O34       1.0  0.25147  0.95613  0.18130  1.0000
  O   O35       1.0  0.70467  0.74853  0.18130  1.0000
  O   O36       1.0  0.04387  0.29533  0.18130  1.0000
  O   O37       1.0  0.39320  0.49150  0.32631  1.0000
  O   O38       1.0  0.50850  0.90170  0.32631  1.0000
  O   O39       1.0  0.09830  0.60680  0.32631  1.0000
  O   O40       1.0  0.49150  0.39320  0.17369  1.0000
  O   O41       1.0  0.90170  0.50850  0.17369  1.0000
  O   O42       1.0  0.60680  0.09830  0.17369  1.0000
  O   O43       1.0  0.05987  0.82483  0.65964  1.0000
  O   O44       1.0  0.17517  0.23503  0.65964  1.0000
  O   O45       1.0  0.76497  0.94013  0.65964  1.0000
  O   O46       1.0  0.15817  0.72653  0.50702  1.0000
  O   O47       1.0  0.56837  0.84183  0.50702  1.0000
  O   O48       1.0  0.27347  0.43163  0.50702  1.0000
  O   O49       1.0  0.72653  0.15817  0.99298  1.0000
  O   O50       1.0  0.84183  0.56837  0.99298  1.0000
  O   O51       1.0  0.43163  0.27347  0.99298  1.0000
  O   O52       1.0  0.82483  0.05987  0.84036  1.0000
  O   O53       1.0  0.23503  0.17517  0.84036  1.0000
  O   O54       1.0  0.94013  0.76497  0.84036  1.0000
  O   O55       1.0  0.60680  0.50850  0.67369  1.0000
  O   O56       1.0  0.49150  0.09830  0.67369  1.0000
  O   O57       1.0  0.90170  0.39320  0.67369  1.0000
  O   O58       1.0  0.50850  0.60680  0.82631  1.0000
  O   O59       1.0  0.09830  0.49150  0.82631  1.0000
  O   O60       1.0  0.39320  0.90170  0.82631  1.0000
  O   O61       1.0  0.94013  0.17517  0.34036  1.0000
  O   O62       1.0  0.82483  0.76497  0.34036  1.0000
  O   O63       1.0  0.23503  0.05987  0.34036  1.0000
  O   O64       1.0  0.84183  0.27347  0.49298  1.0000
  O   O65       1.0  0.43163  0.15817  0.49298  1.0000
  O   O66       1.0  0.72653  0.56837  0.49298  1.0000
  O   O67       1.0  0.27347  0.84183  0.00702  1.0000
  O   O68       1.0  0.15817  0.43163  0.00702  1.0000
  O   O69       1.0  0.56837  0.72653  0.00702  1.0000
  O   O70       1.0  0.17517  0.94013  0.15964  1.0000
  O   O71       1.0  0.76497  0.82483  0.15964  1.0000
  O   O72       1.0  0.05987  0.23503  0.15964  1.0000
  O   O73       1.0  0.03650  0.36050  0.47452  1.0000
  O   O74       1.0  0.63950  0.67600  0.47452  1.0000
  O   O75       1.0  0.32400  0.96350  0.47452  1.0000
  O   O76       1.0  0.36050  0.03650  0.02548  1.0000
  O   O77       1.0  0.67600  0.63950  0.02548  1.0000
  O   O78       1.0  0.96350  0.32400  0.02548  1.0000
  O   O79       1.0  0.70317  0.69383  0.80785  1.0000
  O   O80       1.0  0.30617  0.00933  0.80785  1.0000
  O   O81       1.0  0.99067  0.29683  0.80785  1.0000
  O   O82       1.0  0.02717  0.36983  0.35881  1.0000
  O   O83       1.0  0.34267  0.97283  0.35881  1.0000
  O   O84       1.0  0.63017  0.65733  0.35881  1.0000
  O   O85       1.0  0.36983  0.02717  0.14119  1.0000
  O   O86       1.0  0.97283  0.34267  0.14119  1.0000
  O   O87       1.0  0.65733  0.63017  0.14119  1.0000
  O   O88       1.0  0.69383  0.70317  0.69215  1.0000
  O   O89       1.0  0.00933  0.30617  0.69215  1.0000
  O   O90       1.0  0.29683  0.99067  0.69215  1.0000
  O   O91       1.0  0.96350  0.63950  0.52548  1.0000
  O   O92       1.0  0.36050  0.32400  0.52548  1.0000
  O   O93       1.0  0.67600  0.03650  0.52548  1.0000
  O   O94       1.0  0.63950  0.96350  0.97452  1.0000
  O   O95       1.0  0.32400  0.36050  0.97452  1.0000
  O   O96       1.0  0.03650  0.67600  0.97452  1.0000
  O   O97       1.0  0.29683  0.30617  0.19215  1.0000
  O   O98       1.0  0.69383  0.99067  0.19215  1.0000
  O   O99       1.0  0.00933  0.70317  0.19215  1.0000
  O   O100      1.0  0.97283  0.63017  0.64119  1.0000
  O   O101      1.0  0.65733  0.02717  0.64119  1.0000
  O   O102      1.0  0.36983  0.34267  0.64119  1.0000
  O   O103      1.0  0.63017  0.97283  0.85881  1.0000
  O   O104      1.0  0.02717  0.65733  0.85881  1.0000
  O   O105      1.0  0.34267  0.36983  0.85881  1.0000
  O   O106      1.0  0.30617  0.29683  0.30785  1.0000
  O   O107      1.0  0.99067  0.69383  0.30785  1.0000
  O   O108      1.0  0.70317  0.00933  0.30785  1.0000
  O   O109      1.0  0.95640  0.26940  0.45812  1.0000
  O   O110      1.0  0.73060  0.68700  0.45812  1.0000
  O   O111      1.0  0.31300  0.04360  0.45812  1.0000
  O   O112      1.0  0.26940  0.95640  0.04188  1.0000
  O   O113      1.0  0.68700  0.73060  0.04188  1.0000
  O   O114      1.0  0.04360  0.31300  0.04188  1.0000
  O   O115      1.0  0.62307  0.60273  0.79145  1.0000
  O   O116      1.0  0.39727  0.02033  0.79145  1.0000
  O   O117      1.0  0.97967  0.37693  0.79145  1.0000
  O   O118      1.0  0.93607  0.28973  0.37521  1.0000
  O   O119      1.0  0.35367  0.06393  0.37521  1.0000
  O   O120      1.0  0.71027  0.64633  0.37521  1.0000
  O   O121      1.0  0.28973  0.93607  0.12479  1.0000
  O   O122      1.0  0.06393  0.35367  0.12479  1.0000
  O   O123      1.0  0.64633  0.71027  0.12479  1.0000
  O   O124      1.0  0.60273  0.62307  0.70855  1.0000
  O   O125      1.0  0.02033  0.39727  0.70855  1.0000
  O   O126      1.0  0.37693  0.97967  0.70855  1.0000
  O   O127      1.0  0.04360  0.73060  0.54188  1.0000
  O   O128      1.0  0.26940  0.31300  0.54188  1.0000
  O   O129      1.0  0.68700  0.95640  0.54188  1.0000
  O   O130      1.0  0.73060  0.04360  0.95812  1.0000
  O   O131      1.0  0.31300  0.26940  0.95812  1.0000
  O   O132      1.0  0.95640  0.68700  0.95812  1.0000
  O   O133      1.0  0.37693  0.39727  0.20855  1.0000
  O   O134      1.0  0.60273  0.97967  0.20855  1.0000
  O   O135      1.0  0.02033  0.62307  0.20855  1.0000
  O   O136      1.0  0.06393  0.71027  0.62479  1.0000
  O   O137      1.0  0.64633  0.93607  0.62479  1.0000
  O   O138      1.0  0.28973  0.35367  0.62479  1.0000
  O   O139      1.0  0.71027  0.06393  0.87521  1.0000
  O   O140      1.0  0.93607  0.64633  0.87521  1.0000
  O   O141      1.0  0.35367  0.28973  0.87521  1.0000
  O   O142      1.0  0.39727  0.37693  0.29145  1.0000
  O   O143      1.0  0.97967  0.60273  0.29145  1.0000
  O   O144      1.0  0.62307  0.02033  0.29145  1.0000
  Zn  Zn1       1.0  0.42283  0.38810  0.32489  1.0000
  Zn  Zn2       1.0  0.61190  0.03473  0.32489  1.0000
  Zn  Zn3       1.0  0.96527  0.57717  0.32489  1.0000
  Zn  Zn4       1.0  0.38810  0.42283  0.17511  1.0000
  Zn  Zn5       1.0  0.03473  0.61190  0.17511  1.0000
  Zn  Zn6       1.0  0.57717  0.96527  0.17511  1.0000
  Zn  Zn7       1.0  0.08950  0.72143  0.65822  1.0000
  Zn  Zn8       1.0  0.27857  0.36806  0.65822  1.0000
  Zn  Zn9       1.0  0.63194  0.91050  0.65822  1.0000
  Zn  Zn10      1.0  0.05477  0.75616  0.50844  1.0000
  Zn  Zn11      1.0  0.70140  0.94523  0.50844  1.0000
  Zn  Zn12      1.0  0.24384  0.29860  0.50844  1.0000
  Zn  Zn13      1.0  0.75616  0.05477  0.99156  1.0000
  Zn  Zn14      1.0  0.94523  0.70140  0.99156  1.0000
  Zn  Zn15      1.0  0.29860  0.24384  0.99156  1.0000
  Zn  Zn16      1.0  0.72143  0.08950  0.84178  1.0000
  Zn  Zn17      1.0  0.36806  0.27857  0.84178  1.0000
  Zn  Zn18      1.0  0.91050  0.63194  0.84178  1.0000
  Zn  Zn19      1.0  0.57717  0.61190  0.67511  1.0000
  Zn  Zn20      1.0  0.38810  0.96527  0.67511  1.0000
  Zn  Zn21      1.0  0.03473  0.42283  0.67511  1.0000
  Zn  Zn22      1.0  0.61190  0.57717  0.82489  1.0000
  Zn  Zn23      1.0  0.96527  0.38810  0.82489  1.0000
  Zn  Zn24      1.0  0.42283  0.03473  0.82489  1.0000
  Zn  Zn25      1.0  0.91050  0.27857  0.34178  1.0000
  Zn  Zn26      1.0  0.72143  0.63194  0.34178  1.0000
  Zn  Zn27      1.0  0.36806  0.08950  0.34178  1.0000
  Zn  Zn28      1.0  0.94523  0.24384  0.49156  1.0000
  Zn  Zn29      1.0  0.29860  0.05477  0.49156  1.0000
  Zn  Zn30      1.0  0.75616  0.70140  0.49156  1.0000
  Zn  Zn31      1.0  0.24384  0.94523  0.00844  1.0000
  Zn  Zn32      1.0  0.05477  0.29860  0.00844  1.0000
  Zn  Zn33      1.0  0.70140  0.75616  0.00844  1.0000
  Zn  Zn34      1.0  0.27857  0.91050  0.15822  1.0000
  Zn  Zn35      1.0  0.63194  0.72143  0.15822  1.0000
  Zn  Zn36      1.0  0.08950  0.36806  0.15822  1.0000
