data_image0
_chemical_formula_structural       U4O36C24H8
_chemical_formula_sum              "U4 O36 C24 H8"
_cell_length_a       8.0083
_cell_length_b       10.2948
_cell_length_c       11.7481
_cell_angle_alpha    90
_cell_angle_beta     99.733
_cell_angle_gamma    90

_space_group_name_H-M_alt    "P 1"
_space_group_IT_number       1

loop_
  _space_group_symop_operation_xyz
  'x, y, z'

loop_
  _atom_site_type_symbol
  _atom_site_label
  _atom_site_symmetry_multiplicity
  _atom_site_fract_x
  _atom_site_fract_y
  _atom_site_fract_z
  _atom_site_occupancy
  U   U1        1.0  0.41252  0.72117  0.15201  1.0000
  U   U2        1.0  0.58748  0.22117  0.34799  1.0000
  U   U3        1.0  0.58748  0.27883  0.84799  1.0000
  U   U4        1.0  0.41252  0.77883  0.65201  1.0000
  O   O1        1.0  0.50320  0.57860  0.10655  1.0000
  O   O2        1.0  0.49680  0.07860  0.39345  1.0000
  O   O3        1.0  0.49680  0.42140  0.89345  1.0000
  O   O4        1.0  0.50320  0.92140  0.60655  1.0000
  O   O5        1.0  0.32320  0.86480  0.19911  1.0000
  O   O6        1.0  0.67680  0.36480  0.30089  1.0000
  O   O7        1.0  0.67680  0.13520  0.80089  1.0000
  O   O8        1.0  0.32320  0.63520  0.69911  1.0000
  O   O9        1.0  0.26430  0.60310  0.28641  1.0000
  O   O10       1.0  0.73570  0.10310  0.21359  1.0000
  O   O11       1.0  0.73570  0.39690  0.71359  1.0000
  O   O12       1.0  0.26430  0.89690  0.78641  1.0000
  O   O13       1.0  0.14650  0.84500  0.55335  1.0000
  O   O14       1.0  0.85350  0.34500  0.94665  1.0000
  O   O15       1.0  0.85350  0.15500  0.44665  1.0000
  O   O16       1.0  0.14650  0.65500  0.05335  1.0000
  O   O17       1.0  0.35850  0.70270  0.45278  1.0000
  O   O18       1.0  0.64150  0.20270  0.04722  1.0000
  O   O19       1.0  0.64150  0.29730  0.54722  1.0000
  O   O20       1.0  0.35850  0.79730  0.95278  1.0000
  O   O21       1.0  0.35850  0.34350  0.39103  1.0000
  O   O22       1.0  0.64150  0.84350  0.10897  1.0000
  O   O23       1.0  0.64150  0.65650  0.60897  1.0000
  O   O24       1.0  0.35850  0.15650  0.89103  1.0000
  O   O25       1.0  0.61490  0.70760  0.33020  1.0000
  O   O26       1.0  0.38510  0.20760  0.16980  1.0000
  O   O27       1.0  0.38510  0.29240  0.66980  1.0000
  O   O28       1.0  0.61490  0.79240  0.83020  1.0000
  O   O29       1.0  0.11150  0.27640  0.28941  1.0000
  O   O30       1.0  0.88850  0.77640  0.21059  1.0000
  O   O31       1.0  0.88850  0.72360  0.71059  1.0000
  O   O32       1.0  0.11150  0.22360  0.78941  1.0000
  O   O33       1.0  0.88430  0.83540  0.45745  1.0000
  O   O34       1.0  0.11570  0.33540  0.04255  1.0000
  O   O35       1.0  0.11570  0.16460  0.54255  1.0000
  O   O36       1.0  0.88430  0.66460  0.95745  1.0000
  C   C1        1.0  0.25690  0.62680  0.39030  1.0000
  C   C2        1.0  0.74310  0.12680  0.10970  1.0000
  C   C3        1.0  0.74310  0.37320  0.60970  1.0000
  C   C4        1.0  0.25690  0.87320  0.89030  1.0000
  C   C5        1.0  0.12160  0.56130  0.44530  1.0000
  C   C6        1.0  0.87840  0.06130  0.05470  1.0000
  C   C7        1.0  0.87840  0.43870  0.55470  1.0000
  C   C8        1.0  0.12160  0.93870  0.94530  1.0000
  C   C9        1.0  0.01790  0.63420  0.50630  1.0000
  C   C10       1.0  0.98210  0.13420  0.99370  1.0000
  C   C11       1.0  0.98210  0.36580  0.49370  1.0000
  C   C12       1.0  0.01790  0.86580  0.00630  1.0000
  C   C13       1.0  0.19850  0.34270  0.36630  1.0000
  C   C14       1.0  0.80150  0.84270  0.13370  1.0000
  C   C15       1.0  0.80150  0.65730  0.63370  1.0000
  C   C16       1.0  0.19850  0.15730  0.86630  1.0000
  C   C17       1.0  0.10180  0.42720  0.43830  1.0000
  C   C18       1.0  0.89820  0.92720  0.06170  1.0000
  C   C19       1.0  0.89820  0.57280  0.56170  1.0000
  C   C20       1.0  0.10180  0.07280  0.93830  1.0000
  C   C21       1.0  0.01620  0.78190  0.50550  1.0000
  C   C22       1.0  0.98380  0.28190  0.99450  1.0000
  C   C23       1.0  0.98380  0.21810  0.49450  1.0000
  C   C24       1.0  0.01620  0.71810  0.00550  1.0000
  H   H1        1.0  0.57100  0.70600  0.38100  1.0000
  H   H2        1.0  0.42900  0.20600  0.11900  1.0000
  H   H3        1.0  0.42900  0.29400  0.61900  1.0000
  H   H4        1.0  0.57100  0.79400  0.88100  1.0000
  H   H5        1.0  0.71600  0.74800  0.35500  1.0000
  H   H6        1.0  0.28400  0.24800  0.14500  1.0000
  H   H7        1.0  0.28400  0.25200  0.64500  1.0000
  H   H8        1.0  0.71600  0.75200  0.85500  1.0000
