data_image0
_chemical_formula_structural       Zn16O64C48H16C32O32C16H16C64O32
_chemical_formula_sum              "Zn16 O128 C160 H32"
_cell_length_a       18.9381
_cell_length_b       18.9381
_cell_length_c       21.2008
_cell_angle_alpha    90
_cell_angle_beta     90
_cell_angle_gamma    90

_space_group_name_H-M_alt    "P 1"
_space_group_IT_number       1

loop_
  _space_group_symop_operation_xyz
  'x, y, z'

loop_
  _atom_site_type_symbol
  _atom_site_label
  _atom_site_symmetry_multiplicity
  _atom_site_fract_x
  _atom_site_fract_y
  _atom_site_fract_z
  _atom_site_occupancy
  Zn  Zn1       1.0  0.27647  0.47353  0.12500  1.0000
  Zn  Zn2       1.0  0.22353  0.52647  0.62500  1.0000
  Zn  Zn3       1.0  0.77647  0.02647  0.37500  1.0000
  Zn  Zn4       1.0  0.72353  0.97353  0.87500  1.0000
  Zn  Zn5       1.0  0.22353  0.47353  0.37500  1.0000
  Zn  Zn6       1.0  0.27647  0.52647  0.87500  1.0000
  Zn  Zn7       1.0  0.72353  0.02647  0.12500  1.0000
  Zn  Zn8       1.0  0.77647  0.97353  0.62500  1.0000
  Zn  Zn9       1.0  0.72353  0.52647  0.87500  1.0000
  Zn  Zn10      1.0  0.77647  0.47353  0.37500  1.0000
  Zn  Zn11      1.0  0.22353  0.97353  0.62500  1.0000
  Zn  Zn12      1.0  0.27647  0.02647  0.12500  1.0000
  Zn  Zn13      1.0  0.77647  0.52647  0.62500  1.0000
  Zn  Zn14      1.0  0.72353  0.47353  0.12500  1.0000
  Zn  Zn15      1.0  0.27647  0.97353  0.87500  1.0000
  Zn  Zn16      1.0  0.22353  0.02647  0.37500  1.0000
  O   O1        1.0  0.28506  0.56137  0.07599  1.0000
  O   O2        1.0  0.21494  0.43863  0.57599  1.0000
  O   O3        1.0  0.68863  0.03506  0.32599  1.0000
  O   O4        1.0  0.81137  0.96494  0.82599  1.0000
  O   O5        1.0  0.21494  0.56137  0.42401  1.0000
  O   O6        1.0  0.28506  0.43863  0.92401  1.0000
  O   O7        1.0  0.81137  0.03506  0.17401  1.0000
  O   O8        1.0  0.68863  0.96494  0.67401  1.0000
  O   O9        1.0  0.78506  0.06137  0.57599  1.0000
  O   O10       1.0  0.71494  0.93863  0.07599  1.0000
  O   O11       1.0  0.18863  0.53506  0.82599  1.0000
  O   O12       1.0  0.31137  0.46494  0.32599  1.0000
  O   O13       1.0  0.71494  0.06137  0.92401  1.0000
  O   O14       1.0  0.78506  0.93863  0.42401  1.0000
  O   O15       1.0  0.31137  0.53506  0.67401  1.0000
  O   O16       1.0  0.18863  0.46494  0.17401  1.0000
  O   O17       1.0  0.71494  0.43863  0.92401  1.0000
  O   O18       1.0  0.78506  0.56137  0.42401  1.0000
  O   O19       1.0  0.31137  0.96494  0.67401  1.0000
  O   O20       1.0  0.18863  0.03506  0.17401  1.0000
  O   O21       1.0  0.78506  0.43863  0.57599  1.0000
  O   O22       1.0  0.71494  0.56137  0.07599  1.0000
  O   O23       1.0  0.18863  0.96494  0.82599  1.0000
  O   O24       1.0  0.31137  0.03506  0.32599  1.0000
  O   O25       1.0  0.21494  0.93863  0.42401  1.0000
  O   O26       1.0  0.28506  0.06137  0.92401  1.0000
  O   O27       1.0  0.81137  0.46494  0.17401  1.0000
  O   O28       1.0  0.68863  0.53506  0.67401  1.0000
  O   O29       1.0  0.28506  0.93863  0.07599  1.0000
  O   O30       1.0  0.21494  0.06137  0.57599  1.0000
  O   O31       1.0  0.68863  0.46494  0.32599  1.0000
  O   O32       1.0  0.81137  0.53506  0.82599  1.0000
  O   O33       1.0  0.26460  0.62156  0.16366  1.0000
  O   O34       1.0  0.23540  0.37844  0.66366  1.0000
  O   O35       1.0  0.62844  0.01460  0.41366  1.0000
  O   O36       1.0  0.87156  0.98540  0.91366  1.0000
  O   O37       1.0  0.23540  0.62156  0.33634  1.0000
  O   O38       1.0  0.26460  0.37844  0.83634  1.0000
  O   O39       1.0  0.87156  0.01460  0.08634  1.0000
  O   O40       1.0  0.62844  0.98540  0.58634  1.0000
  O   O41       1.0  0.76460  0.12156  0.66366  1.0000
  O   O42       1.0  0.73540  0.87844  0.16366  1.0000
  O   O43       1.0  0.12844  0.51460  0.91366  1.0000
  O   O44       1.0  0.37156  0.48540  0.41366  1.0000
  O   O45       1.0  0.73540  0.12156  0.83634  1.0000
  O   O46       1.0  0.76460  0.87844  0.33634  1.0000
  O   O47       1.0  0.37156  0.51460  0.58634  1.0000
  O   O48       1.0  0.12844  0.48540  0.08634  1.0000
  O   O49       1.0  0.73540  0.37844  0.83634  1.0000
  O   O50       1.0  0.76460  0.62156  0.33634  1.0000
  O   O51       1.0  0.37156  0.98540  0.58634  1.0000
  O   O52       1.0  0.12844  0.01460  0.08634  1.0000
  O   O53       1.0  0.76460  0.37844  0.66366  1.0000
  O   O54       1.0  0.73540  0.62156  0.16366  1.0000
  O   O55       1.0  0.12844  0.98540  0.91366  1.0000
  O   O56       1.0  0.37156  0.01460  0.41366  1.0000
  O   O57       1.0  0.23540  0.87844  0.33634  1.0000
  O   O58       1.0  0.26460  0.12156  0.83634  1.0000
  O   O59       1.0  0.87156  0.48540  0.08634  1.0000
  O   O60       1.0  0.62844  0.51460  0.58634  1.0000
  O   O61       1.0  0.26460  0.87844  0.16366  1.0000
  O   O62       1.0  0.23540  0.12156  0.66366  1.0000
  O   O63       1.0  0.62844  0.48540  0.41366  1.0000
  O   O64       1.0  0.87156  0.51460  0.91366  1.0000
  C   C1        1.0  0.27910  0.61880  0.10650  1.0000
  C   C2        1.0  0.22090  0.38120  0.60650  1.0000
  C   C3        1.0  0.63120  0.02910  0.35650  1.0000
  C   C4        1.0  0.86880  0.97090  0.85650  1.0000
  C   C5        1.0  0.22090  0.61880  0.39350  1.0000
  C   C6        1.0  0.27910  0.38120  0.89350  1.0000
  C   C7        1.0  0.86880  0.02910  0.14350  1.0000
  C   C8        1.0  0.63120  0.97090  0.64350  1.0000
  C   C9        1.0  0.77910  0.11880  0.60650  1.0000
  C   C10       1.0  0.72090  0.88120  0.10650  1.0000
  C   C11       1.0  0.13120  0.52910  0.85650  1.0000
  C   C12       1.0  0.36880  0.47090  0.35650  1.0000
  C   C13       1.0  0.72090  0.11880  0.89350  1.0000
  C   C14       1.0  0.77910  0.88120  0.39350  1.0000
  C   C15       1.0  0.36880  0.52910  0.64350  1.0000
  C   C16       1.0  0.13120  0.47090  0.14350  1.0000
  C   C17       1.0  0.72090  0.38120  0.89350  1.0000
  C   C18       1.0  0.77910  0.61880  0.39350  1.0000
  C   C19       1.0  0.36880  0.97090  0.64350  1.0000
  C   C20       1.0  0.13120  0.02910  0.14350  1.0000
  C   C21       1.0  0.77910  0.38120  0.60650  1.0000
  C   C22       1.0  0.72090  0.61880  0.10650  1.0000
  C   C23       1.0  0.13120  0.97090  0.85650  1.0000
  C   C24       1.0  0.36880  0.02910  0.35650  1.0000
  C   C25       1.0  0.22090  0.88120  0.39350  1.0000
  C   C26       1.0  0.27910  0.11880  0.89350  1.0000
  C   C27       1.0  0.86880  0.47090  0.14350  1.0000
  C   C28       1.0  0.63120  0.52910  0.64350  1.0000
  C   C29       1.0  0.27910  0.88120  0.10650  1.0000
  C   C30       1.0  0.22090  0.11880  0.60650  1.0000
  C   C31       1.0  0.63120  0.47090  0.35650  1.0000
  C   C32       1.0  0.86880  0.52910  0.85650  1.0000
  C   C33       1.0  0.28360  0.75000  0.10020  1.0000
  C   C34       1.0  0.21640  0.25000  0.60020  1.0000
  C   C35       1.0  0.50000  0.03360  0.35020  1.0000
  C   C36       1.0  0.00000  0.96640  0.85020  1.0000
  C   C37       1.0  0.21640  0.75000  0.39980  1.0000
  C   C38       1.0  0.28360  0.25000  0.89980  1.0000
  C   C39       1.0  0.00000  0.03360  0.14980  1.0000
  C   C40       1.0  0.50000  0.96640  0.64980  1.0000
  C   C41       1.0  0.78360  0.25000  0.60020  1.0000
  C   C42       1.0  0.71640  0.75000  0.10020  1.0000
  C   C43       1.0  0.00000  0.53360  0.85020  1.0000
  C   C44       1.0  0.50000  0.46640  0.35020  1.0000
  C   C45       1.0  0.71640  0.25000  0.89980  1.0000
  C   C46       1.0  0.78360  0.75000  0.39980  1.0000
  C   C47       1.0  0.50000  0.53360  0.64980  1.0000
  C   C48       1.0  0.00000  0.46640  0.14980  1.0000
  H   H1        1.0  0.27120  0.75000  0.14270  1.0000
  H   H2        1.0  0.22880  0.25000  0.64270  1.0000
  H   H3        1.0  0.50000  0.02120  0.39270  1.0000
  H   H4        1.0  0.00000  0.97880  0.89270  1.0000
  H   H5        1.0  0.22880  0.75000  0.35730  1.0000
  H   H6        1.0  0.27120  0.25000  0.85730  1.0000
  H   H7        1.0  0.00000  0.02120  0.10730  1.0000
  H   H8        1.0  0.50000  0.97880  0.60730  1.0000
  H   H9        1.0  0.77120  0.25000  0.64270  1.0000
  H   H10       1.0  0.72880  0.75000  0.14270  1.0000
  H   H11       1.0  0.00000  0.52120  0.89270  1.0000
  H   H12       1.0  0.50000  0.47880  0.39270  1.0000
  H   H13       1.0  0.72880  0.25000  0.85730  1.0000
  H   H14       1.0  0.77120  0.75000  0.35730  1.0000
  H   H15       1.0  0.50000  0.52120  0.60730  1.0000
  H   H16       1.0  0.00000  0.47880  0.10730  1.0000
  C   C49       1.0  0.29230  0.68595  0.07039  1.0000
  C   C50       1.0  0.20770  0.31405  0.57039  1.0000
  C   C51       1.0  0.56405  0.04230  0.32039  1.0000
  C   C52       1.0  0.93595  0.95770  0.82039  1.0000
  C   C53       1.0  0.20770  0.68595  0.42961  1.0000
  C   C54       1.0  0.29230  0.31405  0.92961  1.0000
  C   C55       1.0  0.93595  0.04230  0.17961  1.0000
  C   C56       1.0  0.56405  0.95770  0.67961  1.0000
  C   C57       1.0  0.79230  0.18595  0.57039  1.0000
  C   C58       1.0  0.70770  0.81405  0.07039  1.0000
  C   C59       1.0  0.06405  0.54230  0.82039  1.0000
  C   C60       1.0  0.43595  0.45770  0.32039  1.0000
  C   C61       1.0  0.70770  0.18595  0.92961  1.0000
  C   C62       1.0  0.79230  0.81405  0.42961  1.0000
  C   C63       1.0  0.43595  0.54230  0.67961  1.0000
  C   C64       1.0  0.06405  0.45770  0.17961  1.0000
  C   C65       1.0  0.70770  0.31405  0.92961  1.0000
  C   C66       1.0  0.79230  0.68595  0.42961  1.0000
  C   C67       1.0  0.43595  0.95770  0.67961  1.0000
  C   C68       1.0  0.06405  0.04230  0.17961  1.0000
  C   C69       1.0  0.79230  0.31405  0.57039  1.0000
  C   C70       1.0  0.70770  0.68595  0.07039  1.0000
  C   C71       1.0  0.06405  0.95770  0.82039  1.0000
  C   C72       1.0  0.43595  0.04230  0.32039  1.0000
  C   C73       1.0  0.20770  0.81405  0.42961  1.0000
  C   C74       1.0  0.29230  0.18595  0.92961  1.0000
  C   C75       1.0  0.93595  0.45770  0.17961  1.0000
  C   C76       1.0  0.56405  0.54230  0.67961  1.0000
  C   C77       1.0  0.29230  0.81405  0.07039  1.0000
  C   C78       1.0  0.20770  0.18595  0.57039  1.0000
  C   C79       1.0  0.56405  0.45770  0.32039  1.0000
  C   C80       1.0  0.93595  0.54230  0.82039  1.0000
  O   O65       1.0  0.26662  0.59792  0.94017  1.0000
  O   O66       1.0  0.23338  0.40208  0.44017  1.0000
  O   O67       1.0  0.65208  0.01662  0.19017  1.0000
  O   O68       1.0  0.84792  0.98338  0.69017  1.0000
  O   O69       1.0  0.23338  0.59792  0.55983  1.0000
  O   O70       1.0  0.26662  0.40208  0.05983  1.0000
  O   O71       1.0  0.84792  0.01662  0.30983  1.0000
  O   O72       1.0  0.65208  0.98338  0.80983  1.0000
  O   O73       1.0  0.76662  0.09792  0.44017  1.0000
  O   O74       1.0  0.73338  0.90208  0.94017  1.0000
  O   O75       1.0  0.15208  0.51662  0.69017  1.0000
  O   O76       1.0  0.34792  0.48338  0.19017  1.0000
  O   O77       1.0  0.73338  0.09792  0.05983  1.0000
  O   O78       1.0  0.76662  0.90208  0.55983  1.0000
  O   O79       1.0  0.34792  0.51662  0.80983  1.0000
  O   O80       1.0  0.15208  0.48338  0.30983  1.0000
  O   O81       1.0  0.73338  0.40208  0.05983  1.0000
  O   O82       1.0  0.76662  0.59792  0.55983  1.0000
  O   O83       1.0  0.34792  0.98338  0.80983  1.0000
  O   O84       1.0  0.15208  0.01662  0.30983  1.0000
  O   O85       1.0  0.76662  0.40208  0.44017  1.0000
  O   O86       1.0  0.73338  0.59792  0.94017  1.0000
  O   O87       1.0  0.15208  0.98338  0.69017  1.0000
  O   O88       1.0  0.34792  0.01662  0.19017  1.0000
  O   O89       1.0  0.23338  0.90208  0.55983  1.0000
  O   O90       1.0  0.26662  0.09792  0.05983  1.0000
  O   O91       1.0  0.84792  0.48338  0.30983  1.0000
  O   O92       1.0  0.65208  0.51662  0.80983  1.0000
  O   O93       1.0  0.26662  0.90208  0.94017  1.0000
  O   O94       1.0  0.23338  0.09792  0.44017  1.0000
  O   O95       1.0  0.65208  0.48338  0.19017  1.0000
  O   O96       1.0  0.84792  0.51662  0.69017  1.0000
  C   C81       1.0  0.32120  0.75000  0.97630  1.0000
  C   C82       1.0  0.17880  0.25000  0.47630  1.0000
  C   C83       1.0  0.50000  0.07120  0.22630  1.0000
  C   C84       1.0  0.00000  0.92880  0.72630  1.0000
  C   C85       1.0  0.17880  0.75000  0.52370  1.0000
  C   C86       1.0  0.32120  0.25000  0.02370  1.0000
  C   C87       1.0  0.00000  0.07120  0.27370  1.0000
  C   C88       1.0  0.50000  0.92880  0.77370  1.0000
  C   C89       1.0  0.82120  0.25000  0.47630  1.0000
  C   C90       1.0  0.67880  0.75000  0.97630  1.0000
  C   C91       1.0  0.00000  0.57120  0.72630  1.0000
  C   C92       1.0  0.50000  0.42880  0.22630  1.0000
  C   C93       1.0  0.67880  0.25000  0.02370  1.0000
  C   C94       1.0  0.82120  0.75000  0.52370  1.0000
  C   C95       1.0  0.50000  0.57120  0.77370  1.0000
  C   C96       1.0  0.00000  0.42880  0.27370  1.0000
  H   H17       1.0  0.33420  0.75000  0.93400  1.0000
  H   H18       1.0  0.16580  0.25000  0.43400  1.0000
  H   H19       1.0  0.50000  0.08420  0.18400  1.0000
  H   H20       1.0  0.00000  0.91580  0.68400  1.0000
  H   H21       1.0  0.16580  0.75000  0.56600  1.0000
  H   H22       1.0  0.33420  0.25000  0.06600  1.0000
  H   H23       1.0  0.00000  0.08420  0.31600  1.0000
  H   H24       1.0  0.50000  0.91580  0.81600  1.0000
  H   H25       1.0  0.83420  0.25000  0.43400  1.0000
  H   H26       1.0  0.66580  0.75000  0.93400  1.0000
  H   H27       1.0  0.00000  0.58420  0.68400  1.0000
  H   H28       1.0  0.50000  0.41580  0.18400  1.0000
  H   H29       1.0  0.66580  0.25000  0.06600  1.0000
  H   H30       1.0  0.83420  0.75000  0.56600  1.0000
  H   H31       1.0  0.50000  0.58420  0.81600  1.0000
  H   H32       1.0  0.00000  0.41580  0.31600  1.0000
  C   C97       1.0  0.31190  0.68597  0.00658  1.0000
  C   C98       1.0  0.18810  0.31403  0.50658  1.0000
  C   C99       1.0  0.56403  0.06190  0.25658  1.0000
  C   C100      1.0  0.93597  0.93810  0.75658  1.0000
  C   C101      1.0  0.18810  0.68597  0.49342  1.0000
  C   C102      1.0  0.31190  0.31403  0.99342  1.0000
  C   C103      1.0  0.93597  0.06190  0.24342  1.0000
  C   C104      1.0  0.56403  0.93810  0.74342  1.0000
  C   C105      1.0  0.81190  0.18597  0.50658  1.0000
  C   C106      1.0  0.68810  0.81403  0.00658  1.0000
  C   C107      1.0  0.06403  0.56190  0.75658  1.0000
  C   C108      1.0  0.43597  0.43810  0.25658  1.0000
  C   C109      1.0  0.68810  0.18597  0.99342  1.0000
  C   C110      1.0  0.81190  0.81403  0.49342  1.0000
  C   C111      1.0  0.43597  0.56190  0.74342  1.0000
  C   C112      1.0  0.06403  0.43810  0.24342  1.0000
  C   C113      1.0  0.68810  0.31403  0.99342  1.0000
  C   C114      1.0  0.81190  0.68597  0.49342  1.0000
  C   C115      1.0  0.43597  0.93810  0.74342  1.0000
  C   C116      1.0  0.06403  0.06190  0.24342  1.0000
  C   C117      1.0  0.81190  0.31403  0.50658  1.0000
  C   C118      1.0  0.68810  0.68597  0.00658  1.0000
  C   C119      1.0  0.06403  0.93810  0.75658  1.0000
  C   C120      1.0  0.43597  0.06190  0.25658  1.0000
  C   C121      1.0  0.18810  0.81403  0.49342  1.0000
  C   C122      1.0  0.31190  0.18597  0.99342  1.0000
  C   C123      1.0  0.93597  0.43810  0.24342  1.0000
  C   C124      1.0  0.56403  0.56190  0.74342  1.0000
  C   C125      1.0  0.31190  0.81403  0.00658  1.0000
  C   C126      1.0  0.18810  0.18597  0.50658  1.0000
  C   C127      1.0  0.56403  0.43810  0.25658  1.0000
  C   C128      1.0  0.93597  0.56190  0.75658  1.0000
  C   C129      1.0  0.32260  0.62129  0.96587  1.0000
  C   C130      1.0  0.17740  0.37871  0.46587  1.0000
  C   C131      1.0  0.62871  0.07260  0.21587  1.0000
  C   C132      1.0  0.87129  0.92740  0.71587  1.0000
  C   C133      1.0  0.17740  0.62129  0.53413  1.0000
  C   C134      1.0  0.32260  0.37871  0.03413  1.0000
  C   C135      1.0  0.87129  0.07260  0.28413  1.0000
  C   C136      1.0  0.62871  0.92740  0.78413  1.0000
  C   C137      1.0  0.82260  0.12129  0.46587  1.0000
  C   C138      1.0  0.67740  0.87871  0.96587  1.0000
  C   C139      1.0  0.12871  0.57260  0.71587  1.0000
  C   C140      1.0  0.37129  0.42740  0.21587  1.0000
  C   C141      1.0  0.67740  0.12129  0.03413  1.0000
  C   C142      1.0  0.82260  0.87871  0.53413  1.0000
  C   C143      1.0  0.37129  0.57260  0.78413  1.0000
  C   C144      1.0  0.12871  0.42740  0.28413  1.0000
  C   C145      1.0  0.67740  0.37871  0.03413  1.0000
  C   C146      1.0  0.82260  0.62129  0.53413  1.0000
  C   C147      1.0  0.37129  0.92740  0.78413  1.0000
  C   C148      1.0  0.12871  0.07260  0.28413  1.0000
  C   C149      1.0  0.82260  0.37871  0.46587  1.0000
  C   C150      1.0  0.67740  0.62129  0.96587  1.0000
  C   C151      1.0  0.12871  0.92740  0.71587  1.0000
  C   C152      1.0  0.37129  0.07260  0.21587  1.0000
  C   C153      1.0  0.17740  0.87871  0.53413  1.0000
  C   C154      1.0  0.32260  0.12129  0.03413  1.0000
  C   C155      1.0  0.87129  0.42740  0.28413  1.0000
  C   C156      1.0  0.62871  0.57260  0.78413  1.0000
  C   C157      1.0  0.32260  0.87871  0.96587  1.0000
  C   C158      1.0  0.17740  0.12129  0.46587  1.0000
  C   C159      1.0  0.62871  0.42740  0.21587  1.0000
  C   C160      1.0  0.87129  0.57260  0.71587  1.0000
  O   O97       1.0  0.38171  0.59970  0.95516  1.0000
  O   O98       1.0  0.11829  0.40030  0.45516  1.0000
  O   O99       1.0  0.65030  0.13171  0.20516  1.0000
  O   O100      1.0  0.84970  0.86829  0.70516  1.0000
  O   O101      1.0  0.11829  0.59970  0.54484  1.0000
  O   O102      1.0  0.38171  0.40030  0.04484  1.0000
  O   O103      1.0  0.84970  0.13171  0.29484  1.0000
  O   O104      1.0  0.65030  0.86829  0.79484  1.0000
  O   O105      1.0  0.88171  0.09970  0.45516  1.0000
  O   O106      1.0  0.61829  0.90030  0.95516  1.0000
  O   O107      1.0  0.15030  0.63171  0.70516  1.0000
  O   O108      1.0  0.34970  0.36829  0.20516  1.0000
  O   O109      1.0  0.61829  0.09970  0.04484  1.0000
  O   O110      1.0  0.88171  0.90030  0.54484  1.0000
  O   O111      1.0  0.34970  0.63171  0.79484  1.0000
  O   O112      1.0  0.15030  0.36829  0.29484  1.0000
  O   O113      1.0  0.61829  0.40030  0.04484  1.0000
  O   O114      1.0  0.88171  0.59970  0.54484  1.0000
  O   O115      1.0  0.34970  0.86829  0.79484  1.0000
  O   O116      1.0  0.15030  0.13171  0.29484  1.0000
  O   O117      1.0  0.88171  0.40030  0.45516  1.0000
  O   O118      1.0  0.61829  0.59970  0.95516  1.0000
  O   O119      1.0  0.15030  0.86829  0.70516  1.0000
  O   O120      1.0  0.34970  0.13171  0.20516  1.0000
  O   O121      1.0  0.11829  0.90030  0.54484  1.0000
  O   O122      1.0  0.38171  0.09970  0.04484  1.0000
  O   O123      1.0  0.84970  0.36829  0.29484  1.0000
  O   O124      1.0  0.65030  0.63171  0.79484  1.0000
  O   O125      1.0  0.38171  0.90030  0.95516  1.0000
  O   O126      1.0  0.11829  0.09970  0.45516  1.0000
  O   O127      1.0  0.65030  0.36829  0.20516  1.0000
  O   O128      1.0  0.84970  0.63171  0.70516  1.0000
