data_image0
_chemical_formula_structural       In8O64N16C24H8C16H8C8H8C16H8C8H8C8H8C8H8C40H8C16H8C8H8C8H8C16H8C16H8C8H8C8
_chemical_formula_sum              "In8 O64 N16 C208 H112"
_cell_length_a       18.4359
_cell_length_b       22.1499
_cell_length_c       20.6432
_cell_angle_alpha    90
_cell_angle_beta     106.994
_cell_angle_gamma    90

_space_group_name_H-M_alt    "P 1"
_space_group_IT_number       1

loop_
  _space_group_symop_operation_xyz
  'x, y, z'

loop_
  _atom_site_type_symbol
  _atom_site_label
  _atom_site_symmetry_multiplicity
  _atom_site_fract_x
  _atom_site_fract_y
  _atom_site_fract_z
  _atom_site_occupancy
  In  In1       1.0  0.31439  0.63866  0.67461  1.0000
  In  In2       1.0  0.18561  0.63866  0.32539  1.0000
  In  In3       1.0  0.81439  0.13866  0.17461  1.0000
  In  In4       1.0  0.68561  0.13866  0.82539  1.0000
  In  In5       1.0  0.68561  0.36134  0.32539  1.0000
  In  In6       1.0  0.81439  0.36134  0.67461  1.0000
  In  In7       1.0  0.18561  0.86134  0.82539  1.0000
  In  In8       1.0  0.31439  0.86134  0.17461  1.0000
  O   O1        1.0  0.27621  0.72835  0.63594  1.0000
  O   O2        1.0  0.22379  0.72835  0.36406  1.0000
  O   O3        1.0  0.77621  0.22835  0.13594  1.0000
  O   O4        1.0  0.72379  0.22835  0.86406  1.0000
  O   O5        1.0  0.72379  0.27165  0.36406  1.0000
  O   O6        1.0  0.77621  0.27165  0.63594  1.0000
  O   O7        1.0  0.22379  0.77165  0.86406  1.0000
  O   O8        1.0  0.27621  0.77165  0.13594  1.0000
  O   O9        1.0  0.29820  0.80520  0.57459  1.0000
  O   O10       1.0  0.20180  0.80520  0.42541  1.0000
  O   O11       1.0  0.79820  0.30520  0.07459  1.0000
  O   O12       1.0  0.70180  0.30520  0.92541  1.0000
  O   O13       1.0  0.70180  0.19480  0.42541  1.0000
  O   O14       1.0  0.79820  0.19480  0.57459  1.0000
  O   O15       1.0  0.20180  0.69480  0.92541  1.0000
  O   O16       1.0  0.29820  0.69480  0.07459  1.0000
  O   O17       1.0  0.35495  0.82718  0.27909  1.0000
  O   O18       1.0  0.14505  0.82718  0.72091  1.0000
  O   O19       1.0  0.85495  0.32718  0.77909  1.0000
  O   O20       1.0  0.64505  0.32718  0.22091  1.0000
  O   O21       1.0  0.64505  0.17282  0.72091  1.0000
  O   O22       1.0  0.85495  0.17282  0.27909  1.0000
  O   O23       1.0  0.14505  0.67282  0.22091  1.0000
  O   O24       1.0  0.35495  0.67282  0.77909  1.0000
  O   O25       1.0  0.44048  0.80787  0.22629  1.0000
  O   O26       1.0  0.05952  0.80787  0.77371  1.0000
  O   O27       1.0  0.94048  0.30787  0.72629  1.0000
  O   O28       1.0  0.55952  0.30787  0.27371  1.0000
  O   O29       1.0  0.55952  0.19213  0.77371  1.0000
  O   O30       1.0  0.94048  0.19213  0.22629  1.0000
  O   O31       1.0  0.05952  0.69213  0.27371  1.0000
  O   O32       1.0  0.44048  0.69213  0.72629  1.0000
  O   O33       1.0  0.28830  0.52905  0.73720  1.0000
  O   O34       1.0  0.21170  0.52905  0.26280  1.0000
  O   O35       1.0  0.78830  0.02905  0.23720  1.0000
  O   O36       1.0  0.71170  0.02905  0.76280  1.0000
  O   O37       1.0  0.71170  0.47095  0.26280  1.0000
  O   O38       1.0  0.78830  0.47095  0.73720  1.0000
  O   O39       1.0  0.21170  0.97095  0.76280  1.0000
  O   O40       1.0  0.28830  0.97095  0.23720  1.0000
  O   O41       1.0  0.38181  0.55838  0.69751  1.0000
  O   O42       1.0  0.11819  0.55838  0.30249  1.0000
  O   O43       1.0  0.88181  0.05838  0.19751  1.0000
  O   O44       1.0  0.61819  0.05838  0.80249  1.0000
  O   O45       1.0  0.61819  0.44162  0.30249  1.0000
  O   O46       1.0  0.88181  0.44162  0.69751  1.0000
  O   O47       1.0  0.11819  0.94162  0.80249  1.0000
  O   O48       1.0  0.38181  0.94162  0.19751  1.0000
  O   O49       1.0  0.63202  0.47297  0.57098  1.0000
  O   O50       1.0  0.86798  0.47297  0.42902  1.0000
  O   O51       1.0  0.13202  0.97297  0.07098  1.0000
  O   O52       1.0  0.36798  0.97297  0.92902  1.0000
  O   O53       1.0  0.36798  0.52703  0.42902  1.0000
  O   O54       1.0  0.13202  0.52703  0.57098  1.0000
  O   O55       1.0  0.86798  0.02703  0.92902  1.0000
  O   O56       1.0  0.63202  0.02703  0.07098  1.0000
  O   O57       1.0  0.73575  0.41623  0.59474  1.0000
  O   O58       1.0  0.76425  0.41623  0.40526  1.0000
  O   O59       1.0  0.23575  0.91623  0.09474  1.0000
  O   O60       1.0  0.26425  0.91623  0.90526  1.0000
  O   O61       1.0  0.26425  0.58377  0.40526  1.0000
  O   O62       1.0  0.23575  0.58377  0.59474  1.0000
  O   O63       1.0  0.76425  0.08377  0.90526  1.0000
  O   O64       1.0  0.73575  0.08377  0.09474  1.0000
  N   N1        1.0  0.36759  0.65600  0.58985  1.0000
  N   N2        1.0  0.13241  0.65600  0.41015  1.0000
  N   N3        1.0  0.86759  0.15600  0.08985  1.0000
  N   N4        1.0  0.63241  0.15600  0.91015  1.0000
  N   N5        1.0  0.63241  0.34400  0.41015  1.0000
  N   N6        1.0  0.86759  0.34400  0.58985  1.0000
  N   N7        1.0  0.13241  0.84400  0.91015  1.0000
  N   N8        1.0  0.36759  0.84400  0.08985  1.0000
  N   N9        1.0  0.70198  0.36206  0.69737  1.0000
  N   N10       1.0  0.79802  0.36206  0.30263  1.0000
  N   N11       1.0  0.20198  0.86206  0.19737  1.0000
  N   N12       1.0  0.29802  0.86206  0.80263  1.0000
  N   N13       1.0  0.29802  0.63794  0.30263  1.0000
  N   N14       1.0  0.20198  0.63794  0.69737  1.0000
  N   N15       1.0  0.79802  0.13794  0.80263  1.0000
  N   N16       1.0  0.70198  0.13794  0.19737  1.0000
  C   C1        1.0  0.30450  0.75212  0.59280  1.0000
  C   C2        1.0  0.19550  0.75212  0.40720  1.0000
  C   C3        1.0  0.80450  0.25212  0.09280  1.0000
  C   C4        1.0  0.69550  0.25212  0.90720  1.0000
  C   C5        1.0  0.69550  0.24788  0.40720  1.0000
  C   C6        1.0  0.80450  0.24788  0.59280  1.0000
  C   C7        1.0  0.19550  0.74788  0.90720  1.0000
  C   C8        1.0  0.30450  0.74788  0.09280  1.0000
  C   C9        1.0  0.35450  0.71179  0.56370  1.0000
  C   C10       1.0  0.14550  0.71179  0.43630  1.0000
  C   C11       1.0  0.85450  0.21179  0.06370  1.0000
  C   C12       1.0  0.64550  0.21179  0.93630  1.0000
  C   C13       1.0  0.64550  0.28821  0.43630  1.0000
  C   C14       1.0  0.85450  0.28821  0.56370  1.0000
  C   C15       1.0  0.14550  0.78821  0.93630  1.0000
  C   C16       1.0  0.35450  0.78821  0.06370  1.0000
  C   C17       1.0  0.38710  0.73217  0.51570  1.0000
  C   C18       1.0  0.11290  0.73217  0.48430  1.0000
  C   C19       1.0  0.88710  0.23217  0.01570  1.0000
  C   C20       1.0  0.61290  0.23217  0.98430  1.0000
  C   C21       1.0  0.61290  0.26783  0.48430  1.0000
  C   C22       1.0  0.88710  0.26783  0.51570  1.0000
  C   C23       1.0  0.11290  0.76783  0.98430  1.0000
  C   C24       1.0  0.38710  0.76783  0.01570  1.0000
  H   H1        1.0  0.37640  0.77090  0.49810  1.0000
  H   H2        1.0  0.12360  0.77090  0.50190  1.0000
  H   H3        1.0  0.87640  0.27090  0.99810  1.0000
  H   H4        1.0  0.62360  0.27090  0.00190  1.0000
  H   H5        1.0  0.62360  0.22910  0.50190  1.0000
  H   H6        1.0  0.87640  0.22910  0.49810  1.0000
  H   H7        1.0  0.12360  0.72910  0.00190  1.0000
  H   H8        1.0  0.37640  0.72910  0.99810  1.0000
  C   C25       1.0  0.43590  0.69503  0.49340  1.0000
  C   C26       1.0  0.06410  0.69503  0.50660  1.0000
  C   C27       1.0  0.93590  0.19503  0.99340  1.0000
  C   C28       1.0  0.56410  0.19503  0.00660  1.0000
  C   C29       1.0  0.56410  0.30497  0.50660  1.0000
  C   C30       1.0  0.93590  0.30497  0.49340  1.0000
  C   C31       1.0  0.06410  0.80497  0.00660  1.0000
  C   C32       1.0  0.43590  0.80497  0.99340  1.0000
  C   C33       1.0  0.44970  0.63779  0.52240  1.0000
  C   C34       1.0  0.05030  0.63779  0.47760  1.0000
  C   C35       1.0  0.94970  0.13779  0.02240  1.0000
  C   C36       1.0  0.55030  0.13779  0.97760  1.0000
  C   C37       1.0  0.55030  0.36221  0.47760  1.0000
  C   C38       1.0  0.94970  0.36221  0.52240  1.0000
  C   C39       1.0  0.05030  0.86221  0.97760  1.0000
  C   C40       1.0  0.44970  0.86221  0.02240  1.0000
  H   H9        1.0  0.48280  0.61170  0.50990  1.0000
  H   H10       1.0  0.01720  0.61170  0.49010  1.0000
  H   H11       1.0  0.98280  0.11170  0.00990  1.0000
  H   H12       1.0  0.51720  0.11170  0.99010  1.0000
  H   H13       1.0  0.51720  0.38830  0.49010  1.0000
  H   H14       1.0  0.98280  0.38830  0.50990  1.0000
  H   H15       1.0  0.01720  0.88830  0.99010  1.0000
  H   H16       1.0  0.48280  0.88830  0.00990  1.0000
  C   C41       1.0  0.41430  0.61958  0.56990  1.0000
  C   C42       1.0  0.08570  0.61958  0.43010  1.0000
  C   C43       1.0  0.91430  0.11958  0.06990  1.0000
  C   C44       1.0  0.58570  0.11958  0.93010  1.0000
  C   C45       1.0  0.58570  0.38042  0.43010  1.0000
  C   C46       1.0  0.91430  0.38042  0.56990  1.0000
  C   C47       1.0  0.08570  0.88042  0.93010  1.0000
  C   C48       1.0  0.41430  0.88042  0.06990  1.0000
  H   H17       1.0  0.42340  0.58100  0.58820  1.0000
  H   H18       1.0  0.07660  0.58100  0.41180  1.0000
  H   H19       1.0  0.92340  0.08100  0.08820  1.0000
  H   H20       1.0  0.57660  0.08100  0.91180  1.0000
  H   H21       1.0  0.57660  0.41900  0.41180  1.0000
  H   H22       1.0  0.92340  0.41900  0.58820  1.0000
  H   H23       1.0  0.07660  0.91900  0.91180  1.0000
  H   H24       1.0  0.42340  0.91900  0.08820  1.0000
  C   C49       1.0  0.47150  0.71580  0.44190  1.0000
  C   C50       1.0  0.02850  0.71580  0.55810  1.0000
  C   C51       1.0  0.97150  0.21580  0.94190  1.0000
  C   C52       1.0  0.52850  0.21580  0.05810  1.0000
  C   C53       1.0  0.52850  0.28420  0.55810  1.0000
  C   C54       1.0  0.97150  0.28420  0.44190  1.0000
  C   C55       1.0  0.02850  0.78420  0.05810  1.0000
  C   C56       1.0  0.47150  0.78420  0.94190  1.0000
  C   C57       1.0  0.43070  0.75072  0.38710  1.0000
  C   C58       1.0  0.06930  0.75072  0.61290  1.0000
  C   C59       1.0  0.93070  0.25072  0.88710  1.0000
  C   C60       1.0  0.56930  0.25072  0.11290  1.0000
  C   C61       1.0  0.56930  0.24928  0.61290  1.0000
  C   C62       1.0  0.93070  0.24928  0.38710  1.0000
  C   C63       1.0  0.06930  0.74928  0.11290  1.0000
  C   C64       1.0  0.43070  0.74928  0.88710  1.0000
  H   H25       1.0  0.38070  0.76090  0.38300  1.0000
  H   H26       1.0  0.11930  0.76090  0.61700  1.0000
  H   H27       1.0  0.88070  0.26090  0.88300  1.0000
  H   H28       1.0  0.61930  0.26090  0.11700  1.0000
  H   H29       1.0  0.61930  0.23910  0.61700  1.0000
  H   H30       1.0  0.88070  0.23910  0.38300  1.0000
  H   H31       1.0  0.11930  0.73910  0.11700  1.0000
  H   H32       1.0  0.38070  0.73910  0.88300  1.0000
  C   C65       1.0  0.53950  0.75560  0.34490  1.0000
  C   C66       1.0  0.96050  0.75560  0.65510  1.0000
  C   C67       1.0  0.03950  0.25560  0.84490  1.0000
  C   C68       1.0  0.46050  0.25560  0.15510  1.0000
  C   C69       1.0  0.46050  0.24440  0.65510  1.0000
  C   C70       1.0  0.03950  0.24440  0.34490  1.0000
  C   C71       1.0  0.96050  0.74440  0.15510  1.0000
  C   C72       1.0  0.53950  0.74440  0.84490  1.0000
  H   H33       1.0  0.56220  0.76920  0.31280  1.0000
  H   H34       1.0  0.93780  0.76920  0.68720  1.0000
  H   H35       1.0  0.06220  0.26920  0.81280  1.0000
  H   H36       1.0  0.43780  0.26920  0.18720  1.0000
  H   H37       1.0  0.43780  0.23080  0.68720  1.0000
  H   H38       1.0  0.06220  0.23080  0.31280  1.0000
  H   H39       1.0  0.93780  0.73080  0.18720  1.0000
  H   H40       1.0  0.56220  0.73080  0.81280  1.0000
  C   C73       1.0  0.58020  0.72060  0.39880  1.0000
  C   C74       1.0  0.91980  0.72060  0.60120  1.0000
  C   C75       1.0  0.08020  0.22060  0.89880  1.0000
  C   C76       1.0  0.41980  0.22060  0.10120  1.0000
  C   C77       1.0  0.41980  0.27940  0.60120  1.0000
  C   C78       1.0  0.08020  0.27940  0.39880  1.0000
  C   C79       1.0  0.91980  0.77940  0.10120  1.0000
  C   C80       1.0  0.58020  0.77940  0.89880  1.0000
  H   H41       1.0  0.63040  0.71080  0.40300  1.0000
  H   H42       1.0  0.86960  0.71080  0.59700  1.0000
  H   H43       1.0  0.13040  0.21080  0.90300  1.0000
  H   H44       1.0  0.36960  0.21080  0.09700  1.0000
  H   H45       1.0  0.36960  0.28920  0.59700  1.0000
  H   H46       1.0  0.13040  0.28920  0.40300  1.0000
  H   H47       1.0  0.86960  0.78920  0.09700  1.0000
  H   H48       1.0  0.63040  0.78920  0.90300  1.0000
  C   C81       1.0  0.54630  0.70000  0.44690  1.0000
  C   C82       1.0  0.95370  0.70000  0.55310  1.0000
  C   C83       1.0  0.04630  0.20000  0.94690  1.0000
  C   C84       1.0  0.45370  0.20000  0.05310  1.0000
  C   C85       1.0  0.45370  0.30000  0.55310  1.0000
  C   C86       1.0  0.04630  0.30000  0.44690  1.0000
  C   C87       1.0  0.95370  0.80000  0.05310  1.0000
  C   C88       1.0  0.54630  0.80000  0.94690  1.0000
  H   H49       1.0  0.57360  0.67570  0.48240  1.0000
  H   H50       1.0  0.92640  0.67570  0.51760  1.0000
  H   H51       1.0  0.07360  0.17570  0.98240  1.0000
  H   H52       1.0  0.42640  0.17570  0.01760  1.0000
  H   H53       1.0  0.42640  0.32430  0.51760  1.0000
  H   H54       1.0  0.07360  0.32430  0.48240  1.0000
  H   H55       1.0  0.92640  0.82430  0.01760  1.0000
  H   H56       1.0  0.57360  0.82430  0.98240  1.0000
  C   C89       1.0  0.46400  0.77040  0.33870  1.0000
  C   C90       1.0  0.03600  0.77040  0.66130  1.0000
  C   C91       1.0  0.96400  0.27040  0.83870  1.0000
  C   C92       1.0  0.53600  0.27040  0.16130  1.0000
  C   C93       1.0  0.53600  0.22960  0.66130  1.0000
  C   C94       1.0  0.96400  0.22960  0.33870  1.0000
  C   C95       1.0  0.03600  0.72960  0.16130  1.0000
  C   C96       1.0  0.46400  0.72960  0.83870  1.0000
  C   C97       1.0  0.41900  0.80440  0.27800  1.0000
  C   C98       1.0  0.08100  0.80440  0.72200  1.0000
  C   C99       1.0  0.91900  0.30440  0.77800  1.0000
  C   C100      1.0  0.58100  0.30440  0.22200  1.0000
  C   C101      1.0  0.58100  0.19560  0.72200  1.0000
  C   C102      1.0  0.91900  0.19560  0.27800  1.0000
  C   C103      1.0  0.08100  0.69560  0.22200  1.0000
  C   C104      1.0  0.41900  0.69560  0.77800  1.0000
  C   C105      1.0  0.34900  0.51900  0.72480  1.0000
  C   C106      1.0  0.15100  0.51900  0.27520  1.0000
  C   C107      1.0  0.84900  0.01900  0.22480  1.0000
  C   C108      1.0  0.65100  0.01900  0.77520  1.0000
  C   C109      1.0  0.65100  0.48100  0.27520  1.0000
  C   C110      1.0  0.84900  0.48100  0.72480  1.0000
  C   C111      1.0  0.15100  0.98100  0.77520  1.0000
  C   C112      1.0  0.34900  0.98100  0.22480  1.0000
  C   C113      1.0  0.38720  0.45904  0.74070  1.0000
  C   C114      1.0  0.11280  0.45904  0.25930  1.0000
  C   C115      1.0  0.88720  0.95904  0.24070  1.0000
  C   C116      1.0  0.61280  0.95904  0.75930  1.0000
  C   C117      1.0  0.61280  0.54096  0.25930  1.0000
  C   C118      1.0  0.88720  0.54096  0.74070  1.0000
  C   C119      1.0  0.11280  0.04096  0.75930  1.0000
  C   C120      1.0  0.38720  0.04096  0.24070  1.0000
  C   C121      1.0  0.45510  0.44726  0.72520  1.0000
  C   C122      1.0  0.04490  0.44726  0.27480  1.0000
  C   C123      1.0  0.95510  0.94726  0.22520  1.0000
  C   C124      1.0  0.54490  0.94726  0.77480  1.0000
  C   C125      1.0  0.54490  0.55274  0.27480  1.0000
  C   C126      1.0  0.95510  0.55274  0.72520  1.0000
  C   C127      1.0  0.04490  0.05274  0.77480  1.0000
  C   C128      1.0  0.45510  0.05274  0.22520  1.0000
  H   H57       1.0  0.47550  0.47680  0.70370  1.0000
  H   H58       1.0  0.02450  0.47680  0.29630  1.0000
  H   H59       1.0  0.97550  0.97680  0.20370  1.0000
  H   H60       1.0  0.52450  0.97680  0.79630  1.0000
  H   H61       1.0  0.52450  0.52320  0.29630  1.0000
  H   H62       1.0  0.97550  0.52320  0.70370  1.0000
  H   H63       1.0  0.02450  0.02320  0.79630  1.0000
  H   H64       1.0  0.47550  0.02320  0.20370  1.0000
  C   C129      1.0  0.49220  0.39256  0.74120  1.0000
  C   C130      1.0  0.00780  0.39256  0.25880  1.0000
  C   C131      1.0  0.99220  0.89256  0.24120  1.0000
  C   C132      1.0  0.50780  0.89256  0.75880  1.0000
  C   C133      1.0  0.50780  0.60744  0.25880  1.0000
  C   C134      1.0  0.99220  0.60744  0.74120  1.0000
  C   C135      1.0  0.00780  0.10744  0.75880  1.0000
  C   C136      1.0  0.49220  0.10744  0.24120  1.0000
  C   C137      1.0  0.46020  0.34820  0.77240  1.0000
  C   C138      1.0  0.03980  0.34820  0.22760  1.0000
  C   C139      1.0  0.96020  0.84820  0.27240  1.0000
  C   C140      1.0  0.53980  0.84820  0.72760  1.0000
  C   C141      1.0  0.53980  0.65180  0.22760  1.0000
  C   C142      1.0  0.96020  0.65180  0.77240  1.0000
  C   C143      1.0  0.03980  0.15180  0.72760  1.0000
  C   C144      1.0  0.46020  0.15180  0.27240  1.0000
  H   H65       1.0  0.48430  0.31120  0.78340  1.0000
  H   H66       1.0  0.01570  0.31120  0.21660  1.0000
  H   H67       1.0  0.98430  0.81120  0.28340  1.0000
  H   H68       1.0  0.51570  0.81120  0.71660  1.0000
  H   H69       1.0  0.51570  0.68880  0.21660  1.0000
  H   H70       1.0  0.98430  0.68880  0.78340  1.0000
  H   H71       1.0  0.01570  0.18880  0.71660  1.0000
  H   H72       1.0  0.48430  0.18880  0.28340  1.0000
  C   C145      1.0  0.39180  0.35920  0.78730  1.0000
  C   C146      1.0  0.10820  0.35920  0.21270  1.0000
  C   C147      1.0  0.89180  0.85920  0.28730  1.0000
  C   C148      1.0  0.60820  0.85920  0.71270  1.0000
  C   C149      1.0  0.60820  0.64080  0.21270  1.0000
  C   C150      1.0  0.89180  0.64080  0.78730  1.0000
  C   C151      1.0  0.10820  0.14080  0.71270  1.0000
  C   C152      1.0  0.39180  0.14080  0.28730  1.0000
  H   H73       1.0  0.37050  0.32950  0.80790  1.0000
  H   H74       1.0  0.12950  0.32950  0.19210  1.0000
  H   H75       1.0  0.87050  0.82950  0.30790  1.0000
  H   H76       1.0  0.62950  0.82950  0.69210  1.0000
  H   H77       1.0  0.62950  0.67050  0.19210  1.0000
  H   H78       1.0  0.87050  0.67050  0.80790  1.0000
  H   H79       1.0  0.12950  0.17050  0.69210  1.0000
  H   H80       1.0  0.37050  0.17050  0.30790  1.0000
  C   C153      1.0  0.35630  0.41420  0.77120  1.0000
  C   C154      1.0  0.14370  0.41420  0.22880  1.0000
  C   C155      1.0  0.85630  0.91420  0.27120  1.0000
  C   C156      1.0  0.64370  0.91420  0.72880  1.0000
  C   C157      1.0  0.64370  0.58580  0.22880  1.0000
  C   C158      1.0  0.85630  0.58580  0.77120  1.0000
  C   C159      1.0  0.14370  0.08580  0.72880  1.0000
  C   C160      1.0  0.35630  0.08580  0.27120  1.0000
  H   H81       1.0  0.31090  0.42130  0.78100  1.0000
  H   H82       1.0  0.18910  0.42130  0.21900  1.0000
  H   H83       1.0  0.81090  0.92130  0.28100  1.0000
  H   H84       1.0  0.68910  0.92130  0.71900  1.0000
  H   H85       1.0  0.68910  0.57870  0.21900  1.0000
  H   H86       1.0  0.81090  0.57870  0.78100  1.0000
  H   H87       1.0  0.18910  0.07870  0.71900  1.0000
  H   H88       1.0  0.31090  0.07870  0.28100  1.0000
  C   C161      1.0  0.56410  0.38133  0.72530  1.0000
  C   C162      1.0  0.93590  0.38133  0.27470  1.0000
  C   C163      1.0  0.06410  0.88133  0.22530  1.0000
  C   C164      1.0  0.43590  0.88133  0.77470  1.0000
  C   C165      1.0  0.43590  0.61867  0.27470  1.0000
  C   C166      1.0  0.06410  0.61867  0.72530  1.0000
  C   C167      1.0  0.93590  0.11867  0.77470  1.0000
  C   C168      1.0  0.56410  0.11867  0.22530  1.0000
  C   C169      1.0  0.58120  0.41077  0.67110  1.0000
  C   C170      1.0  0.91880  0.41077  0.32890  1.0000
  C   C171      1.0  0.08120  0.91077  0.17110  1.0000
  C   C172      1.0  0.41880  0.91077  0.82890  1.0000
  C   C173      1.0  0.41880  0.58923  0.32890  1.0000
  C   C174      1.0  0.08120  0.58923  0.67110  1.0000
  C   C175      1.0  0.91880  0.08923  0.82890  1.0000
  C   C176      1.0  0.58120  0.08923  0.17110  1.0000
  H   H89       1.0  0.54610  0.43680  0.64320  1.0000
  H   H90       1.0  0.95390  0.43680  0.35680  1.0000
  H   H91       1.0  0.04610  0.93680  0.14320  1.0000
  H   H92       1.0  0.45390  0.93680  0.85680  1.0000
  H   H93       1.0  0.45390  0.56320  0.35680  1.0000
  H   H94       1.0  0.04610  0.56320  0.64320  1.0000
  H   H95       1.0  0.95390  0.06320  0.85680  1.0000
  H   H96       1.0  0.54610  0.06320  0.14320  1.0000
  C   C177      1.0  0.65010  0.40077  0.65960  1.0000
  C   C178      1.0  0.84990  0.40077  0.34040  1.0000
  C   C179      1.0  0.15010  0.90077  0.15960  1.0000
  C   C180      1.0  0.34990  0.90077  0.84040  1.0000
  C   C181      1.0  0.34990  0.59923  0.34040  1.0000
  C   C182      1.0  0.15010  0.59923  0.65960  1.0000
  C   C183      1.0  0.84990  0.09923  0.84040  1.0000
  C   C184      1.0  0.65010  0.09923  0.15960  1.0000
  C   C185      1.0  0.68550  0.33229  0.74730  1.0000
  C   C186      1.0  0.81450  0.33229  0.25270  1.0000
  C   C187      1.0  0.18550  0.83229  0.24730  1.0000
  C   C188      1.0  0.31450  0.83229  0.75270  1.0000
  C   C189      1.0  0.31450  0.66771  0.25270  1.0000
  C   C190      1.0  0.18550  0.66771  0.74730  1.0000
  C   C191      1.0  0.81450  0.16771  0.75270  1.0000
  C   C192      1.0  0.68550  0.16771  0.24730  1.0000
  H   H97       1.0  0.72030  0.30450  0.77240  1.0000
  H   H98       1.0  0.77970  0.30450  0.22760  1.0000
  H   H99       1.0  0.22030  0.80450  0.27240  1.0000
  H   H100      1.0  0.27970  0.80450  0.72760  1.0000
  H   H101      1.0  0.27970  0.69550  0.22760  1.0000
  H   H102      1.0  0.22030  0.69550  0.77240  1.0000
  H   H103      1.0  0.77970  0.19550  0.72760  1.0000
  H   H104      1.0  0.72030  0.19550  0.27240  1.0000
  C   C193      1.0  0.61800  0.34130  0.76310  1.0000
  C   C194      1.0  0.88200  0.34130  0.23690  1.0000
  C   C195      1.0  0.11800  0.84130  0.26310  1.0000
  C   C196      1.0  0.38200  0.84130  0.73690  1.0000
  C   C197      1.0  0.38200  0.65870  0.23690  1.0000
  C   C198      1.0  0.11800  0.65870  0.76310  1.0000
  C   C199      1.0  0.88200  0.15870  0.73690  1.0000
  C   C200      1.0  0.61800  0.15870  0.26310  1.0000
  H   H105      1.0  0.60890  0.32050  0.79910  1.0000
  H   H106      1.0  0.89110  0.32050  0.20090  1.0000
  H   H107      1.0  0.10890  0.82050  0.29910  1.0000
  H   H108      1.0  0.39110  0.82050  0.70090  1.0000
  H   H109      1.0  0.39110  0.67950  0.20090  1.0000
  H   H110      1.0  0.10890  0.67950  0.79910  1.0000
  H   H111      1.0  0.89110  0.17950  0.70090  1.0000
  H   H112      1.0  0.60890  0.17950  0.29910  1.0000
  C   C201      1.0  0.67380  0.43313  0.60440  1.0000
  C   C202      1.0  0.82620  0.43313  0.39560  1.0000
  C   C203      1.0  0.17380  0.93313  0.10440  1.0000
  C   C204      1.0  0.32620  0.93313  0.89560  1.0000
  C   C205      1.0  0.32620  0.56687  0.39560  1.0000
  C   C206      1.0  0.17380  0.56687  0.60440  1.0000
  C   C207      1.0  0.82620  0.06687  0.89560  1.0000
  C   C208      1.0  0.67380  0.06687  0.10440  1.0000
