data_image0
_chemical_formula_structural       CdBr8O10C16H4
_chemical_formula_sum              "Cd1 Br8 O10 C16 H4"
_cell_length_a       9.1676
_cell_length_b       9.8386
_cell_length_c       11.8945
_cell_angle_alpha    84.575
_cell_angle_beta     82.118
_cell_angle_gamma    76.552

_space_group_name_H-M_alt    "P 1"
_space_group_IT_number       1

loop_
  _space_group_symop_operation_xyz
  'x, y, z'

loop_
  _atom_site_type_symbol
  _atom_site_label
  _atom_site_symmetry_multiplicity
  _atom_site_fract_x
  _atom_site_fract_y
  _atom_site_fract_z
  _atom_site_occupancy
  Cd  Cd1       1.0  0.00000  0.50000  0.00000  1.0000
  Br  Br1       1.0  0.43421  0.24692  0.17759  1.0000
  Br  Br2       1.0  0.56579  0.75308  0.82241  1.0000
  Br  Br3       1.0  0.28289  0.42646  0.65140  1.0000
  Br  Br4       1.0  0.71711  0.57354  0.34860  1.0000
  Br  Br5       1.0  0.65335  0.93595  0.23634  1.0000
  Br  Br6       1.0  0.34665  0.06405  0.76366  1.0000
  Br  Br7       1.0  0.34055  0.49459  0.37177  1.0000
  Br  Br8       1.0  0.65945  0.50541  0.62823  1.0000
  O   O1        1.0  0.96430  0.54330  0.80760  1.0000
  O   O2        1.0  0.03570  0.45670  0.19240  1.0000
  O   O3        1.0  0.92880  0.33150  0.78200  1.0000
  O   O4        1.0  0.07120  0.66850  0.21800  1.0000
  O   O5        1.0  0.17280  0.29380  0.98110  1.0000
  O   O6        1.0  0.82720  0.70620  0.01890  1.0000
  O   O7        1.0  0.38060  0.36450  0.89920  1.0000
  O   O8        1.0  0.61940  0.63550  0.10080  1.0000
  O   O9        1.0  0.18750  0.62090  0.92700  1.0000
  O   O10       1.0  0.81250  0.37910  0.07300  1.0000
  C   C1        1.0  0.97610  0.47810  0.61860  1.0000
  C   C2        1.0  0.02390  0.52190  0.38140  1.0000
  C   C3        1.0  0.14420  0.49720  0.44550  1.0000
  C   C4        1.0  0.85580  0.50280  0.55450  1.0000
  C   C5        1.0  0.12020  0.47390  0.56320  1.0000
  C   C6        1.0  0.87980  0.52610  0.43680  1.0000
  C   C7        1.0  0.56540  0.97370  0.10010  1.0000
  C   C8        1.0  0.43460  0.02630  0.89990  1.0000
  C   C9        1.0  0.47330  0.10430  0.07520  1.0000
  C   C10       1.0  0.52670  0.89570  0.92480  1.0000
  C   C11       1.0  0.40830  0.13210  0.97520  1.0000
  C   C12       1.0  0.59170  0.86790  0.02480  1.0000
  C   C13       1.0  0.95430  0.44900  0.74850  1.0000
  C   C14       1.0  0.04570  0.55100  0.25150  1.0000
  C   C15       1.0  0.31310  0.27620  0.94800  1.0000
  C   C16       1.0  0.68690  0.72380  0.05200  1.0000
  H   H1        1.0  0.25200  0.54980  0.90900  1.0000
  H   H2        1.0  0.74800  0.45020  0.09100  1.0000
  H   H3        1.0  0.21900  0.65300  0.97600  1.0000
  H   H4        1.0  0.78100  0.34700  0.02400  1.0000
