data_image0
_chemical_formula_structural       C24H4C28H4C4H4C4H4C4H4C4H4C4H4C4H4C4H4C4H4C4H4C4H4C4H4C4H4C4H4C16H4C4H4Co12N4O64
_chemical_formula_sum              "C124 H68 Co12 N4 O64"
_cell_length_a       18.148
_cell_length_b       9.665
_cell_length_c       30.969
_cell_angle_alpha    90
_cell_angle_beta     90.39
_cell_angle_gamma    90

_space_group_name_H-M_alt    "P 1"
_space_group_IT_number       1

loop_
  _space_group_symop_operation_xyz
  'x, y, z'

loop_
  _atom_site_type_symbol
  _atom_site_label
  _atom_site_symmetry_multiplicity
  _atom_site_fract_x
  _atom_site_fract_y
  _atom_site_fract_z
  _atom_site_occupancy
  C   C1        1.0  0.26070  0.21840  0.22420  1.0000
  C   C2        1.0  0.73930  0.71840  0.27580  1.0000
  C   C3        1.0  0.73930  0.78160  0.77580  1.0000
  C   C4        1.0  0.26070  0.28160  0.72420  1.0000
  C   C5        1.0  0.34880  0.96740  0.32180  1.0000
  C   C6        1.0  0.65120  0.46740  0.17820  1.0000
  C   C7        1.0  0.65120  0.03260  0.67820  1.0000
  C   C8        1.0  0.34880  0.53260  0.82180  1.0000
  C   C9        1.0  0.55310  0.19180  0.31520  1.0000
  C   C10       1.0  0.44690  0.69180  0.18480  1.0000
  C   C11       1.0  0.44690  0.80820  0.68480  1.0000
  C   C12       1.0  0.55310  0.30820  0.81520  1.0000
  C   C13       1.0  0.41960  0.04750  0.32060  1.0000
  C   C14       1.0  0.58040  0.54750  0.17940  1.0000
  C   C15       1.0  0.58040  0.95250  0.67940  1.0000
  C   C16       1.0  0.41960  0.45250  0.82060  1.0000
  C   C17       1.0  0.84460  0.19500  0.31850  1.0000
  C   C18       1.0  0.15540  0.69500  0.18150  1.0000
  C   C19       1.0  0.15540  0.80500  0.68150  1.0000
  C   C20       1.0  0.84460  0.30500  0.81850  1.0000
  C   C21       1.0  0.30030  0.44570  0.24740  1.0000
  C   C22       1.0  0.69970  0.94570  0.25260  1.0000
  C   C23       1.0  0.69970  0.55430  0.75260  1.0000
  C   C24       1.0  0.30030  0.05430  0.74740  1.0000
  H   H1        1.0  0.33150  0.52130  0.24430  1.0000
  H   H2        1.0  0.66850  0.02130  0.25570  1.0000
  H   H3        1.0  0.66850  0.47870  0.75570  1.0000
  H   H4        1.0  0.33150  0.97870  0.74430  1.0000
  C   C25       1.0  0.05490  0.98730  0.31560  1.0000
  C   C26       1.0  0.94510  0.48730  0.18440  1.0000
  C   C27       1.0  0.94510  0.01270  0.68440  1.0000
  C   C28       1.0  0.05490  0.51270  0.81560  1.0000
  C   C29       1.0  0.91840  0.11940  0.31720  1.0000
  C   C30       1.0  0.08160  0.61940  0.18280  1.0000
  C   C31       1.0  0.08160  0.88060  0.68280  1.0000
  C   C32       1.0  0.91840  0.38060  0.81720  1.0000
  C   C33       1.0  0.24650  0.44740  0.27890  1.0000
  C   C34       1.0  0.75350  0.94740  0.22110  1.0000
  C   C35       1.0  0.75350  0.55260  0.72110  1.0000
  C   C36       1.0  0.24650  0.05260  0.77890  1.0000
  C   C37       1.0  0.23760  0.56610  0.30870  1.0000
  C   C38       1.0  0.76240  0.06610  0.19130  1.0000
  C   C39       1.0  0.76240  0.43390  0.69130  1.0000
  C   C40       1.0  0.23760  0.93390  0.80870  1.0000
  C   C41       1.0  0.12710  0.91340  0.31390  1.0000
  C   C42       1.0  0.87290  0.41340  0.18610  1.0000
  C   C43       1.0  0.87290  0.08660  0.68610  1.0000
  C   C44       1.0  0.12710  0.58660  0.81390  1.0000
  C   C45       1.0  0.62490  0.26500  0.31270  1.0000
  C   C46       1.0  0.37510  0.76500  0.18730  1.0000
  C   C47       1.0  0.37510  0.73500  0.68730  1.0000
  C   C48       1.0  0.62490  0.23500  0.81270  1.0000
  C   C49       1.0  0.19810  0.33160  0.28240  1.0000
  C   C50       1.0  0.80190  0.83160  0.21760  1.0000
  C   C51       1.0  0.80190  0.66840  0.71760  1.0000
  C   C52       1.0  0.19810  0.16840  0.78240  1.0000
  H   H5        1.0  0.16050  0.33210  0.30260  1.0000
  H   H6        1.0  0.83950  0.83210  0.19740  1.0000
  H   H7        1.0  0.83950  0.66790  0.69740  1.0000
  H   H8        1.0  0.16050  0.16790  0.80260  1.0000
  C   C53       1.0  0.44450  0.09750  0.28130  1.0000
  C   C54       1.0  0.55550  0.59750  0.21870  1.0000
  C   C55       1.0  0.55550  0.90250  0.71870  1.0000
  C   C56       1.0  0.44450  0.40250  0.78130  1.0000
  H   H9        1.0  0.41670  0.08300  0.25630  1.0000
  H   H10       1.0  0.58330  0.58300  0.24370  1.0000
  H   H11       1.0  0.58330  0.91700  0.74370  1.0000
  H   H12       1.0  0.41670  0.41700  0.75630  1.0000
  C   C57       1.0  0.94190  0.06000  0.28010  1.0000
  C   C58       1.0  0.05810  0.56000  0.21990  1.0000
  C   C59       1.0  0.05810  0.94000  0.71990  1.0000
  C   C60       1.0  0.94190  0.44000  0.78010  1.0000
  H   H13       1.0  0.91230  0.06350  0.25550  1.0000
  H   H14       1.0  0.08770  0.56350  0.24450  1.0000
  H   H15       1.0  0.08770  0.93650  0.74450  1.0000
  H   H16       1.0  0.91230  0.43650  0.75550  1.0000
  C   C61       1.0  0.32230  0.59490  0.55470  1.0000
  C   C62       1.0  0.67770  0.09490  0.94530  1.0000
  C   C63       1.0  0.67770  0.40510  0.44530  1.0000
  C   C64       1.0  0.32230  0.90510  0.05470  1.0000
  H   H17       1.0  0.36200  0.56000  0.57050  1.0000
  H   H18       1.0  0.63800  0.06000  0.92950  1.0000
  H   H19       1.0  0.63800  0.44000  0.42950  1.0000
  H   H20       1.0  0.36200  0.94000  0.07050  1.0000
  C   C65       1.0  0.20740  0.22020  0.25590  1.0000
  C   C66       1.0  0.79260  0.72020  0.24410  1.0000
  C   C67       1.0  0.79260  0.77980  0.74410  1.0000
  C   C68       1.0  0.20740  0.27980  0.75590  1.0000
  H   H21       1.0  0.17700  0.14350  0.25930  1.0000
  H   H22       1.0  0.82300  0.64350  0.24070  1.0000
  H   H23       1.0  0.82300  0.85650  0.74070  1.0000
  H   H24       1.0  0.17700  0.35650  0.75930  1.0000
  C   C69       1.0  0.01120  0.99260  0.27840  1.0000
  C   C70       1.0  0.98880  0.49260  0.22160  1.0000
  C   C71       1.0  0.98880  0.00740  0.72160  1.0000
  C   C72       1.0  0.01120  0.50740  0.77840  1.0000
  H   H25       1.0  0.02730  0.95250  0.25290  1.0000
  H   H26       1.0  0.97270  0.45250  0.24710  1.0000
  H   H27       1.0  0.97270  0.04750  0.74710  1.0000
  H   H28       1.0  0.02730  0.54750  0.75290  1.0000
  C   C73       1.0  0.30810  0.33280  0.22040  1.0000
  C   C74       1.0  0.69190  0.83280  0.27960  1.0000
  C   C75       1.0  0.69190  0.66720  0.77960  1.0000
  C   C76       1.0  0.30810  0.16720  0.72040  1.0000
  H   H29       1.0  0.34490  0.33250  0.19960  1.0000
  H   H30       1.0  0.65510  0.83250  0.30040  1.0000
  H   H31       1.0  0.65510  0.66750  0.80040  1.0000
  H   H32       1.0  0.34490  0.16750  0.69960  1.0000
  C   C77       1.0  0.51060  0.16910  0.27900  1.0000
  C   C78       1.0  0.48940  0.66910  0.22100  1.0000
  C   C79       1.0  0.48940  0.83090  0.72100  1.0000
  C   C80       1.0  0.51060  0.33090  0.77900  1.0000
  H   H33       1.0  0.52650  0.20220  0.25240  1.0000
  H   H34       1.0  0.47350  0.70220  0.24760  1.0000
  H   H35       1.0  0.47350  0.79780  0.74760  1.0000
  H   H36       1.0  0.52650  0.29780  0.75240  1.0000
  C   C81       1.0  0.46130  0.07260  0.35680  1.0000
  C   C82       1.0  0.53870  0.57260  0.14320  1.0000
  C   C83       1.0  0.53870  0.92740  0.64320  1.0000
  C   C84       1.0  0.46130  0.42740  0.85680  1.0000
  H   H37       1.0  0.44510  0.03850  0.38320  1.0000
  H   H38       1.0  0.55490  0.53850  0.11680  1.0000
  H   H39       1.0  0.55490  0.96150  0.61680  1.0000
  H   H40       1.0  0.44510  0.46150  0.88320  1.0000
  C   C85       1.0  0.96220  0.11370  0.35430  1.0000
  C   C86       1.0  0.03780  0.61370  0.14570  1.0000
  C   C87       1.0  0.03780  0.88630  0.64570  1.0000
  C   C88       1.0  0.96220  0.38630  0.85430  1.0000
  H   H41       1.0  0.94630  0.15440  0.37970  1.0000
  H   H42       1.0  0.05370  0.65440  0.12030  1.0000
  H   H43       1.0  0.05370  0.84560  0.62030  1.0000
  H   H44       1.0  0.94630  0.34560  0.87970  1.0000
  C   C89       1.0  0.21550  0.70270  0.50780  1.0000
  C   C90       1.0  0.78450  0.20270  0.99220  1.0000
  C   C91       1.0  0.78450  0.29730  0.49220  1.0000
  C   C92       1.0  0.21550  0.79730  0.00780  1.0000
  H   H45       1.0  0.17640  0.74110  0.49240  1.0000
  H   H46       1.0  0.82360  0.24110  0.00760  1.0000
  H   H47       1.0  0.82360  0.25890  0.50760  1.0000
  H   H48       1.0  0.17640  0.75890  0.99240  1.0000
  C   C93       1.0  0.20960  0.68500  0.55210  1.0000
  C   C94       1.0  0.79040  0.18500  0.94790  1.0000
  C   C95       1.0  0.79040  0.31500  0.44790  1.0000
  C   C96       1.0  0.20960  0.81500  0.05210  1.0000
  H   H49       1.0  0.16740  0.71550  0.56610  1.0000
  H   H50       1.0  0.83260  0.21550  0.93390  1.0000
  H   H51       1.0  0.83260  0.28450  0.43390  1.0000
  H   H52       1.0  0.16740  0.78450  0.06610  1.0000
  C   C97       1.0  0.02990  0.04690  0.35300  1.0000
  C   C98       1.0  0.97010  0.54690  0.14700  1.0000
  C   C99       1.0  0.97010  0.95310  0.64700  1.0000
  C   C100      1.0  0.02990  0.45310  0.85300  1.0000
  H   H53       1.0  0.05880  0.04240  0.37790  1.0000
  H   H54       1.0  0.94120  0.54240  0.12210  1.0000
  H   H55       1.0  0.94120  0.95760  0.62210  1.0000
  H   H56       1.0  0.05880  0.45760  0.87790  1.0000
  C   C101      1.0  0.52490  0.14510  0.35570  1.0000
  C   C102      1.0  0.47510  0.64510  0.14430  1.0000
  C   C103      1.0  0.47510  0.85490  0.64430  1.0000
  C   C104      1.0  0.52490  0.35490  0.85570  1.0000
  H   H57       1.0  0.55040  0.16440  0.38120  1.0000
  H   H58       1.0  0.44960  0.66440  0.11880  1.0000
  H   H59       1.0  0.44960  0.83560  0.61880  1.0000
  H   H60       1.0  0.55040  0.33560  0.88120  1.0000
  C   C105      1.0  0.26690  0.09890  0.19490  1.0000
  C   C106      1.0  0.73310  0.59890  0.30510  1.0000
  C   C107      1.0  0.73310  0.90110  0.80510  1.0000
  C   C108      1.0  0.26690  0.40110  0.69490  1.0000
  C   C109      1.0  0.27690  0.66540  0.48670  1.0000
  C   C110      1.0  0.72310  0.16540  0.01330  1.0000
  C   C111      1.0  0.72310  0.33460  0.51330  1.0000
  C   C112      1.0  0.27690  0.83460  0.98670  1.0000
  C   C113      1.0  0.28390  0.68970  0.43910  1.0000
  C   C114      1.0  0.71610  0.18970  0.06090  1.0000
  C   C115      1.0  0.71610  0.31030  0.56090  1.0000
  C   C116      1.0  0.28390  0.81030  0.93910  1.0000
  C   C117      1.0  0.32990  0.61160  0.51120  1.0000
  C   C118      1.0  0.67010  0.11160  0.98880  1.0000
  C   C119      1.0  0.67010  0.38840  0.48880  1.0000
  C   C120      1.0  0.32990  0.88840  0.01120  1.0000
  H   H61       1.0  0.37370  0.58430  0.49830  1.0000
  H   H62       1.0  0.62630  0.08430  0.00170  1.0000
  H   H63       1.0  0.62630  0.41570  0.50170  1.0000
  H   H64       1.0  0.37370  0.91570  0.99830  1.0000
  C   C121      1.0  0.90250  0.52550  0.36450  1.0000
  C   C122      1.0  0.09750  0.02550  0.13550  1.0000
  C   C123      1.0  0.09750  0.47450  0.63550  1.0000
  C   C124      1.0  0.90250  0.97450  0.86450  1.0000
  H   H65       1.0  0.91180  0.43410  0.35700  1.0000
  H   H66       1.0  0.08820  0.93410  0.14300  1.0000
  H   H67       1.0  0.08820  0.56590  0.64300  1.0000
  H   H68       1.0  0.91180  0.06590  0.85700  1.0000
  Co  Co1       1.0  0.24838  0.77783  0.35853  1.0000
  Co  Co2       1.0  0.75162  0.27783  0.14147  1.0000
  Co  Co3       1.0  0.75162  0.22217  0.64147  1.0000
  Co  Co4       1.0  0.24838  0.72217  0.85853  1.0000
  Co  Co5       1.0  0.75078  0.40284  0.35836  1.0000
  Co  Co6       1.0  0.24922  0.90284  0.14164  1.0000
  Co  Co7       1.0  0.24922  0.59716  0.64164  1.0000
  Co  Co8       1.0  0.75078  0.09716  0.85836  1.0000
  Co  Co9       1.0  0.25145  0.83180  0.25126  1.0000
  Co  Co10      1.0  0.74855  0.33180  0.24874  1.0000
  Co  Co11      1.0  0.74855  0.16820  0.74874  1.0000
  Co  Co12      1.0  0.25145  0.66820  0.75126  1.0000
  N   N1        1.0  0.26300  0.62520  0.57475  1.0000
  N   N2        1.0  0.73700  0.12520  0.92525  1.0000
  N   N3        1.0  0.73700  0.37480  0.42525  1.0000
  N   N4        1.0  0.26300  0.87480  0.07475  1.0000
  O   O1        1.0  0.30920  0.96900  0.28938  1.0000
  O   O2        1.0  0.69080  0.46900  0.21062  1.0000
  O   O3        1.0  0.69080  0.03100  0.71062  1.0000
  O   O4        1.0  0.30920  0.53100  0.78938  1.0000
  O   O5        1.0  0.65600  0.29760  0.34786  1.0000
  O   O6        1.0  0.34400  0.79760  0.15214  1.0000
  O   O7        1.0  0.34400  0.70240  0.65214  1.0000
  O   O8        1.0  0.65600  0.20240  0.84786  1.0000
  O   O9        1.0  0.15060  0.88300  0.27787  1.0000
  O   O10       1.0  0.84940  0.38300  0.22213  1.0000
  O   O11       1.0  0.84940  0.11700  0.72213  1.0000
  O   O12       1.0  0.15060  0.61700  0.77787  1.0000
  O   O13       1.0  0.33550  0.90230  0.35632  1.0000
  O   O14       1.0  0.66450  0.40230  0.14368  1.0000
  O   O15       1.0  0.66450  0.09770  0.64368  1.0000
  O   O16       1.0  0.33550  0.59770  0.85632  1.0000
  O   O17       1.0  0.80750  0.19220  0.28470  1.0000
  O   O18       1.0  0.19250  0.69220  0.21530  1.0000
  O   O19       1.0  0.19250  0.80780  0.71530  1.0000
  O   O20       1.0  0.80750  0.30780  0.78470  1.0000
  O   O21       1.0  0.64870  0.28250  0.27541  1.0000
  O   O22       1.0  0.35130  0.78250  0.22459  1.0000
  O   O23       1.0  0.35130  0.71750  0.72459  1.0000
  O   O24       1.0  0.64870  0.21750  0.77541  1.0000
  O   O25       1.0  0.15760  0.88660  0.34995  1.0000
  O   O26       1.0  0.84240  0.38660  0.15005  1.0000
  O   O27       1.0  0.84240  0.11340  0.65005  1.0000
  O   O28       1.0  0.15760  0.61340  0.84995  1.0000
  O   O29       1.0  0.82780  0.25310  0.35283  1.0000
  O   O30       1.0  0.17220  0.75310  0.14717  1.0000
  O   O31       1.0  0.17220  0.74690  0.64717  1.0000
  O   O32       1.0  0.82780  0.24690  0.85283  1.0000
  O   O33       1.0  0.27200  0.67750  0.30146  1.0000
  O   O34       1.0  0.72800  0.17750  0.19854  1.0000
  O   O35       1.0  0.72800  0.32250  0.69854  1.0000
  O   O36       1.0  0.27200  0.82250  0.80146  1.0000
  O   O37       1.0  0.23380  0.98670  0.20392  1.0000
  O   O38       1.0  0.76620  0.48670  0.29608  1.0000
  O   O39       1.0  0.76620  0.01330  0.79608  1.0000
  O   O40       1.0  0.23380  0.51330  0.70392  1.0000
  O   O41       1.0  0.30190  0.10850  0.16067  1.0000
  O   O42       1.0  0.69810  0.60850  0.33933  1.0000
  O   O43       1.0  0.69810  0.89150  0.83933  1.0000
  O   O44       1.0  0.30190  0.39150  0.66067  1.0000
  O   O45       1.0  0.19860  0.55810  0.34090  1.0000
  O   O46       1.0  0.80140  0.05810  0.15910  1.0000
  O   O47       1.0  0.80140  0.44190  0.65910  1.0000
  O   O48       1.0  0.19860  0.94190  0.84090  1.0000
  O   O49       1.0  0.23320  0.75260  0.42096  1.0000
  O   O50       1.0  0.76680  0.25260  0.07904  1.0000
  O   O51       1.0  0.76680  0.24740  0.57904  1.0000
  O   O52       1.0  0.23320  0.74740  0.92096  1.0000
  O   O53       1.0  0.33530  0.64390  0.41910  1.0000
  O   O54       1.0  0.66470  0.14390  0.08090  1.0000
  O   O55       1.0  0.66470  0.35610  0.58090  1.0000
  O   O56       1.0  0.33530  0.85610  0.91910  1.0000
  O   O57       1.0  0.95740  0.59750  0.35880  1.0000
  O   O58       1.0  0.04260  0.09750  0.14120  1.0000
  O   O59       1.0  0.04260  0.40250  0.64120  1.0000
  O   O60       1.0  0.95740  0.90250  0.85880  1.0000
  O   O61       1.0  0.84140  0.53820  0.37680  1.0000
  O   O62       1.0  0.15860  0.03820  0.12320  1.0000
  O   O63       1.0  0.15860  0.46180  0.62320  1.0000
  O   O64       1.0  0.84140  0.96180  0.87680  1.0000
