data_image0
_chemical_formula_structural       C6H2C2H2C4H2C2H2C6H2C2H2C4H2C2H2C6H2C2H2C4H2C2H2C12H2C2H2C4H2C2H2C6H2C2H2C4H2C2H2C6H2C2H2C4H2C2H2C10H6C2H6C2H6C4H6C2H6C2H6Ca5N16O28
_chemical_formula_sum              "C112 H84 Ca5 N16 O28"
_cell_length_a       17.0982
_cell_length_b       17.2327
_cell_length_c       17.9411
_cell_angle_alpha    93.378
_cell_angle_beta     113.121
_cell_angle_gamma    118.414

_space_group_name_H-M_alt    "P 1"
_space_group_IT_number       1

loop_
  _space_group_symop_operation_xyz
  'x, y, z'

loop_
  _atom_site_type_symbol
  _atom_site_label
  _atom_site_symmetry_multiplicity
  _atom_site_fract_x
  _atom_site_fract_y
  _atom_site_fract_z
  _atom_site_occupancy
  C   C1        1.0  0.05760  0.53230  0.21150  1.0000
  C   C2        1.0  0.94240  0.46770  0.78850  1.0000
  C   C3        1.0  0.15950  0.61620  0.27380  1.0000
  C   C4        1.0  0.84050  0.38380  0.72620  1.0000
  C   C5        1.0  0.18370  0.64670  0.35810  1.0000
  C   C6        1.0  0.81630  0.35330  0.64190  1.0000
  H   H1        1.0  0.13580  0.61600  0.37590  1.0000
  H   H2        1.0  0.86420  0.38400  0.62410  1.0000
  C   C7        1.0  0.27800  0.72190  0.41480  1.0000
  C   C8        1.0  0.72200  0.27810  0.58520  1.0000
  H   H3        1.0  0.29350  0.74100  0.47110  1.0000
  H   H4        1.0  0.70650  0.25900  0.52890  1.0000
  C   C9        1.0  0.35050  0.76980  0.39020  1.0000
  C   C10       1.0  0.64950  0.23020  0.60980  1.0000
  C   C11       1.0  0.32600  0.73920  0.30620  1.0000
  C   C12       1.0  0.67400  0.26080  0.69380  1.0000
  H   H5        1.0  0.37350  0.77010  0.28810  1.0000
  H   H6        1.0  0.62650  0.22990  0.71190  1.0000
  C   C13       1.0  0.23150  0.66330  0.24950  1.0000
  C   C14       1.0  0.76850  0.33670  0.75050  1.0000
  H   H7        1.0  0.21620  0.64360  0.19350  1.0000
  H   H8        1.0  0.78380  0.35640  0.80650  1.0000
  C   C15       1.0  0.85920  0.19870  0.34180  1.0000
  C   C16       1.0  0.14080  0.80130  0.65820  1.0000
  C   C17       1.0  0.79530  0.13560  0.37670  1.0000
  C   C18       1.0  0.20470  0.86440  0.62330  1.0000
  C   C19       1.0  0.70640  0.05250  0.32510  1.0000
  C   C20       1.0  0.29360  0.94750  0.67490  1.0000
  H   H9        1.0  0.68680  0.03290  0.26780  1.0000
  H   H10       1.0  0.31320  0.96710  0.73220  1.0000
  C   C21       1.0  0.64590  0.99770  0.35720  1.0000
  C   C22       1.0  0.35410  0.00230  0.64280  1.0000
  H   H11       1.0  0.58680  0.94090  0.32180  1.0000
  H   H12       1.0  0.41320  0.05910  0.67820  1.0000
  C   C23       1.0  0.67240  0.02670  0.44240  1.0000
  C   C24       1.0  0.32760  0.97330  0.55760  1.0000
  C   C25       1.0  0.76190  0.10930  0.49430  1.0000
  C   C26       1.0  0.23810  0.89070  0.50570  1.0000
  H   H13       1.0  0.78150  0.12880  0.55170  1.0000
  H   H14       1.0  0.21850  0.87120  0.44830  1.0000
  C   C27       1.0  0.82290  0.16350  0.46210  1.0000
  C   C28       1.0  0.17710  0.83650  0.53790  1.0000
  H   H15       1.0  0.88330  0.21930  0.49800  1.0000
  H   H16       1.0  0.11670  0.78070  0.50200  1.0000
  C   C29       1.0  0.68020  0.07180  0.93715  1.0000
  C   C30       1.0  0.31980  0.92820  0.06285  1.0000
  C   C31       1.0  0.64900  0.04180  0.84421  1.0000
  C   C32       1.0  0.35100  0.95820  0.15579  1.0000
  C   C33       1.0  0.71760  0.08490  0.81480  1.0000
  C   C34       1.0  0.28240  0.91510  0.18520  1.0000
  H   H17       1.0  0.78330  0.13350  0.85290  1.0000
  H   H18       1.0  0.21670  0.86650  0.14710  1.0000
  C   C35       1.0  0.69050  0.05730  0.73010  1.0000
  C   C36       1.0  0.30950  0.94270  0.26990  1.0000
  H   H19       1.0  0.73730  0.08810  0.71140  1.0000
  H   H20       1.0  0.26270  0.91190  0.28860  1.0000
  C   C37       1.0  0.59340  0.98380  0.67294  1.0000
  C   C38       1.0  0.40660  0.01620  0.32706  1.0000
  C   C39       1.0  0.52370  0.94060  0.70207  1.0000
  C   C40       1.0  0.47630  0.05940  0.29793  1.0000
  H   H21       1.0  0.45800  0.89200  0.66400  1.0000
  H   H22       1.0  0.54200  0.10800  0.33600  1.0000
  C   C41       1.0  0.55100  0.96870  0.78613  1.0000
  C   C42       1.0  0.44900  0.03130  0.21387  1.0000
  H   H23       1.0  0.50370  0.93890  0.80470  1.0000
  H   H24       1.0  0.49630  0.06110  0.19530  1.0000
  C   C43       1.0  0.45100  0.85160  0.45033  1.0000
  C   C44       1.0  0.54900  0.14840  0.54967  1.0000
  C   C45       1.0  0.60310  0.97100  0.47518  1.0000
  C   C46       1.0  0.39690  0.02900  0.52482  1.0000
  C   C47       1.0  0.56460  0.95240  0.58205  1.0000
  C   C48       1.0  0.43540  0.04760  0.41795  1.0000
  C   C49       1.0  0.63840  0.92030  0.11470  1.0000
  C   C50       1.0  0.36160  0.07970  0.88530  1.0000
  C   C51       1.0  0.59670  0.82230  0.11980  1.0000
  C   C52       1.0  0.40330  0.17770  0.88020  1.0000
  C   C53       1.0  0.50440  0.77370  0.11960  1.0000
  C   C54       1.0  0.49560  0.22630  0.88040  1.0000
  H   H25       1.0  0.46890  0.80160  0.11730  1.0000
  H   H26       1.0  0.53110  0.19840  0.88270  1.0000
  C   C55       1.0  0.46550  0.68400  0.12280  1.0000
  C   C56       1.0  0.53450  0.31600  0.87720  1.0000
  H   H27       1.0  0.40350  0.65180  0.12230  1.0000
  H   H28       1.0  0.59650  0.34820  0.87770  1.0000
  C   C57       1.0  0.51680  0.64090  0.12670  1.0000
  C   C58       1.0  0.48320  0.35910  0.87330  1.0000
  C   C59       1.0  0.60800  0.68910  0.12620  1.0000
  C   C60       1.0  0.39200  0.31090  0.87380  1.0000
  H   H29       1.0  0.64300  0.66080  0.12720  1.0000
  H   H30       1.0  0.35700  0.33920  0.87280  1.0000
  C   C61       1.0  0.64750  0.77980  0.12410  1.0000
  C   C62       1.0  0.35250  0.22020  0.87590  1.0000
  H   H31       1.0  0.71010  0.81240  0.12560  1.0000
  H   H32       1.0  0.28990  0.18760  0.87440  1.0000
  C   C63       1.0  0.68538  0.23006  0.12526  1.0000
  C   C64       1.0  0.31462  0.76994  0.87474  1.0000
  C   C65       1.0  0.63278  0.27922  0.12725  1.0000
  C   C66       1.0  0.36722  0.72078  0.87275  1.0000
  C   C67       1.0  0.68510  0.37520  0.14860  1.0000
  C   C68       1.0  0.31490  0.62480  0.85140  1.0000
  H   H33       1.0  0.75310  0.40930  0.16250  1.0000
  H   H34       1.0  0.24690  0.59070  0.83750  1.0000
  C   C69       1.0  0.63670  0.42030  0.14940  1.0000
  C   C70       1.0  0.36330  0.57970  0.85060  1.0000
  H   H35       1.0  0.67210  0.48460  0.16350  1.0000
  H   H36       1.0  0.32790  0.51540  0.83650  1.0000
  C   C71       1.0  0.53490  0.36970  0.12900  1.0000
  C   C72       1.0  0.46510  0.63030  0.87100  1.0000
  C   C73       1.0  0.48360  0.27420  0.11020  1.0000
  C   C74       1.0  0.51640  0.72580  0.88980  1.0000
  H   H37       1.0  0.41680  0.24040  0.09970  1.0000
  H   H38       1.0  0.58320  0.75960  0.90030  1.0000
  C   C75       1.0  0.53140  0.22887  0.10710  1.0000
  C   C76       1.0  0.46860  0.77113  0.89290  1.0000
  H   H39       1.0  0.49550  0.16450  0.09150  1.0000
  H   H40       1.0  0.50450  0.83550  0.90850  1.0000
  C   C77       1.0  0.97850  0.22080  0.15300  1.0000
  C   C78       1.0  0.02150  0.77920  0.84700  1.0000
  C   C79       1.0  0.07760  0.27220  0.15100  1.0000
  C   C80       1.0  0.92240  0.72780  0.84900  1.0000
  C   C81       1.0  0.11470  0.22430  0.12890  1.0000
  C   C82       1.0  0.88530  0.77570  0.87110  1.0000
  H   H41       1.0  0.07870  0.16010  0.11560  1.0000
  H   H42       1.0  0.92130  0.83990  0.88440  1.0000
  C   C83       1.0  0.20480  0.27070  0.12620  1.0000
  C   C84       1.0  0.79520  0.72930  0.87380  1.0000
  H   H43       1.0  0.23070  0.23790  0.11380  1.0000
  H   H44       1.0  0.76930  0.76210  0.88620  1.0000
  C   C85       1.0  0.25690  0.36580  0.14170  1.0000
  C   C86       1.0  0.74310  0.63420  0.85830  1.0000
  C   C87       1.0  0.21950  0.41360  0.16270  1.0000
  C   C88       1.0  0.78050  0.58640  0.83730  1.0000
  H   H45       1.0  0.25410  0.47760  0.17360  1.0000
  H   H46       1.0  0.74590  0.52240  0.82640  1.0000
  C   C89       1.0  0.12990  0.36700  0.16770  1.0000
  C   C90       1.0  0.87010  0.63300  0.83230  1.0000
  H   H47       1.0  0.10540  0.40000  0.18230  1.0000
  H   H48       1.0  0.89460  0.60000  0.81770  1.0000
  C   C91       1.0  0.47410  0.54420  0.13030  1.0000
  C   C92       1.0  0.52590  0.45580  0.86970  1.0000
  C   C93       1.0  0.48240  0.41740  0.13060  1.0000
  C   C94       1.0  0.51760  0.58260  0.86940  1.0000
  C   C95       1.0  0.35200  0.41510  0.13570  1.0000
  C   C96       1.0  0.64800  0.58490  0.86430  1.0000
  C   C97       1.0  0.17460  0.37310  0.37330  1.0000
  C   C98       1.0  0.82540  0.62690  0.62670  1.0000
  C   C99       1.0  0.13090  0.26770  0.37310  1.0000
  C   C100      1.0  0.86910  0.73230  0.62690  1.0000
  H   H49       1.0  0.14800  0.23930  0.33970  1.0000
  H   H50       1.0  0.85200  0.76070  0.66030  1.0000
  H   H51       1.0  0.05860  0.23470  0.34910  1.0000
  H   H52       1.0  0.94140  0.76530  0.65090  1.0000
  H   H53       1.0  0.16000  0.26590  0.43040  1.0000
  H   H54       1.0  0.84000  0.73410  0.56960  1.0000
  C   C101      1.0  0.30190  0.51840  0.39280  1.0000
  C   C102      1.0  0.69810  0.48160  0.60720  1.0000
  H   H55       1.0  0.30350  0.52270  0.34030  1.0000
  H   H56       1.0  0.69650  0.47730  0.65970  1.0000
  H   H57       1.0  0.36850  0.56070  0.43970  1.0000
  H   H58       1.0  0.63150  0.43930  0.56030  1.0000
  H   H59       1.0  0.25580  0.53370  0.39590  1.0000
  H   H60       1.0  0.74420  0.46630  0.60410  1.0000
  C   C103      1.0  0.33160  0.38510  0.41450  1.0000
  C   C104      1.0  0.66840  0.61490  0.58550  1.0000
  H   H61       1.0  0.36640  0.39540  0.47460  1.0000
  H   H62       1.0  0.63360  0.60460  0.52540  1.0000
  H   H63       1.0  0.38030  0.41460  0.39500  1.0000
  H   H64       1.0  0.61970  0.58540  0.60500  1.0000
  H   H65       1.0  0.28940  0.31980  0.38550  1.0000
  H   H66       1.0  0.71060  0.68020  0.61450  1.0000
  C   C105      1.0  0.87270  0.45760  0.37800  1.0000
  C   C106      1.0  0.12730  0.54240  0.62200  1.0000
  C   C107      1.0  0.93970  0.56440  0.40570  1.0000
  C   C108      1.0  0.06030  0.43560  0.59430  1.0000
  H   H67       1.0  0.96530  0.58360  0.36670  1.0000
  H   H68       1.0  0.03470  0.41640  0.63330  1.0000
  H   H69       1.0  0.99530  0.58660  0.46190  1.0000
  H   H70       1.0  0.00470  0.41340  0.53810  1.0000
  H   H71       1.0  0.90010  0.58930  0.40590  1.0000
  H   H72       1.0  0.09990  0.41070  0.59410  1.0000
  C   C109      1.0  0.72420  0.32090  0.35690  1.0000
  C   C110      1.0  0.27580  0.67910  0.64310  1.0000
  H   H73       1.0  0.66460  0.30410  0.30560  1.0000
  H   H74       1.0  0.33540  0.69590  0.69440  1.0000
  H   H75       1.0  0.70530  0.29810  0.39860  1.0000
  H   H76       1.0  0.29470  0.70190  0.60140  1.0000
  H   H77       1.0  0.75780  0.29420  0.34510  1.0000
  H   H78       1.0  0.24220  0.70580  0.65490  1.0000
  C   C111      1.0  0.77610  0.48370  0.43930  1.0000
  C   C112      1.0  0.22390  0.51630  0.56070  1.0000
  H   H79       1.0  0.82890  0.51440  0.49730  1.0000
  H   H80       1.0  0.17110  0.48560  0.50270  1.0000
  H   H81       1.0  0.71320  0.44070  0.43770  1.0000
  H   H82       1.0  0.28680  0.55930  0.56230  1.0000
  H   H83       1.0  0.76970  0.52880  0.41290  1.0000
  H   H84       1.0  0.23030  0.47120  0.58710  1.0000
  Ca  Ca1       1.0  0.94332  0.34859  0.27667  1.0000
  Ca  Ca2       1.0  0.05668  0.65141  0.72333  1.0000
  Ca  Ca3       1.0  0.77319  0.11790  0.12102  1.0000
  Ca  Ca4       1.0  0.22681  0.88210  0.87898  1.0000
  Ca  Ca5       1.0  0.50000  0.00000  0.00000  1.0000
  N   N1        1.0  0.51390  0.89600  0.41948  1.0000
  N   N2        1.0  0.48610  0.10400  0.58052  1.0000
  N   N3        1.0  0.63300  0.00244  0.55749  1.0000
  N   N4        1.0  0.36700  0.99756  0.44251  1.0000
  N   N5        1.0  0.47180  0.87740  0.53130  1.0000
  N   N6        1.0  0.52820  0.12260  0.46870  1.0000
  N   N7        1.0  0.52520  0.50492  0.12850  1.0000
  N   N8        1.0  0.47480  0.49508  0.87150  1.0000
  N   N9        1.0  0.39580  0.36932  0.13380  1.0000
  N   N10       1.0  0.60420  0.63068  0.86620  1.0000
  N   N11       1.0  0.38760  0.50256  0.13430  1.0000
  N   N12       1.0  0.61240  0.49744  0.86570  1.0000
  N   N13       1.0  0.26810  0.42440  0.39670  1.0000
  N   N14       1.0  0.73190  0.57560  0.60330  1.0000
  N   N15       1.0  0.80100  0.43410  0.39360  1.0000
  N   N16       1.0  0.19900  0.56590  0.60640  1.0000
  O   O1        1.0  0.00190  0.48035  0.23822  1.0000
  O   O2        1.0  0.99810  0.51965  0.76178  1.0000
  O   O3        1.0  0.03670  0.51850  0.13461  1.0000
  O   O4        1.0  0.96330  0.48150  0.86539  1.0000
  O   O5        1.0  0.83115  0.17420  0.26410  1.0000
  O   O6        1.0  0.16885  0.82580  0.73590  1.0000
  O   O7        1.0  0.93620  0.27450  0.38971  1.0000
  O   O8        1.0  0.06380  0.72550  0.61029  1.0000
  O   O9        1.0  0.76389  0.14311  0.98569  1.0000
  O   O10       1.0  0.23611  0.85689  0.01431  1.0000
  O   O11       1.0  0.62104  0.02116  0.96290  1.0000
  O   O12       1.0  0.37896  0.97884  0.03710  1.0000
  O   O13       1.0  0.58290  0.95061  0.10007  1.0000
  O   O14       1.0  0.41710  0.04939  0.89993  1.0000
  O   O15       1.0  0.72710  0.96606  0.12580  1.0000
  O   O16       1.0  0.27290  0.03394  0.87420  1.0000
  O   O17       1.0  0.77852  0.27712  0.14976  1.0000
  O   O18       1.0  0.22148  0.72288  0.85024  1.0000
  O   O19       1.0  0.63371  0.14378  0.09825  1.0000
  O   O20       1.0  0.36629  0.85622  0.90175  1.0000
  O   O21       1.0  0.93311  0.13586  0.13920  1.0000
  O   O22       1.0  0.06689  0.86414  0.86080  1.0000
  O   O23       1.0  0.94334  0.26713  0.16613  1.0000
  O   O24       1.0  0.05666  0.73287  0.83387  1.0000
  O   O25       1.0  0.11340  0.39630  0.35294  1.0000
  O   O26       1.0  0.88660  0.60370  0.64706  1.0000
  O   O27       1.0  0.88260  0.40840  0.33840  1.0000
  O   O28       1.0  0.11740  0.59160  0.66160  1.0000
