data_image0
_chemical_formula_structural       U4O32C4H4C2H4C6H4C2H4C4H4C4H4C2
_chemical_formula_sum              "U4 O32 C24 H24"
_cell_length_a       7.5253
_cell_length_b       17.1493
_cell_length_c       25.8466
_cell_angle_alpha    90
_cell_angle_beta     93.657
_cell_angle_gamma    90

_space_group_name_H-M_alt    "P 1"
_space_group_IT_number       1

loop_
  _space_group_symop_operation_xyz
  'x, y, z'

loop_
  _atom_site_type_symbol
  _atom_site_label
  _atom_site_symmetry_multiplicity
  _atom_site_fract_x
  _atom_site_fract_y
  _atom_site_fract_z
  _atom_site_occupancy
  U   U1        1.0  0.10035  0.16683  0.57032  1.0000
  U   U2        1.0  0.89965  0.66683  0.42968  1.0000
  U   U3        1.0  0.41276  0.14988  0.92899  1.0000
  U   U4        1.0  0.58724  0.64988  0.07101  1.0000
  O   O1        1.0  0.33200  0.17730  0.56470  1.0000
  O   O2        1.0  0.66800  0.67730  0.43530  1.0000
  O   O3        1.0  0.86940  0.15480  0.57620  1.0000
  O   O4        1.0  0.13060  0.65480  0.42380  1.0000
  O   O5        1.0  0.64270  0.14150  0.92420  1.0000
  O   O6        1.0  0.35730  0.64150  0.07580  1.0000
  O   O7        1.0  0.17680  0.15600  0.93390  1.0000
  O   O8        1.0  0.82320  0.65600  0.06610  1.0000
  O   O9        1.0  0.17640  0.11560  0.65880  1.0000
  O   O10       1.0  0.82360  0.61560  0.34120  1.0000
  O   O11       1.0  0.12400  0.24160  0.65300  1.0000
  O   O12       1.0  0.87600  0.74160  0.34700  1.0000
  O   O13       1.0  0.36300  0.07960  0.84610  1.0000
  O   O14       1.0  0.63700  0.57960  0.15390  1.0000
  O   O15       1.0  0.38420  0.20840  0.84080  1.0000
  O   O16       1.0  0.61580  0.70840  0.15920  1.0000
  O   O17       1.0  0.07790  0.08160  0.49380  1.0000
  O   O18       1.0  0.92210  0.58160  0.50620  1.0000
  O   O19       1.0  0.12000  0.02160  0.56840  1.0000
  O   O20       1.0  0.88000  0.52160  0.43160  1.0000
  O   O21       1.0  0.95180  0.80840  0.43990  1.0000
  O   O22       1.0  0.04820  0.30840  0.56010  1.0000
  O   O23       1.0  0.96160  0.73930  0.51120  1.0000
  O   O24       1.0  0.03840  0.23930  0.48880  1.0000
  O   O25       1.0  0.39770  0.00730  0.93850  1.0000
  O   O26       1.0  0.60230  0.50730  0.06150  1.0000
  O   O27       1.0  0.44270  0.07470  0.01040  1.0000
  O   O28       1.0  0.55730  0.57470  0.98960  1.0000
  O   O29       1.0  0.53980  0.73000  0.99400  1.0000
  O   O30       1.0  0.46020  0.23000  0.00600  1.0000
  O   O31       1.0  0.55690  0.79420  0.06810  1.0000
  O   O32       1.0  0.44310  0.29420  0.93190  1.0000
  C   C1        1.0  0.16700  0.18100  0.67950  1.0000
  C   C2        1.0  0.83300  0.68100  0.32050  1.0000
  C   C3        1.0  0.21200  0.19120  0.73870  1.0000
  C   C4        1.0  0.78800  0.69120  0.26130  1.0000
  H   H1        1.0  0.25660  0.24490  0.74530  1.0000
  H   H2        1.0  0.74340  0.74490  0.25470  1.0000
  H   H3        1.0  0.10150  0.18490  0.75700  1.0000
  H   H4        1.0  0.89850  0.68490  0.24300  1.0000
  C   C5        1.0  0.34600  0.13560  0.76030  1.0000
  C   C6        1.0  0.65400  0.63560  0.23970  1.0000
  H   H5        1.0  0.46240  0.14670  0.74620  1.0000
  H   H6        1.0  0.53760  0.64670  0.25380  1.0000
  H   H7        1.0  0.31030  0.08190  0.75000  1.0000
  H   H8        1.0  0.68970  0.58190  0.25000  1.0000
  C   C7        1.0  0.36300  0.14160  0.81910  1.0000
  C   C8        1.0  0.63700  0.64160  0.18090  1.0000
  C   C9        1.0  0.09700  0.02060  0.51990  1.0000
  C   C10       1.0  0.90300  0.52060  0.48010  1.0000
  C   C11       1.0  0.09100  0.94170  0.49170  1.0000
  C   C12       1.0  0.90900  0.44170  0.50830  1.0000
  H   H9        1.0  0.21450  0.92440  0.48690  1.0000
  H   H10       1.0  0.78550  0.42440  0.51310  1.0000
  H   H11       1.0  0.03040  0.94860  0.45690  1.0000
  H   H12       1.0  0.96960  0.44860  0.54310  1.0000
  C   C13       1.0  0.99400  0.87800  0.52080  1.0000
  C   C14       1.0  0.00600  0.37800  0.47920  1.0000
  H   H13       1.0  0.06440  0.86580  0.55360  1.0000
  H   H14       1.0  0.93560  0.36580  0.44640  1.0000
  H   H15       1.0  0.87700  0.89810  0.52990  1.0000
  H   H16       1.0  0.12300  0.39810  0.47010  1.0000
  C   C15       1.0  0.96800  0.80600  0.49020  1.0000
  C   C16       1.0  0.03200  0.30600  0.50980  1.0000
  C   C17       1.0  0.42900  0.93490  0.01790  1.0000
  C   C18       1.0  0.57100  0.43490  0.98210  1.0000
  H   H17       1.0  0.30600  0.91840  0.02330  1.0000
  H   H18       1.0  0.69400  0.41840  0.97670  1.0000
  H   H19       1.0  0.49230  0.94230  0.05240  1.0000
  H   H20       1.0  0.50770  0.44230  0.94760  1.0000
  C   C19       1.0  0.42600  0.01140  0.98870  1.0000
  C   C20       1.0  0.57400  0.51140  0.01130  1.0000
  C   C21       1.0  0.52300  0.87040  0.98850  1.0000
  C   C22       1.0  0.47700  0.37040  0.01150  1.0000
  H   H21       1.0  0.45540  0.86070  0.95500  1.0000
  H   H22       1.0  0.54460  0.36070  0.04500  1.0000
  H   H23       1.0  0.64360  0.88870  0.98080  1.0000
  H   H24       1.0  0.35640  0.38870  0.01920  1.0000
  C   C23       1.0  0.54000  0.79420  0.01880  1.0000
  C   C24       1.0  0.46000  0.29420  0.98120  1.0000
