data_image0
_chemical_formula_structural       C4H4C16H4C4H4C4H4C16H4C12H4C8H4C8H4C4H4C4H4N24Ni4O8
_chemical_formula_sum              "C80 H40 N24 Ni4 O8"
_cell_length_a       9.236
_cell_length_b       21.642
_cell_length_c       12.378
_cell_angle_alpha    90
_cell_angle_beta     103.281
_cell_angle_gamma    90

_space_group_name_H-M_alt    "P 1"
_space_group_IT_number       1

loop_
  _space_group_symop_operation_xyz
  'x, y, z'

loop_
  _atom_site_type_symbol
  _atom_site_label
  _atom_site_symmetry_multiplicity
  _atom_site_fract_x
  _atom_site_fract_y
  _atom_site_fract_z
  _atom_site_occupancy
  C   C1        1.0  0.20140  0.05650  0.49210  1.0000
  C   C2        1.0  0.79860  0.55650  0.50790  1.0000
  C   C3        1.0  0.79860  0.94350  0.50790  1.0000
  C   C4        1.0  0.20140  0.44350  0.49210  1.0000
  H   H1        1.0  0.24320  0.02200  0.53220  1.0000
  H   H2        1.0  0.75680  0.52200  0.46780  1.0000
  H   H3        1.0  0.75680  0.97800  0.46780  1.0000
  H   H4        1.0  0.24320  0.47800  0.53220  1.0000
  C   C5        1.0  0.06240  0.12020  0.36530  1.0000
  C   C6        1.0  0.93760  0.62020  0.63470  1.0000
  C   C7        1.0  0.93760  0.87980  0.63470  1.0000
  C   C8        1.0  0.06240  0.37980  0.36530  1.0000
  C   C9        1.0  0.42870  0.09180  0.68800  1.0000
  C   C10       1.0  0.57130  0.59180  0.31200  1.0000
  C   C11       1.0  0.57130  0.90820  0.31200  1.0000
  C   C12       1.0  0.42870  0.40820  0.68800  1.0000
  C   C13       1.0  0.87660  0.09170  0.19540  1.0000
  C   C14       1.0  0.12340  0.59170  0.80460  1.0000
  C   C15       1.0  0.12340  0.90830  0.80460  1.0000
  C   C16       1.0  0.87660  0.40830  0.19540  1.0000
  C   C17       1.0  0.09340  0.05650  0.39700  1.0000
  C   C18       1.0  0.90660  0.55650  0.60300  1.0000
  C   C19       1.0  0.90660  0.94350  0.60300  1.0000
  C   C20       1.0  0.09340  0.44350  0.39700  1.0000
  H   H5        1.0  0.04790  0.02200  0.35920  1.0000
  H   H6        1.0  0.95210  0.52200  0.64080  1.0000
  H   H7        1.0  0.95210  0.97800  0.64080  1.0000
  H   H8        1.0  0.04790  0.47800  0.35920  1.0000
  C   C21       1.0  0.58280  0.02010  0.76790  1.0000
  C   C22       1.0  0.41720  0.52010  0.23210  1.0000
  C   C23       1.0  0.41720  0.97990  0.23210  1.0000
  C   C24       1.0  0.58280  0.47990  0.76790  1.0000
  H   H9        1.0  0.65720  0.99030  0.77860  1.0000
  H   H10       1.0  0.34280  0.49030  0.22140  1.0000
  H   H11       1.0  0.34280  0.00970  0.22140  1.0000
  H   H12       1.0  0.65720  0.50970  0.77860  1.0000
  C   C25       1.0  0.83370  0.03470  0.04420  1.0000
  C   C26       1.0  0.16630  0.53470  0.95580  1.0000
  C   C27       1.0  0.16630  0.96530  0.95580  1.0000
  C   C28       1.0  0.83370  0.46530  0.04420  1.0000
  H   H13       1.0  0.84790  0.01460  0.98100  1.0000
  H   H14       1.0  0.15210  0.51460  0.01900  1.0000
  H   H15       1.0  0.15210  0.98540  0.01900  1.0000
  H   H16       1.0  0.84790  0.48540  0.98100  1.0000
  C   C29       1.0  0.23860  0.11980  0.51920  1.0000
  C   C30       1.0  0.76140  0.61980  0.48080  1.0000
  C   C31       1.0  0.76140  0.88020  0.48080  1.0000
  C   C32       1.0  0.23860  0.38020  0.51920  1.0000
  C   C33       1.0  0.92040  0.19940  0.25330  1.0000
  C   C34       1.0  0.07960  0.69940  0.74670  1.0000
  C   C35       1.0  0.07960  0.80060  0.74670  1.0000
  C   C36       1.0  0.92040  0.30060  0.25330  1.0000
  C   C37       1.0  0.32230  0.11490  0.06540  1.0000
  C   C38       1.0  0.67770  0.61490  0.93460  1.0000
  C   C39       1.0  0.67770  0.88510  0.93460  1.0000
  C   C40       1.0  0.32230  0.38510  0.06540  1.0000
  C   C41       1.0  0.80770  0.21890  0.15920  1.0000
  C   C42       1.0  0.19230  0.71890  0.84080  1.0000
  C   C43       1.0  0.19230  0.78110  0.84080  1.0000
  C   C44       1.0  0.80770  0.28110  0.15920  1.0000
  H   H17       1.0  0.74630  0.19330  0.10790  1.0000
  H   H18       1.0  0.25370  0.69330  0.89210  1.0000
  H   H19       1.0  0.25370  0.80670  0.89210  1.0000
  H   H20       1.0  0.74630  0.30670  0.10790  1.0000
  C   C45       1.0  0.95440  0.13830  0.27400  1.0000
  C   C46       1.0  0.04560  0.63830  0.72600  1.0000
  C   C47       1.0  0.04560  0.86170  0.72600  1.0000
  C   C48       1.0  0.95440  0.36170  0.27400  1.0000
  C   C49       1.0  0.32080  0.18520  0.06230  1.0000
  C   C50       1.0  0.67920  0.68520  0.93770  1.0000
  C   C51       1.0  0.67920  0.81480  0.93770  1.0000
  C   C52       1.0  0.32080  0.31480  0.06230  1.0000
  C   C53       1.0  0.73810  0.06920  0.17420  1.0000
  C   C54       1.0  0.26190  0.56920  0.82580  1.0000
  C   C55       1.0  0.26190  0.93080  0.82580  1.0000
  C   C56       1.0  0.73810  0.43080  0.17420  1.0000
  H   H21       1.0  0.66950  0.07680  0.21710  1.0000
  H   H22       1.0  0.33050  0.57680  0.78290  1.0000
  H   H23       1.0  0.33050  0.92320  0.78290  1.0000
  H   H24       1.0  0.66950  0.42320  0.21710  1.0000
  C   C57       1.0  0.35080  0.13820  0.60660  1.0000
  C   C58       1.0  0.64920  0.63820  0.39340  1.0000
  C   C59       1.0  0.64920  0.86180  0.39340  1.0000
  C   C60       1.0  0.35080  0.36180  0.60660  1.0000
  C   C61       1.0  0.51110  0.21920  0.71760  1.0000
  C   C62       1.0  0.48890  0.71920  0.28240  1.0000
  C   C63       1.0  0.48890  0.78080  0.28240  1.0000
  C   C64       1.0  0.51110  0.28080  0.71760  1.0000
  H   H25       1.0  0.57700  0.19380  0.76610  1.0000
  H   H26       1.0  0.42300  0.69380  0.23390  1.0000
  H   H27       1.0  0.42300  0.80620  0.23390  1.0000
  H   H28       1.0  0.57700  0.30620  0.76610  1.0000
  C   C65       1.0  0.39080  0.19920  0.62930  1.0000
  C   C66       1.0  0.60920  0.69920  0.37070  1.0000
  C   C67       1.0  0.60920  0.80080  0.37070  1.0000
  C   C68       1.0  0.39080  0.30080  0.62930  1.0000
  C   C69       1.0  0.22650  0.21830  0.11360  1.0000
  C   C70       1.0  0.77350  0.71830  0.88640  1.0000
  C   C71       1.0  0.77350  0.78170  0.88640  1.0000
  C   C72       1.0  0.22650  0.28170  0.11360  1.0000
  H   H29       1.0  0.16240  0.19720  0.14850  1.0000
  H   H30       1.0  0.83760  0.69720  0.85150  1.0000
  H   H31       1.0  0.83760  0.80280  0.85150  1.0000
  H   H32       1.0  0.16240  0.30280  0.14850  1.0000
  C   C73       1.0  0.41530  0.21710  0.01100  1.0000
  C   C74       1.0  0.58470  0.71710  0.98900  1.0000
  C   C75       1.0  0.58470  0.78290  0.98900  1.0000
  C   C76       1.0  0.41530  0.28290  0.01100  1.0000
  H   H33       1.0  0.47920  0.19570  0.97640  1.0000
  H   H34       1.0  0.52080  0.69570  0.02360  1.0000
  H   H35       1.0  0.52080  0.80430  0.02360  1.0000
  H   H36       1.0  0.47920  0.30430  0.97640  1.0000
  C   C77       1.0  0.41170  0.08040  0.79330  1.0000
  C   C78       1.0  0.58830  0.58040  0.20670  1.0000
  C   C79       1.0  0.58830  0.91960  0.20670  1.0000
  C   C80       1.0  0.41170  0.41960  0.79330  1.0000
  H   H37       1.0  0.34410  0.10030  0.82670  1.0000
  H   H38       1.0  0.65590  0.60030  0.17330  1.0000
  H   H39       1.0  0.65590  0.89970  0.17330  1.0000
  H   H40       1.0  0.34410  0.39970  0.82670  1.0000
  N   N1        1.0  0.71090  0.03280  0.07880  1.0000
  N   N2        1.0  0.28910  0.53280  0.92120  1.0000
  N   N3        1.0  0.28910  0.96720  0.92120  1.0000
  N   N4        1.0  0.71090  0.46720  0.07880  1.0000
  N   N5        1.0  0.15300  0.15990  0.44140  1.0000
  N   N6        1.0  0.84700  0.65990  0.55860  1.0000
  N   N7        1.0  0.84700  0.84010  0.55860  1.0000
  N   N8        1.0  0.15300  0.34010  0.44140  1.0000
  N   N9        1.0  0.99080  0.25000  0.31060  1.0000
  N   N10       1.0  0.00920  0.75000  0.68940  1.0000
  N   N11       1.0  0.51040  0.03490  0.84250  1.0000
  N   N12       1.0  0.48960  0.53490  0.15750  1.0000
  N   N13       1.0  0.48960  0.96510  0.15750  1.0000
  N   N14       1.0  0.51040  0.46510  0.84250  1.0000
  N   N15       1.0  0.31630  0.25000  0.57110  1.0000
  N   N16       1.0  0.68370  0.75000  0.42890  1.0000
  N   N17       1.0  0.53820  0.05290  0.67310  1.0000
  N   N18       1.0  0.46180  0.55290  0.32690  1.0000
  N   N19       1.0  0.46180  0.94710  0.32690  1.0000
  N   N20       1.0  0.53820  0.44710  0.67310  1.0000
  N   N21       1.0  0.93900  0.07000  0.11220  1.0000
  N   N22       1.0  0.06100  0.57000  0.88780  1.0000
  N   N23       1.0  0.06100  0.93000  0.88780  1.0000
  N   N24       1.0  0.93900  0.43000  0.11220  1.0000
  Ni  Ni1       1.0  0.50000  0.00000  0.00000  1.0000
  Ni  Ni2       1.0  0.50000  0.50000  0.00000  1.0000
  Ni  Ni3       1.0  0.15300  0.25000  0.44093  1.0000
  Ni  Ni4       1.0  0.84700  0.75000  0.55907  1.0000
  O   O1        1.0  0.22560  0.08800  0.10320  1.0000
  O   O2        1.0  0.77440  0.58800  0.89680  1.0000
  O   O3        1.0  0.77440  0.91200  0.89680  1.0000
  O   O4        1.0  0.22560  0.41200  0.10320  1.0000
  O   O5        1.0  0.42510  0.08912  0.03180  1.0000
  O   O6        1.0  0.57490  0.58912  0.96820  1.0000
  O   O7        1.0  0.57490  0.91088  0.96820  1.0000
  O   O8        1.0  0.42510  0.41088  0.03180  1.0000
