data_image0
_chemical_formula_structural       Zn6I4O16C8H4C4H4C8H4C4H4C8O8C8H4C4H4C4
_chemical_formula_sum              "Zn6 I4 O24 C48 H24"
_cell_length_a       13.3605
_cell_length_b       9.8772
_cell_length_c       18.3026
_cell_angle_alpha    90
_cell_angle_beta     108.303
_cell_angle_gamma    90

_space_group_name_H-M_alt    "P 1"
_space_group_IT_number       1

loop_
  _space_group_symop_operation_xyz
  'x, y, z'

loop_
  _atom_site_type_symbol
  _atom_site_label
  _atom_site_symmetry_multiplicity
  _atom_site_fract_x
  _atom_site_fract_y
  _atom_site_fract_z
  _atom_site_occupancy
  Zn  Zn1       1.0  0.25264  0.94764  0.05761  1.0000
  Zn  Zn2       1.0  0.74736  0.44764  0.44239  1.0000
  Zn  Zn3       1.0  0.74736  0.05236  0.94239  1.0000
  Zn  Zn4       1.0  0.25264  0.55236  0.55761  1.0000
  Zn  Zn5       1.0  0.00000  0.00000  0.00000  1.0000
  Zn  Zn6       1.0  0.00000  0.50000  0.50000  1.0000
  I   I1        1.0  0.42857  0.82941  0.07085  1.0000
  I   I2        1.0  0.57143  0.32941  0.42915  1.0000
  I   I3        1.0  0.57143  0.17059  0.92915  1.0000
  I   I4        1.0  0.42857  0.67059  0.57085  1.0000
  O   O1        1.0  0.26290  0.06070  0.14900  1.0000
  O   O2        1.0  0.73710  0.56070  0.35100  1.0000
  O   O3        1.0  0.73710  0.93930  0.85100  1.0000
  O   O4        1.0  0.26290  0.43930  0.64900  1.0000
  O   O5        1.0  0.08870  0.08750  0.10178  1.0000
  O   O6        1.0  0.91130  0.58750  0.39822  1.0000
  O   O7        1.0  0.91130  0.91250  0.89822  1.0000
  O   O8        1.0  0.08870  0.41250  0.60178  1.0000
  O   O9        1.0  0.24090  0.42550  0.47180  1.0000
  O   O10       1.0  0.75910  0.92550  0.02820  1.0000
  O   O11       1.0  0.75910  0.57450  0.52820  1.0000
  O   O12       1.0  0.24090  0.07450  0.97180  1.0000
  O   O13       1.0  0.06810  0.39150  0.43470  1.0000
  O   O14       1.0  0.93190  0.89150  0.06530  1.0000
  O   O15       1.0  0.93190  0.60850  0.56530  1.0000
  O   O16       1.0  0.06810  0.10850  0.93470  1.0000
  C   C1        1.0  0.17260  0.17560  0.22420  1.0000
  C   C2        1.0  0.82740  0.67560  0.27580  1.0000
  C   C3        1.0  0.82740  0.82440  0.77580  1.0000
  C   C4        1.0  0.17260  0.32440  0.72420  1.0000
  C   C5        1.0  0.26310  0.22580  0.27640  1.0000
  C   C6        1.0  0.73690  0.72580  0.22360  1.0000
  C   C7        1.0  0.73690  0.77420  0.72360  1.0000
  C   C8        1.0  0.26310  0.27420  0.77640  1.0000
  H   H1        1.0  0.32770  0.21610  0.26770  1.0000
  H   H2        1.0  0.67230  0.71610  0.23230  1.0000
  H   H3        1.0  0.67230  0.78390  0.73230  1.0000
  H   H4        1.0  0.32770  0.28390  0.76770  1.0000
  C   C9        1.0  0.25700  0.29140  0.34240  1.0000
  C   C10       1.0  0.74300  0.79140  0.15760  1.0000
  C   C11       1.0  0.74300  0.70860  0.65760  1.0000
  C   C12       1.0  0.25700  0.20860  0.84240  1.0000
  H   H5        1.0  0.31800  0.32580  0.37750  1.0000
  H   H6        1.0  0.68200  0.82580  0.12250  1.0000
  H   H7        1.0  0.68200  0.67420  0.62250  1.0000
  H   H8        1.0  0.31800  0.17420  0.87750  1.0000
  C   C13       1.0  0.16360  0.30580  0.35620  1.0000
  C   C14       1.0  0.83640  0.80580  0.14380  1.0000
  C   C15       1.0  0.83640  0.69420  0.64380  1.0000
  C   C16       1.0  0.16360  0.19420  0.85620  1.0000
  C   C17       1.0  0.07140  0.25630  0.30350  1.0000
  C   C18       1.0  0.92860  0.75630  0.19650  1.0000
  C   C19       1.0  0.92860  0.74370  0.69650  1.0000
  C   C20       1.0  0.07140  0.24370  0.80350  1.0000
  H   H9        1.0  0.00700  0.26670  0.31230  1.0000
  H   H10       1.0  0.99300  0.76670  0.18770  1.0000
  H   H11       1.0  0.99300  0.73330  0.68770  1.0000
  H   H12       1.0  0.00700  0.23330  0.81230  1.0000
  C   C21       1.0  0.07710  0.19140  0.23780  1.0000
  C   C22       1.0  0.92290  0.69140  0.26220  1.0000
  C   C23       1.0  0.92290  0.80860  0.76220  1.0000
  C   C24       1.0  0.07710  0.30860  0.73780  1.0000
  H   H13       1.0  0.01590  0.15800  0.20230  1.0000
  H   H14       1.0  0.98410  0.65800  0.29770  1.0000
  H   H15       1.0  0.98410  0.84200  0.79770  1.0000
  H   H16       1.0  0.01590  0.34200  0.70230  1.0000
  C   C25       1.0  0.17460  0.10120  0.15220  1.0000
  C   C26       1.0  0.82540  0.60120  0.34780  1.0000
  C   C27       1.0  0.82540  0.89880  0.84780  1.0000
  C   C28       1.0  0.17460  0.39880  0.65220  1.0000
  C   C29       1.0  0.15670  0.38170  0.42650  1.0000
  C   C30       1.0  0.84330  0.88170  0.07350  1.0000
  C   C31       1.0  0.84330  0.61830  0.57350  1.0000
  C   C32       1.0  0.15670  0.11830  0.92650  1.0000
  O   O17       1.0  0.12140  0.83720  0.02059  1.0000
  O   O18       1.0  0.87860  0.33720  0.47941  1.0000
  O   O19       1.0  0.87860  0.16280  0.97941  1.0000
  O   O20       1.0  0.12140  0.66280  0.52059  1.0000
  O   O21       1.0  0.18650  0.73110  0.13200  1.0000
  O   O22       1.0  0.81350  0.23110  0.36800  1.0000
  O   O23       1.0  0.81350  0.26890  0.86800  1.0000
  O   O24       1.0  0.18650  0.76890  0.63200  1.0000
  C   C33       1.0  0.05460  0.61610  0.03210  1.0000
  C   C34       1.0  0.94540  0.11610  0.46790  1.0000
  C   C35       1.0  0.94540  0.38390  0.96790  1.0000
  C   C36       1.0  0.05460  0.88390  0.53210  1.0000
  C   C37       1.0  0.99570  0.61250  0.95560  1.0000
  C   C38       1.0  0.00430  0.11250  0.54440  1.0000
  C   C39       1.0  0.00430  0.38750  0.04440  1.0000
  C   C40       1.0  0.99570  0.88750  0.45560  1.0000
  H   H17       1.0  0.99220  0.68880  0.92510  1.0000
  H   H18       1.0  0.00780  0.18880  0.57490  1.0000
  H   H19       1.0  0.00780  0.31120  0.07490  1.0000
  H   H20       1.0  0.99220  0.81120  0.42510  1.0000
  C   C41       1.0  0.05780  0.50220  0.07630  1.0000
  C   C42       1.0  0.94220  0.00220  0.42370  1.0000
  C   C43       1.0  0.94220  0.49780  0.92370  1.0000
  C   C44       1.0  0.05780  0.99780  0.57630  1.0000
  H   H21       1.0  0.09680  0.50330  0.12830  1.0000
  H   H22       1.0  0.90320  0.00330  0.37170  1.0000
  H   H23       1.0  0.90320  0.49670  0.87170  1.0000
  H   H24       1.0  0.09680  0.99670  0.62830  1.0000
  C   C45       1.0  0.12570  0.73410  0.06660  1.0000
  C   C46       1.0  0.87430  0.23410  0.43340  1.0000
  C   C47       1.0  0.87430  0.26590  0.93340  1.0000
  C   C48       1.0  0.12570  0.76590  0.56660  1.0000
