data_image0
_chemical_formula_structural       Zn6I4C8H4C4H4C8H4C4H4C8O12C8H4C4H4C4O12
_chemical_formula_sum              "Zn6 I4 C48 H24 O24"
_cell_length_a       13.2721
_cell_length_b       9.6225
_cell_length_c       18.4952
_cell_angle_alpha    90
_cell_angle_beta     107.452
_cell_angle_gamma    90

_space_group_name_H-M_alt    "P 1"
_space_group_IT_number       1

loop_
  _space_group_symop_operation_xyz
  'x, y, z'

loop_
  _atom_site_type_symbol
  _atom_site_label
  _atom_site_symmetry_multiplicity
  _atom_site_fract_x
  _atom_site_fract_y
  _atom_site_fract_z
  _atom_site_occupancy
  Zn  Zn1       1.0  0.74344  0.95470  0.94212  1.0000
  Zn  Zn2       1.0  0.25656  0.45470  0.55788  1.0000
  Zn  Zn3       1.0  0.25656  0.04530  0.05788  1.0000
  Zn  Zn4       1.0  0.74344  0.54530  0.44212  1.0000
  Zn  Zn5       1.0  1.00000  0.00000  0.00000  1.0000
  Zn  Zn6       1.0  0.00000  0.50000  0.50000  1.0000
  I   I1        1.0  0.56321  0.83778  0.92118  1.0000
  I   I2        1.0  0.43679  0.33778  0.57882  1.0000
  I   I3        1.0  0.43679  0.16222  0.07882  1.0000
  I   I4        1.0  0.56321  0.66222  0.42118  1.0000
  C   C1        1.0  0.83245  0.17590  0.77684  1.0000
  C   C2        1.0  0.16755  0.67590  0.72316  1.0000
  C   C3        1.0  0.16755  0.82410  0.22316  1.0000
  C   C4        1.0  0.83245  0.32410  0.27684  1.0000
  C   C5        1.0  0.92752  0.18820  0.76028  1.0000
  C   C6        1.0  0.07248  0.68820  0.73972  1.0000
  C   C7        1.0  0.07248  0.81180  0.23972  1.0000
  C   C8        1.0  0.92752  0.31180  0.26028  1.0000
  H   H1        1.0  0.98930  0.15320  0.79370  1.0000
  H   H2        1.0  0.01070  0.65320  0.70630  1.0000
  H   H3        1.0  0.01070  0.84680  0.20630  1.0000
  H   H4        1.0  0.98930  0.34680  0.29370  1.0000
  C   C9        1.0  0.93020  0.25310  0.69374  1.0000
  C   C10       1.0  0.06980  0.75310  0.80626  1.0000
  C   C11       1.0  0.06980  0.74690  0.30626  1.0000
  C   C12       1.0  0.93020  0.24690  0.19374  1.0000
  H   H5        1.0  0.99390  0.26140  0.68270  1.0000
  H   H6        1.0  0.00610  0.76140  0.81730  1.0000
  H   H7        1.0  0.00610  0.73860  0.31730  1.0000
  H   H8        1.0  0.99390  0.23860  0.18270  1.0000
  C   C13       1.0  0.83790  0.30550  0.64375  1.0000
  C   C14       1.0  0.16210  0.80550  0.85625  1.0000
  C   C15       1.0  0.16210  0.69450  0.35625  1.0000
  C   C16       1.0  0.83790  0.19450  0.14375  1.0000
  C   C17       1.0  0.74280  0.29320  0.66031  1.0000
  C   C18       1.0  0.25720  0.79320  0.83969  1.0000
  C   C19       1.0  0.25720  0.70680  0.33969  1.0000
  C   C20       1.0  0.74280  0.20680  0.16031  1.0000
  H   H9        1.0  0.68100  0.32830  0.62690  1.0000
  H   H10       1.0  0.31900  0.82830  0.87310  1.0000
  H   H11       1.0  0.31900  0.67170  0.37310  1.0000
  H   H12       1.0  0.68100  0.17170  0.12690  1.0000
  C   C21       1.0  0.74010  0.22830  0.72685  1.0000
  C   C22       1.0  0.25990  0.72830  0.77315  1.0000
  C   C23       1.0  0.25990  0.77170  0.27315  1.0000
  C   C24       1.0  0.74010  0.27170  0.22685  1.0000
  H   H13       1.0  0.67650  0.22000  0.73790  1.0000
  H   H14       1.0  0.32350  0.72000  0.76210  1.0000
  H   H15       1.0  0.32350  0.78000  0.26210  1.0000
  H   H16       1.0  0.67650  0.28000  0.23790  1.0000
  C   C25       1.0  0.83210  0.10680  0.84850  1.0000
  C   C26       1.0  0.16790  0.60680  0.65150  1.0000
  C   C27       1.0  0.16790  0.89320  0.15150  1.0000
  C   C28       1.0  0.83210  0.39320  0.34850  1.0000
  C   C29       1.0  0.84220  0.37820  0.57270  1.0000
  C   C30       1.0  0.15780  0.87820  0.92730  1.0000
  C   C31       1.0  0.15780  0.62180  0.42730  1.0000
  C   C32       1.0  0.84220  0.12180  0.07270  1.0000
  O   O1        1.0  0.91850  0.08580  0.89670  1.0000
  O   O2        1.0  0.08150  0.58580  0.60330  1.0000
  O   O3        1.0  0.08150  0.91420  0.10330  1.0000
  O   O4        1.0  0.91850  0.41420  0.39670  1.0000
  O   O5        1.0  0.74310  0.07150  0.85597  1.0000
  O   O6        1.0  0.25690  0.57150  0.64403  1.0000
  O   O7        1.0  0.25690  0.92850  0.14403  1.0000
  O   O8        1.0  0.74310  0.42850  0.35597  1.0000
  O   O9        1.0  0.92770  0.38170  0.55990  1.0000
  O   O10       1.0  0.07230  0.88170  0.94010  1.0000
  O   O11       1.0  0.07230  0.61830  0.44010  1.0000
  O   O12       1.0  0.92770  0.11830  0.05990  1.0000
  C   C33       1.0  0.93940  0.61580  0.97110  1.0000
  C   C34       1.0  0.06060  0.11580  0.52890  1.0000
  C   C35       1.0  0.06060  0.38420  0.02890  1.0000
  C   C36       1.0  0.93940  0.88420  0.47110  1.0000
  C   C37       1.0  0.99360  0.61210  0.04630  1.0000
  C   C38       1.0  0.00640  0.11210  0.45370  1.0000
  C   C39       1.0  0.00640  0.38790  0.95370  1.0000
  C   C40       1.0  0.99360  0.88790  0.54630  1.0000
  H   H17       1.0  0.99160  0.68730  0.07750  1.0000
  H   H18       1.0  0.00840  0.18730  0.42250  1.0000
  H   H19       1.0  0.00840  0.31270  0.92250  1.0000
  H   H20       1.0  0.99160  0.81270  0.57750  1.0000
  C   C41       1.0  0.94940  0.50360  0.92490  1.0000
  C   C42       1.0  0.05060  0.00360  0.57510  1.0000
  C   C43       1.0  0.05060  0.49640  0.07510  1.0000
  C   C44       1.0  0.94940  0.99640  0.42490  1.0000
  H   H21       1.0  0.91600  0.50860  0.87300  1.0000
  H   H22       1.0  0.08400  0.00860  0.62700  1.0000
  H   H23       1.0  0.08400  0.49140  0.12700  1.0000
  H   H24       1.0  0.91600  0.99140  0.37300  1.0000
  C   C45       1.0  0.86780  0.73560  0.93810  1.0000
  C   C46       1.0  0.13220  0.23560  0.56190  1.0000
  C   C47       1.0  0.13220  0.26440  0.06190  1.0000
  C   C48       1.0  0.86780  0.76440  0.43810  1.0000
  O   O13       1.0  0.80420  0.72540  0.87480  1.0000
  O   O14       1.0  0.19580  0.22540  0.62520  1.0000
  O   O15       1.0  0.19580  0.27460  0.12520  1.0000
  O   O16       1.0  0.80420  0.77460  0.37480  1.0000
  O   O17       1.0  0.87440  0.84320  0.98053  1.0000
  O   O18       1.0  0.12560  0.34320  0.51947  1.0000
  O   O19       1.0  0.12560  0.15680  0.01947  1.0000
  O   O20       1.0  0.87440  0.65680  0.48053  1.0000
  O   O21       1.0  0.75610  0.42390  0.53014  1.0000
  O   O22       1.0  0.24390  0.92390  0.96986  1.0000
  O   O23       1.0  0.24390  0.57610  0.46986  1.0000
  O   O24       1.0  0.75610  0.07610  0.03014  1.0000
