data_image0
_chemical_formula_structural       U16S24O128C24H8C8H8C40H8C8H8C32H8C8H8C24
_chemical_formula_sum              "U16 S24 O128 C144 H48"
_cell_length_a       7.707
_cell_length_b       36.226
_cell_length_c       33.863
_cell_angle_alpha    90
_cell_angle_beta     94.679
_cell_angle_gamma    90

_space_group_name_H-M_alt    "P 1"
_space_group_IT_number       1

loop_
  _space_group_symop_operation_xyz
  'x, y, z'

loop_
  _atom_site_type_symbol
  _atom_site_label
  _atom_site_symmetry_multiplicity
  _atom_site_fract_x
  _atom_site_fract_y
  _atom_site_fract_z
  _atom_site_occupancy
  U   U1        1.0  0.37658  0.36735  0.33470  1.0000
  U   U2        1.0  0.62342  0.36735  0.16530  1.0000
  U   U3        1.0  0.87658  0.86735  0.33470  1.0000
  U   U4        1.0  0.12342  0.86735  0.16530  1.0000
  U   U5        1.0  0.62342  0.63265  0.66530  1.0000
  U   U6        1.0  0.37658  0.63265  0.83470  1.0000
  U   U7        1.0  0.12342  0.13265  0.66530  1.0000
  U   U8        1.0  0.87658  0.13265  0.83470  1.0000
  U   U9        1.0  0.12321  0.42347  0.61030  1.0000
  U   U10       1.0  0.87679  0.42347  0.88970  1.0000
  U   U11       1.0  0.62321  0.92347  0.61030  1.0000
  U   U12       1.0  0.37679  0.92347  0.88970  1.0000
  U   U13       1.0  0.87679  0.57653  0.38970  1.0000
  U   U14       1.0  0.12321  0.57653  0.11030  1.0000
  U   U15       1.0  0.37679  0.07653  0.38970  1.0000
  U   U16       1.0  0.62321  0.07653  0.11030  1.0000
  S   S1        1.0  0.33240  0.22175  0.36719  1.0000
  S   S2        1.0  0.66760  0.22175  0.13281  1.0000
  S   S3        1.0  0.83240  0.72175  0.36719  1.0000
  S   S4        1.0  0.16760  0.72175  0.13281  1.0000
  S   S5        1.0  0.66760  0.77825  0.63281  1.0000
  S   S6        1.0  0.33240  0.77825  0.86719  1.0000
  S   S7        1.0  0.16760  0.27825  0.63281  1.0000
  S   S8        1.0  0.83240  0.27825  0.86719  1.0000
  S   S9        1.0  0.25840  0.47727  0.22861  1.0000
  S   S10       1.0  0.74160  0.47727  0.27139  1.0000
  S   S11       1.0  0.75840  0.97727  0.22861  1.0000
  S   S12       1.0  0.24160  0.97727  0.27139  1.0000
  S   S13       1.0  0.74160  0.52273  0.77139  1.0000
  S   S14       1.0  0.25840  0.52273  0.72861  1.0000
  S   S15       1.0  0.24160  0.02273  0.77139  1.0000
  S   S16       1.0  0.75840  0.02273  0.72861  1.0000
  S   S17       1.0  0.77710  0.39020  0.47134  1.0000
  S   S18       1.0  0.22290  0.39020  0.02866  1.0000
  S   S19       1.0  0.27710  0.89020  0.47134  1.0000
  S   S20       1.0  0.72290  0.89020  0.02866  1.0000
  S   S21       1.0  0.22290  0.60980  0.52866  1.0000
  S   S22       1.0  0.77710  0.60980  0.97134  1.0000
  S   S23       1.0  0.72290  0.10980  0.52866  1.0000
  S   S24       1.0  0.27710  0.10980  0.97134  1.0000
  O   O1        1.0  0.55910  0.35480  0.30940  1.0000
  O   O2        1.0  0.44090  0.35480  0.19060  1.0000
  O   O3        1.0  0.05910  0.85480  0.30940  1.0000
  O   O4        1.0  0.94090  0.85480  0.19060  1.0000
  O   O5        1.0  0.44090  0.64520  0.69060  1.0000
  O   O6        1.0  0.55910  0.64520  0.80940  1.0000
  O   O7        1.0  0.94090  0.14520  0.69060  1.0000
  O   O8        1.0  0.05910  0.14520  0.80940  1.0000
  O   O9        1.0  0.19100  0.37890  0.35990  1.0000
  O   O10       1.0  0.80900  0.37890  0.14010  1.0000
  O   O11       1.0  0.69100  0.87890  0.35990  1.0000
  O   O12       1.0  0.30900  0.87890  0.14010  1.0000
  O   O13       1.0  0.80900  0.62110  0.64010  1.0000
  O   O14       1.0  0.19100  0.62110  0.85990  1.0000
  O   O15       1.0  0.30900  0.12110  0.64010  1.0000
  O   O16       1.0  0.69100  0.12110  0.85990  1.0000
  O   O17       1.0  0.22550  0.31220  0.30590  1.0000
  O   O18       1.0  0.77450  0.31220  0.19410  1.0000
  O   O19       1.0  0.72550  0.81220  0.30590  1.0000
  O   O20       1.0  0.27450  0.81220  0.19410  1.0000
  O   O21       1.0  0.77450  0.68780  0.69410  1.0000
  O   O22       1.0  0.22550  0.68780  0.80590  1.0000
  O   O23       1.0  0.27450  0.18780  0.69410  1.0000
  O   O24       1.0  0.72550  0.18780  0.80590  1.0000
  O   O25       1.0  0.37630  0.30380  0.36340  1.0000
  O   O26       1.0  0.62370  0.30380  0.13660  1.0000
  O   O27       1.0  0.87630  0.80380  0.36340  1.0000
  O   O28       1.0  0.12370  0.80380  0.13660  1.0000
  O   O29       1.0  0.62370  0.69620  0.63660  1.0000
  O   O30       1.0  0.37630  0.69620  0.86340  1.0000
  O   O31       1.0  0.12370  0.19620  0.63660  1.0000
  O   O32       1.0  0.87630  0.19620  0.86340  1.0000
  O   O33       1.0  0.55650  0.36380  0.39820  1.0000
  O   O34       1.0  0.44350  0.36380  0.10180  1.0000
  O   O35       1.0  0.05650  0.86380  0.39820  1.0000
  O   O36       1.0  0.94350  0.86380  0.10180  1.0000
  O   O37       1.0  0.44350  0.63620  0.60180  1.0000
  O   O38       1.0  0.55650  0.63620  0.89820  1.0000
  O   O39       1.0  0.94350  0.13620  0.60180  1.0000
  O   O40       1.0  0.05650  0.13620  0.89820  1.0000
  O   O41       1.0  0.54030  0.41710  0.36890  1.0000
  O   O42       1.0  0.45970  0.41710  0.13110  1.0000
  O   O43       1.0  0.04030  0.91710  0.36890  1.0000
  O   O44       1.0  0.95970  0.91710  0.13110  1.0000
  O   O45       1.0  0.45970  0.58290  0.63110  1.0000
  O   O46       1.0  0.54030  0.58290  0.86890  1.0000
  O   O47       1.0  0.95970  0.08290  0.63110  1.0000
  O   O48       1.0  0.04030  0.08290  0.86890  1.0000
  O   O49       1.0  0.35350  0.42475  0.29700  1.0000
  O   O50       1.0  0.64650  0.42475  0.20300  1.0000
  O   O51       1.0  0.85350  0.92475  0.29700  1.0000
  O   O52       1.0  0.14650  0.92475  0.20300  1.0000
  O   O53       1.0  0.64650  0.57525  0.70300  1.0000
  O   O54       1.0  0.35350  0.57525  0.79700  1.0000
  O   O55       1.0  0.14650  0.07525  0.70300  1.0000
  O   O56       1.0  0.85350  0.07525  0.79700  1.0000
  O   O57       1.0  0.21480  0.37645  0.27060  1.0000
  O   O58       1.0  0.78520  0.37645  0.22940  1.0000
  O   O59       1.0  0.71480  0.87645  0.27060  1.0000
  O   O60       1.0  0.28520  0.87645  0.22940  1.0000
  O   O61       1.0  0.78520  0.62355  0.72940  1.0000
  O   O62       1.0  0.21480  0.62355  0.77060  1.0000
  O   O63       1.0  0.28520  0.12355  0.72940  1.0000
  O   O64       1.0  0.71480  0.12355  0.77060  1.0000
  O   O65       1.0  0.24970  0.11870  0.33610  1.0000
  O   O66       1.0  0.75030  0.11870  0.16390  1.0000
  O   O67       1.0  0.74970  0.61870  0.33610  1.0000
  O   O68       1.0  0.25030  0.61870  0.16390  1.0000
  O   O69       1.0  0.75030  0.88130  0.66390  1.0000
  O   O70       1.0  0.24970  0.88130  0.83610  1.0000
  O   O71       1.0  0.25030  0.38130  0.66390  1.0000
  O   O72       1.0  0.74970  0.38130  0.83610  1.0000
  O   O73       1.0  0.35490  0.14400  0.39270  1.0000
  O   O74       1.0  0.64510  0.14400  0.10730  1.0000
  O   O75       1.0  0.85490  0.64400  0.39270  1.0000
  O   O76       1.0  0.14510  0.64400  0.10730  1.0000
  O   O77       1.0  0.64510  0.85600  0.60730  1.0000
  O   O78       1.0  0.35490  0.85600  0.89270  1.0000
  O   O79       1.0  0.14510  0.35600  0.60730  1.0000
  O   O80       1.0  0.85490  0.35600  0.89270  1.0000
  O   O81       1.0  0.32950  0.42870  0.59250  1.0000
  O   O82       1.0  0.67050  0.42870  0.90750  1.0000
  O   O83       1.0  0.82950  0.92870  0.59250  1.0000
  O   O84       1.0  0.17050  0.92870  0.90750  1.0000
  O   O85       1.0  0.67050  0.57130  0.40750  1.0000
  O   O86       1.0  0.32950  0.57130  0.09250  1.0000
  O   O87       1.0  0.17050  0.07130  0.40750  1.0000
  O   O88       1.0  0.82950  0.07130  0.09250  1.0000
  O   O89       1.0  0.91750  0.41830  0.62740  1.0000
  O   O90       1.0  0.08250  0.41830  0.87260  1.0000
  O   O91       1.0  0.41750  0.91830  0.62740  1.0000
  O   O92       1.0  0.58250  0.91830  0.87260  1.0000
  O   O93       1.0  0.08250  0.58170  0.37260  1.0000
  O   O94       1.0  0.91750  0.58170  0.12740  1.0000
  O   O95       1.0  0.58250  0.08170  0.37260  1.0000
  O   O96       1.0  0.41750  0.08170  0.12740  1.0000
  O   O97       1.0  0.00140  0.39630  0.54770  1.0000
  O   O98       1.0  0.99860  0.39630  0.95230  1.0000
  O   O99       1.0  0.50140  0.89630  0.54770  1.0000
  O   O100      1.0  0.49860  0.89630  0.95230  1.0000
  O   O101      1.0  0.99860  0.60370  0.45230  1.0000
  O   O102      1.0  0.00140  0.60370  0.04770  1.0000
  O   O103      1.0  0.49860  0.10370  0.45230  1.0000
  O   O104      1.0  0.50140  0.10370  0.04770  1.0000
  O   O105      1.0  0.00490  0.45710  0.55060  1.0000
  O   O106      1.0  0.99510  0.45710  0.94940  1.0000
  O   O107      1.0  0.50490  0.95710  0.55060  1.0000
  O   O108      1.0  0.49510  0.95710  0.94940  1.0000
  O   O109      1.0  0.99510  0.54290  0.44940  1.0000
  O   O110      1.0  0.00490  0.54290  0.05060  1.0000
  O   O111      1.0  0.49510  0.04290  0.44940  1.0000
  O   O112      1.0  0.50490  0.04290  0.05060  1.0000
  O   O113      1.0  0.22130  0.54251  0.17150  1.0000
  O   O114      1.0  0.77870  0.54251  0.32850  1.0000
  O   O115      1.0  0.72130  0.04251  0.17150  1.0000
  O   O116      1.0  0.27870  0.04251  0.32850  1.0000
  O   O117      1.0  0.77870  0.45749  0.82850  1.0000
  O   O118      1.0  0.22130  0.45749  0.67150  1.0000
  O   O119      1.0  0.27870  0.95749  0.82850  1.0000
  O   O120      1.0  0.72130  0.95749  0.67150  1.0000
  O   O121      1.0  0.09580  0.51080  0.12160  1.0000
  O   O122      1.0  0.90420  0.51080  0.37840  1.0000
  O   O123      1.0  0.59580  0.01080  0.12160  1.0000
  O   O124      1.0  0.40420  0.01080  0.37840  1.0000
  O   O125      1.0  0.90420  0.48920  0.87840  1.0000
  O   O126      1.0  0.09580  0.48920  0.62160  1.0000
  O   O127      1.0  0.40420  0.98920  0.87840  1.0000
  O   O128      1.0  0.59580  0.98920  0.62160  1.0000
  C   C1        1.0  0.28830  0.14720  0.35910  1.0000
  C   C2        1.0  0.71170  0.14720  0.14090  1.0000
  C   C3        1.0  0.78830  0.64720  0.35910  1.0000
  C   C4        1.0  0.21170  0.64720  0.14090  1.0000
  C   C5        1.0  0.71170  0.85280  0.64090  1.0000
  C   C6        1.0  0.28830  0.85280  0.85910  1.0000
  C   C7        1.0  0.21170  0.35280  0.64090  1.0000
  C   C8        1.0  0.78830  0.35280  0.85910  1.0000
  C   C9        1.0  0.25670  0.18420  0.34120  1.0000
  C   C10       1.0  0.74330  0.18420  0.15880  1.0000
  C   C11       1.0  0.75670  0.68420  0.34120  1.0000
  C   C12       1.0  0.24330  0.68420  0.15880  1.0000
  C   C13       1.0  0.74330  0.81580  0.65880  1.0000
  C   C14       1.0  0.25670  0.81580  0.84120  1.0000
  C   C15       1.0  0.24330  0.31580  0.65880  1.0000
  C   C16       1.0  0.75670  0.31580  0.84120  1.0000
  C   C17       1.0  0.17600  0.19480  0.30560  1.0000
  C   C18       1.0  0.82400  0.19480  0.19440  1.0000
  C   C19       1.0  0.67600  0.69480  0.30560  1.0000
  C   C20       1.0  0.32400  0.69480  0.19440  1.0000
  C   C21       1.0  0.82400  0.80520  0.69440  1.0000
  C   C22       1.0  0.17600  0.80520  0.80560  1.0000
  C   C23       1.0  0.32400  0.30520  0.69440  1.0000
  C   C24       1.0  0.67600  0.30520  0.80560  1.0000
  H   H1        1.0  0.12370  0.17770  0.28700  1.0000
  H   H2        1.0  0.87630  0.17770  0.21300  1.0000
  H   H3        1.0  0.62370  0.67770  0.28700  1.0000
  H   H4        1.0  0.37630  0.67770  0.21300  1.0000
  H   H5        1.0  0.87630  0.82230  0.71300  1.0000
  H   H6        1.0  0.12370  0.82230  0.78700  1.0000
  H   H7        1.0  0.37630  0.32230  0.71300  1.0000
  H   H8        1.0  0.62370  0.32230  0.78700  1.0000
  C   C25       1.0  0.17800  0.23300  0.29900  1.0000
  C   C26       1.0  0.82200  0.23300  0.20100  1.0000
  C   C27       1.0  0.67800  0.73300  0.29900  1.0000
  C   C28       1.0  0.32200  0.73300  0.20100  1.0000
  C   C29       1.0  0.82200  0.76700  0.70100  1.0000
  C   C30       1.0  0.17800  0.76700  0.79900  1.0000
  C   C31       1.0  0.32200  0.26700  0.70100  1.0000
  C   C32       1.0  0.67800  0.26700  0.79900  1.0000
  H   H9        1.0  0.13040  0.24480  0.27550  1.0000
  H   H10       1.0  0.86960  0.24480  0.22450  1.0000
  H   H11       1.0  0.63040  0.74480  0.27550  1.0000
  H   H12       1.0  0.36960  0.74480  0.22450  1.0000
  H   H13       1.0  0.86960  0.75520  0.72450  1.0000
  H   H14       1.0  0.13040  0.75520  0.77550  1.0000
  H   H15       1.0  0.36960  0.25520  0.72450  1.0000
  H   H16       1.0  0.63040  0.25520  0.77550  1.0000
  C   C33       1.0  0.25780  0.25090  0.33050  1.0000
  C   C34       1.0  0.74220  0.25090  0.16950  1.0000
  C   C35       1.0  0.75780  0.75090  0.33050  1.0000
  C   C36       1.0  0.24220  0.75090  0.16950  1.0000
  C   C37       1.0  0.74220  0.74910  0.66950  1.0000
  C   C38       1.0  0.25780  0.74910  0.83050  1.0000
  C   C39       1.0  0.24220  0.24910  0.66950  1.0000
  C   C40       1.0  0.75780  0.24910  0.83050  1.0000
  C   C41       1.0  0.28840  0.29080  0.33320  1.0000
  C   C42       1.0  0.71160  0.29080  0.16680  1.0000
  C   C43       1.0  0.78840  0.79080  0.33320  1.0000
  C   C44       1.0  0.21160  0.79080  0.16680  1.0000
  C   C45       1.0  0.71160  0.70920  0.66680  1.0000
  C   C46       1.0  0.28840  0.70920  0.83320  1.0000
  C   C47       1.0  0.21160  0.20920  0.66680  1.0000
  C   C48       1.0  0.78840  0.20920  0.83320  1.0000
  C   C49       1.0  0.26410  0.41040  0.26860  1.0000
  C   C50       1.0  0.73590  0.41040  0.23140  1.0000
  C   C51       1.0  0.76410  0.91040  0.26860  1.0000
  C   C52       1.0  0.23590  0.91040  0.23140  1.0000
  C   C53       1.0  0.73590  0.58960  0.73140  1.0000
  C   C54       1.0  0.26410  0.58960  0.76860  1.0000
  C   C55       1.0  0.23590  0.08960  0.73140  1.0000
  C   C56       1.0  0.76410  0.08960  0.76860  1.0000
  C   C57       1.0  0.21320  0.43100  0.23120  1.0000
  C   C58       1.0  0.78680  0.43100  0.26880  1.0000
  C   C59       1.0  0.71320  0.93100  0.23120  1.0000
  C   C60       1.0  0.28680  0.93100  0.26880  1.0000
  C   C61       1.0  0.78680  0.56900  0.76880  1.0000
  C   C62       1.0  0.21320  0.56900  0.73120  1.0000
  C   C63       1.0  0.28680  0.06900  0.76880  1.0000
  C   C64       1.0  0.71320  0.06900  0.73120  1.0000
  C   C65       1.0  0.13120  0.41680  0.19780  1.0000
  C   C66       1.0  0.86880  0.41680  0.30220  1.0000
  C   C67       1.0  0.63120  0.91680  0.19780  1.0000
  C   C68       1.0  0.36880  0.91680  0.30220  1.0000
  C   C69       1.0  0.86880  0.58320  0.80220  1.0000
  C   C70       1.0  0.13120  0.58320  0.69780  1.0000
  C   C71       1.0  0.36880  0.08320  0.80220  1.0000
  C   C72       1.0  0.63120  0.08320  0.69780  1.0000
  H   H17       1.0  0.09650  0.39180  0.19440  1.0000
  H   H18       1.0  0.90350  0.39180  0.30560  1.0000
  H   H19       1.0  0.59650  0.89180  0.19440  1.0000
  H   H20       1.0  0.40350  0.89180  0.30560  1.0000
  H   H21       1.0  0.90350  0.60820  0.80560  1.0000
  H   H22       1.0  0.09650  0.60820  0.69440  1.0000
  H   H23       1.0  0.40350  0.10820  0.80560  1.0000
  H   H24       1.0  0.59650  0.10820  0.69440  1.0000
  C   C73       1.0  0.10440  0.44460  0.16870  1.0000
  C   C74       1.0  0.89560  0.44460  0.33130  1.0000
  C   C75       1.0  0.60440  0.94460  0.16870  1.0000
  C   C76       1.0  0.39560  0.94460  0.33130  1.0000
  C   C77       1.0  0.89560  0.55540  0.83130  1.0000
  C   C78       1.0  0.10440  0.55540  0.66870  1.0000
  C   C79       1.0  0.39560  0.05540  0.83130  1.0000
  C   C80       1.0  0.60440  0.05540  0.66870  1.0000
  H   H25       1.0  0.04710  0.44020  0.14320  1.0000
  H   H26       1.0  0.95290  0.44020  0.35680  1.0000
  H   H27       1.0  0.54710  0.94020  0.14320  1.0000
  H   H28       1.0  0.45290  0.94020  0.35680  1.0000
  H   H29       1.0  0.95290  0.55980  0.85680  1.0000
  H   H30       1.0  0.04710  0.55980  0.64320  1.0000
  H   H31       1.0  0.45290  0.05980  0.85680  1.0000
  H   H32       1.0  0.54710  0.05980  0.64320  1.0000
  C   C81       1.0  0.16880  0.47860  0.18060  1.0000
  C   C82       1.0  0.83120  0.47860  0.31940  1.0000
  C   C83       1.0  0.66880  0.97860  0.18060  1.0000
  C   C84       1.0  0.33120  0.97860  0.31940  1.0000
  C   C85       1.0  0.83120  0.52140  0.81940  1.0000
  C   C86       1.0  0.16880  0.52140  0.68060  1.0000
  C   C87       1.0  0.33120  0.02140  0.81940  1.0000
  C   C88       1.0  0.66880  0.02140  0.68060  1.0000
  C   C89       1.0  0.59790  0.39780  0.39780  1.0000
  C   C90       1.0  0.40210  0.39780  0.10220  1.0000
  C   C91       1.0  0.09790  0.89780  0.39780  1.0000
  C   C92       1.0  0.90210  0.89780  0.10220  1.0000
  C   C93       1.0  0.40210  0.60220  0.60220  1.0000
  C   C94       1.0  0.59790  0.60220  0.89780  1.0000
  C   C95       1.0  0.90210  0.10220  0.60220  1.0000
  C   C96       1.0  0.09790  0.10220  0.89780  1.0000
  C   C97       1.0  0.70270  0.41490  0.43040  1.0000
  C   C98       1.0  0.29730  0.41490  0.06960  1.0000
  C   C99       1.0  0.20270  0.91490  0.43040  1.0000
  C   C100      1.0  0.79730  0.91490  0.06960  1.0000
  C   C101      1.0  0.29730  0.58510  0.56960  1.0000
  C   C102      1.0  0.70270  0.58510  0.93040  1.0000
  C   C103      1.0  0.79730  0.08510  0.56960  1.0000
  C   C104      1.0  0.20270  0.08510  0.93040  1.0000
  C   C105      1.0  0.75140  0.45120  0.43250  1.0000
  C   C106      1.0  0.24860  0.45120  0.06750  1.0000
  C   C107      1.0  0.25140  0.95120  0.43250  1.0000
  C   C108      1.0  0.74860  0.95120  0.06750  1.0000
  C   C109      1.0  0.24860  0.54880  0.56750  1.0000
  C   C110      1.0  0.75140  0.54880  0.93250  1.0000
  C   C111      1.0  0.74860  0.04880  0.56750  1.0000
  C   C112      1.0  0.25140  0.04880  0.93250  1.0000
  H   H33       1.0  0.72240  0.46870  0.41230  1.0000
  H   H34       1.0  0.27760  0.46870  0.08770  1.0000
  H   H35       1.0  0.22240  0.96870  0.41230  1.0000
  H   H36       1.0  0.77760  0.96870  0.08770  1.0000
  H   H37       1.0  0.27760  0.53130  0.58770  1.0000
  H   H38       1.0  0.72240  0.53130  0.91230  1.0000
  H   H39       1.0  0.77760  0.03130  0.58770  1.0000
  H   H40       1.0  0.22240  0.03130  0.91230  1.0000
  C   C113      1.0  0.85220  0.45960  0.46930  1.0000
  C   C114      1.0  0.14780  0.45960  0.03070  1.0000
  C   C115      1.0  0.35220  0.95960  0.46930  1.0000
  C   C116      1.0  0.64780  0.95960  0.03070  1.0000
  C   C117      1.0  0.14780  0.54040  0.53070  1.0000
  C   C118      1.0  0.85220  0.54040  0.96930  1.0000
  C   C119      1.0  0.64780  0.04040  0.53070  1.0000
  C   C120      1.0  0.35220  0.04040  0.96930  1.0000
  H   H41       1.0  0.89880  0.48330  0.47610  1.0000
  H   H42       1.0  0.10120  0.48330  0.02390  1.0000
  H   H43       1.0  0.39880  0.98330  0.47610  1.0000
  H   H44       1.0  0.60120  0.98330  0.02390  1.0000
  H   H45       1.0  0.10120  0.51670  0.52390  1.0000
  H   H46       1.0  0.89880  0.51670  0.97610  1.0000
  H   H47       1.0  0.60120  0.01670  0.52390  1.0000
  H   H48       1.0  0.39880  0.01670  0.97610  1.0000
  C   C121      1.0  0.87170  0.42940  0.49290  1.0000
  C   C122      1.0  0.12830  0.42940  0.00710  1.0000
  C   C123      1.0  0.37170  0.92940  0.49290  1.0000
  C   C124      1.0  0.62830  0.92940  0.00710  1.0000
  C   C125      1.0  0.12830  0.57060  0.50710  1.0000
  C   C126      1.0  0.87170  0.57060  0.99290  1.0000
  C   C127      1.0  0.62830  0.07060  0.50710  1.0000
  C   C128      1.0  0.37170  0.07060  0.99290  1.0000
  C   C129      1.0  0.96520  0.42720  0.53130  1.0000
  C   C130      1.0  0.03480  0.42720  0.96870  1.0000
  C   C131      1.0  0.46520  0.92720  0.53130  1.0000
  C   C132      1.0  0.53480  0.92720  0.96870  1.0000
  C   C133      1.0  0.03480  0.57280  0.46870  1.0000
  C   C134      1.0  0.96520  0.57280  0.03130  1.0000
  C   C135      1.0  0.53480  0.07280  0.46870  1.0000
  C   C136      1.0  0.46520  0.07280  0.03130  1.0000
  C   C137      1.0  0.16060  0.51250  0.15730  1.0000
  C   C138      1.0  0.83940  0.51250  0.34270  1.0000
  C   C139      1.0  0.66060  0.01250  0.15730  1.0000
  C   C140      1.0  0.33940  0.01250  0.34270  1.0000
  C   C141      1.0  0.83940  0.48750  0.84270  1.0000
  C   C142      1.0  0.16060  0.48750  0.65730  1.0000
  C   C143      1.0  0.33940  0.98750  0.84270  1.0000
  C   C144      1.0  0.66060  0.98750  0.65730  1.0000
