data_image0
_chemical_formula_structural       U8O64C8H8C8H8C8H8C24
_chemical_formula_sum              "U8 O64 C48 H24"
_cell_length_a       25.4143
_cell_length_b       8.8177
_cell_length_c       15.7551
_cell_angle_alpha    90
_cell_angle_beta     122.397
_cell_angle_gamma    90

_space_group_name_H-M_alt    "P 1"
_space_group_IT_number       1

loop_
  _space_group_symop_operation_xyz
  'x, y, z'

loop_
  _atom_site_type_symbol
  _atom_site_label
  _atom_site_symmetry_multiplicity
  _atom_site_fract_x
  _atom_site_fract_y
  _atom_site_fract_z
  _atom_site_occupancy
  U   U1        1.0  0.23035  0.25687  0.35175  1.0000
  U   U2        1.0  0.76965  0.25687  0.14825  1.0000
  U   U3        1.0  0.73035  0.75687  0.35175  1.0000
  U   U4        1.0  0.26965  0.75687  0.14825  1.0000
  U   U5        1.0  0.76965  0.74313  0.64825  1.0000
  U   U6        1.0  0.23035  0.74313  0.85175  1.0000
  U   U7        1.0  0.26965  0.24313  0.64825  1.0000
  U   U8        1.0  0.73035  0.24313  0.85175  1.0000
  O   O1        1.0  0.15910  0.16030  0.30460  1.0000
  O   O2        1.0  0.84090  0.16030  0.19540  1.0000
  O   O3        1.0  0.65910  0.66030  0.30460  1.0000
  O   O4        1.0  0.34090  0.66030  0.19540  1.0000
  O   O5        1.0  0.84090  0.83970  0.69540  1.0000
  O   O6        1.0  0.15910  0.83970  0.80460  1.0000
  O   O7        1.0  0.34090  0.33970  0.69540  1.0000
  O   O8        1.0  0.65910  0.33970  0.80460  1.0000
  O   O9        1.0  0.30130  0.35620  0.39860  1.0000
  O   O10       1.0  0.69870  0.35620  0.10140  1.0000
  O   O11       1.0  0.80130  0.85620  0.39860  1.0000
  O   O12       1.0  0.19870  0.85620  0.10140  1.0000
  O   O13       1.0  0.69870  0.64380  0.60140  1.0000
  O   O14       1.0  0.30130  0.64380  0.89860  1.0000
  O   O15       1.0  0.19870  0.14380  0.60140  1.0000
  O   O16       1.0  0.80130  0.14380  0.89860  1.0000
  O   O17       1.0  0.27050  0.02220  0.33440  1.0000
  O   O18       1.0  0.72950  0.02220  0.16560  1.0000
  O   O19       1.0  0.77050  0.52220  0.33440  1.0000
  O   O20       1.0  0.22950  0.52220  0.16560  1.0000
  O   O21       1.0  0.72950  0.97780  0.66560  1.0000
  O   O22       1.0  0.27050  0.97780  0.83440  1.0000
  O   O23       1.0  0.22950  0.47780  0.66560  1.0000
  O   O24       1.0  0.77050  0.47780  0.83440  1.0000
  O   O25       1.0  0.28210  0.77960  0.30670  1.0000
  O   O26       1.0  0.71790  0.77960  0.19330  1.0000
  O   O27       1.0  0.78210  0.27960  0.30670  1.0000
  O   O28       1.0  0.21790  0.27960  0.19330  1.0000
  O   O29       1.0  0.71790  0.22040  0.69330  1.0000
  O   O30       1.0  0.28210  0.22040  0.80670  1.0000
  O   O31       1.0  0.21790  0.72040  0.69330  1.0000
  O   O32       1.0  0.78210  0.72040  0.80670  1.0000
  O   O33       1.0  0.27980  0.12990  0.51590  1.0000
  O   O34       1.0  0.72020  0.12990  0.98410  1.0000
  O   O35       1.0  0.77980  0.62990  0.51590  1.0000
  O   O36       1.0  0.22020  0.62990  0.98410  1.0000
  O   O37       1.0  0.72020  0.87010  0.48410  1.0000
  O   O38       1.0  0.27980  0.87010  0.01590  1.0000
  O   O39       1.0  0.22020  0.37010  0.48410  1.0000
  O   O40       1.0  0.77980  0.37010  0.01590  1.0000
  O   O41       1.0  0.37630  0.05180  0.56590  1.0000
  O   O42       1.0  0.62370  0.05180  0.93410  1.0000
  O   O43       1.0  0.87630  0.55180  0.56590  1.0000
  O   O44       1.0  0.12370  0.55180  0.93410  1.0000
  O   O45       1.0  0.62370  0.94820  0.43410  1.0000
  O   O46       1.0  0.37630  0.94820  0.06590  1.0000
  O   O47       1.0  0.12370  0.44820  0.43410  1.0000
  O   O48       1.0  0.87630  0.44820  0.06590  1.0000
  O   O49       1.0  0.33120  0.02230  0.71620  1.0000
  O   O50       1.0  0.66880  0.02230  0.78380  1.0000
  O   O51       1.0  0.83120  0.52230  0.71620  1.0000
  O   O52       1.0  0.16880  0.52230  0.78380  1.0000
  O   O53       1.0  0.66880  0.97770  0.28380  1.0000
  O   O54       1.0  0.33120  0.97770  0.21620  1.0000
  O   O55       1.0  0.16880  0.47770  0.28380  1.0000
  O   O56       1.0  0.83120  0.47770  0.21620  1.0000
  O   O57       1.0  0.35460  0.78030  0.76490  1.0000
  O   O58       1.0  0.64540  0.78030  0.73510  1.0000
  O   O59       1.0  0.85460  0.28030  0.76490  1.0000
  O   O60       1.0  0.14540  0.28030  0.73510  1.0000
  O   O61       1.0  0.64540  0.21970  0.23510  1.0000
  O   O62       1.0  0.35460  0.21970  0.26490  1.0000
  O   O63       1.0  0.14540  0.71970  0.23510  1.0000
  O   O64       1.0  0.85460  0.71970  0.26490  1.0000
  C   C1        1.0  0.24640  0.83250  0.41640  1.0000
  C   C2        1.0  0.75360  0.83250  0.08360  1.0000
  C   C3        1.0  0.74640  0.33250  0.41640  1.0000
  C   C4        1.0  0.25360  0.33250  0.08360  1.0000
  C   C5        1.0  0.75360  0.16750  0.58360  1.0000
  C   C6        1.0  0.24640  0.16750  0.91640  1.0000
  C   C7        1.0  0.25360  0.66750  0.58360  1.0000
  C   C8        1.0  0.74640  0.66750  0.91640  1.0000
  H   H1        1.0  0.20970  0.89610  0.40080  1.0000
  H   H2        1.0  0.79030  0.89610  0.09920  1.0000
  H   H3        1.0  0.70970  0.39610  0.40080  1.0000
  H   H4        1.0  0.29030  0.39610  0.09920  1.0000
  H   H5        1.0  0.79030  0.10390  0.59920  1.0000
  H   H6        1.0  0.20970  0.10390  0.90080  1.0000
  H   H7        1.0  0.29030  0.60390  0.59920  1.0000
  H   H8        1.0  0.70970  0.60390  0.90080  1.0000
  C   C9        1.0  0.29870  0.86350  0.52650  1.0000
  C   C10       1.0  0.70130  0.86350  0.97350  1.0000
  C   C11       1.0  0.79870  0.36350  0.52650  1.0000
  C   C12       1.0  0.20130  0.36350  0.97350  1.0000
  C   C13       1.0  0.70130  0.13650  0.47350  1.0000
  C   C14       1.0  0.29870  0.13650  0.02650  1.0000
  C   C15       1.0  0.20130  0.63650  0.47350  1.0000
  C   C16       1.0  0.79870  0.63650  0.02650  1.0000
  H   H9        1.0  0.33410  0.79260  0.54560  1.0000
  H   H10       1.0  0.66590  0.79260  0.95440  1.0000
  H   H11       1.0  0.83410  0.29260  0.54560  1.0000
  H   H12       1.0  0.16590  0.29260  0.95440  1.0000
  H   H13       1.0  0.66590  0.20740  0.45440  1.0000
  H   H14       1.0  0.33410  0.20740  0.04560  1.0000
  H   H15       1.0  0.16590  0.70740  0.45440  1.0000
  H   H16       1.0  0.83410  0.70740  0.04560  1.0000
  C   C17       1.0  0.27280  0.83100  0.59430  1.0000
  C   C18       1.0  0.72720  0.83100  0.90570  1.0000
  C   C19       1.0  0.77280  0.33100  0.59430  1.0000
  C   C20       1.0  0.22720  0.33100  0.90570  1.0000
  C   C21       1.0  0.72720  0.16900  0.40570  1.0000
  C   C22       1.0  0.27280  0.16900  0.09430  1.0000
  C   C23       1.0  0.22720  0.66900  0.40570  1.0000
  C   C24       1.0  0.77280  0.66900  0.09430  1.0000
  H   H17       1.0  0.23510  0.89570  0.57090  1.0000
  H   H18       1.0  0.76490  0.89570  0.92910  1.0000
  H   H19       1.0  0.73510  0.39570  0.57090  1.0000
  H   H20       1.0  0.26490  0.39570  0.92910  1.0000
  H   H21       1.0  0.76490  0.10430  0.42910  1.0000
  H   H22       1.0  0.23510  0.10430  0.07090  1.0000
  H   H23       1.0  0.26490  0.60430  0.42910  1.0000
  H   H24       1.0  0.73510  0.60430  0.07090  1.0000
  C   C25       1.0  0.26750  0.88160  0.34630  1.0000
  C   C26       1.0  0.73250  0.88160  0.15370  1.0000
  C   C27       1.0  0.76750  0.38160  0.34630  1.0000
  C   C28       1.0  0.23250  0.38160  0.15370  1.0000
  C   C29       1.0  0.73250  0.11840  0.65370  1.0000
  C   C30       1.0  0.26750  0.11840  0.84630  1.0000
  C   C31       1.0  0.23250  0.61840  0.65370  1.0000
  C   C32       1.0  0.76750  0.61840  0.84630  1.0000
  C   C33       1.0  0.32180  0.02400  0.53830  1.0000
  C   C34       1.0  0.67820  0.02400  0.96170  1.0000
  C   C35       1.0  0.82180  0.52400  0.53830  1.0000
  C   C36       1.0  0.17820  0.52400  0.96170  1.0000
  C   C37       1.0  0.67820  0.97600  0.46170  1.0000
  C   C38       1.0  0.32180  0.97600  0.03830  1.0000
  C   C39       1.0  0.17820  0.47600  0.46170  1.0000
  C   C40       1.0  0.82180  0.47600  0.03830  1.0000
  C   C41       1.0  0.32290  0.87870  0.70130  1.0000
  C   C42       1.0  0.67710  0.87870  0.79870  1.0000
  C   C43       1.0  0.82290  0.37870  0.70130  1.0000
  C   C44       1.0  0.17710  0.37870  0.79870  1.0000
  C   C45       1.0  0.67710  0.12130  0.29870  1.0000
  C   C46       1.0  0.32290  0.12130  0.20130  1.0000
  C   C47       1.0  0.17710  0.62130  0.29870  1.0000
  C   C48       1.0  0.82290  0.62130  0.20130  1.0000
