data_image0
_chemical_formula_structural       Zn12C32H8C8H8C16H8C8H8C24H8C16H8C16H8C16O48N32H16N8H16
_chemical_formula_sum              "Zn12 C136 H88 O48 N40"
_cell_length_a       28.3006
_cell_length_b       20.085
_cell_length_c       15.4335
_cell_angle_alpha    90
_cell_angle_beta     92.498
_cell_angle_gamma    90

_space_group_name_H-M_alt    "P 1"
_space_group_IT_number       1

loop_
  _space_group_symop_operation_xyz
  'x, y, z'

loop_
  _atom_site_type_symbol
  _atom_site_label
  _atom_site_symmetry_multiplicity
  _atom_site_fract_x
  _atom_site_fract_y
  _atom_site_fract_z
  _atom_site_occupancy
  Zn  Zn1       1.0  0.50000  0.29271  0.25000  1.0000
  Zn  Zn2       1.0  0.00000  0.79271  0.25000  1.0000
  Zn  Zn3       1.0  0.50000  0.70729  0.75000  1.0000
  Zn  Zn4       1.0  0.00000  0.20729  0.75000  1.0000
  Zn  Zn5       1.0  0.06489  0.00518  0.01129  1.0000
  Zn  Zn6       1.0  0.93511  0.00518  0.48871  1.0000
  Zn  Zn7       1.0  0.56489  0.50518  0.01129  1.0000
  Zn  Zn8       1.0  0.43511  0.50518  0.48871  1.0000
  Zn  Zn9       1.0  0.93511  0.99482  0.98871  1.0000
  Zn  Zn10      1.0  0.06489  0.99482  0.51129  1.0000
  Zn  Zn11      1.0  0.43511  0.49482  0.98871  1.0000
  Zn  Zn12      1.0  0.56489  0.49482  0.51129  1.0000
  C   C1        1.0  0.03607  0.12010  0.89950  1.0000
  C   C2        1.0  0.96393  0.12010  0.60050  1.0000
  C   C3        1.0  0.53607  0.62010  0.89950  1.0000
  C   C4        1.0  0.46393  0.62010  0.60050  1.0000
  C   C5        1.0  0.96393  0.87990  0.10050  1.0000
  C   C6        1.0  0.03607  0.87990  0.39950  1.0000
  C   C7        1.0  0.46393  0.37990  0.10050  1.0000
  C   C8        1.0  0.53607  0.37990  0.39950  1.0000
  C   C9        1.0  0.96257  0.10960  0.87910  1.0000
  C   C10       1.0  0.03743  0.10960  0.62090  1.0000
  C   C11       1.0  0.46257  0.60960  0.87910  1.0000
  C   C12       1.0  0.53743  0.60960  0.62090  1.0000
  C   C13       1.0  0.03743  0.89040  0.12090  1.0000
  C   C14       1.0  0.96257  0.89040  0.37910  1.0000
  C   C15       1.0  0.53743  0.39040  0.12090  1.0000
  C   C16       1.0  0.46257  0.39040  0.37910  1.0000
  C   C17       1.0  0.37618  0.18820  0.28450  1.0000
  C   C18       1.0  0.62382  0.18820  0.21550  1.0000
  C   C19       1.0  0.87618  0.68820  0.28450  1.0000
  C   C20       1.0  0.12382  0.68820  0.21550  1.0000
  C   C21       1.0  0.62382  0.81180  0.71550  1.0000
  C   C22       1.0  0.37618  0.81180  0.78450  1.0000
  C   C23       1.0  0.12382  0.31180  0.71550  1.0000
  C   C24       1.0  0.87618  0.31180  0.78450  1.0000
  C   C25       1.0  0.36108  0.14160  0.34270  1.0000
  C   C26       1.0  0.63892  0.14160  0.15730  1.0000
  C   C27       1.0  0.86108  0.64160  0.34270  1.0000
  C   C28       1.0  0.13892  0.64160  0.15730  1.0000
  C   C29       1.0  0.63892  0.85840  0.65730  1.0000
  C   C30       1.0  0.36108  0.85840  0.84270  1.0000
  C   C31       1.0  0.13892  0.35840  0.65730  1.0000
  C   C32       1.0  0.86108  0.35840  0.84270  1.0000
  H   H1        1.0  0.38290  0.12440  0.38360  1.0000
  H   H2        1.0  0.61710  0.12440  0.11640  1.0000
  H   H3        1.0  0.88290  0.62440  0.38360  1.0000
  H   H4        1.0  0.11710  0.62440  0.11640  1.0000
  H   H5        1.0  0.61710  0.87560  0.61640  1.0000
  H   H6        1.0  0.38290  0.87560  0.88360  1.0000
  H   H7        1.0  0.11710  0.37560  0.61640  1.0000
  H   H8        1.0  0.88290  0.37560  0.88360  1.0000
  C   C33       1.0  0.31533  0.11960  0.34290  1.0000
  C   C34       1.0  0.68467  0.11960  0.15710  1.0000
  C   C35       1.0  0.81533  0.61960  0.34290  1.0000
  C   C36       1.0  0.18467  0.61960  0.15710  1.0000
  C   C37       1.0  0.68467  0.88040  0.65710  1.0000
  C   C38       1.0  0.31533  0.88040  0.84290  1.0000
  C   C39       1.0  0.18467  0.38040  0.65710  1.0000
  C   C40       1.0  0.81533  0.38040  0.84290  1.0000
  H   H9        1.0  0.30630  0.08890  0.38420  1.0000
  H   H10       1.0  0.69370  0.08890  0.11580  1.0000
  H   H11       1.0  0.80630  0.58890  0.38420  1.0000
  H   H12       1.0  0.19370  0.58890  0.11580  1.0000
  H   H13       1.0  0.69370  0.91110  0.61580  1.0000
  H   H14       1.0  0.30630  0.91110  0.88420  1.0000
  H   H15       1.0  0.19370  0.41110  0.61580  1.0000
  H   H16       1.0  0.80630  0.41110  0.88420  1.0000
  C   C41       1.0  0.28213  0.14350  0.28030  1.0000
  C   C42       1.0  0.71787  0.14350  0.21970  1.0000
  C   C43       1.0  0.78213  0.64350  0.28030  1.0000
  C   C44       1.0  0.21787  0.64350  0.21970  1.0000
  C   C45       1.0  0.71787  0.85650  0.71970  1.0000
  C   C46       1.0  0.28213  0.85650  0.78030  1.0000
  C   C47       1.0  0.21787  0.35650  0.71970  1.0000
  C   C48       1.0  0.78213  0.35650  0.78030  1.0000
  C   C49       1.0  0.29709  0.18920  0.22320  1.0000
  C   C50       1.0  0.70291  0.18920  0.27680  1.0000
  C   C51       1.0  0.79709  0.68920  0.22320  1.0000
  C   C52       1.0  0.20291  0.68920  0.27680  1.0000
  C   C53       1.0  0.70291  0.81080  0.77680  1.0000
  C   C54       1.0  0.29709  0.81080  0.72320  1.0000
  C   C55       1.0  0.20291  0.31080  0.77680  1.0000
  C   C56       1.0  0.79709  0.31080  0.72320  1.0000
  H   H17       1.0  0.27560  0.20550  0.18110  1.0000
  H   H18       1.0  0.72440  0.20550  0.31890  1.0000
  H   H19       1.0  0.77560  0.70550  0.18110  1.0000
  H   H20       1.0  0.22440  0.70550  0.31890  1.0000
  H   H21       1.0  0.72440  0.79450  0.81890  1.0000
  H   H22       1.0  0.27560  0.79450  0.68110  1.0000
  H   H23       1.0  0.22440  0.29450  0.81890  1.0000
  H   H24       1.0  0.77560  0.29450  0.68110  1.0000
  C   C57       1.0  0.34359  0.21300  0.22510  1.0000
  C   C58       1.0  0.65641  0.21300  0.27490  1.0000
  C   C59       1.0  0.84359  0.71300  0.22510  1.0000
  C   C60       1.0  0.15641  0.71300  0.27490  1.0000
  C   C61       1.0  0.65641  0.78700  0.77490  1.0000
  C   C62       1.0  0.34359  0.78700  0.72510  1.0000
  C   C63       1.0  0.15641  0.28700  0.77490  1.0000
  C   C64       1.0  0.84359  0.28700  0.72510  1.0000
  H   H25       1.0  0.35230  0.24550  0.18600  1.0000
  H   H26       1.0  0.64770  0.24550  0.31400  1.0000
  H   H27       1.0  0.85230  0.74550  0.18600  1.0000
  H   H28       1.0  0.14770  0.74550  0.31400  1.0000
  H   H29       1.0  0.64770  0.75450  0.81400  1.0000
  H   H30       1.0  0.35230  0.75450  0.68600  1.0000
  H   H31       1.0  0.14770  0.25450  0.81400  1.0000
  H   H32       1.0  0.85230  0.25450  0.68600  1.0000
  C   C65       1.0  0.42629  0.21240  0.28870  1.0000
  C   C66       1.0  0.57371  0.21240  0.21130  1.0000
  C   C67       1.0  0.92629  0.71240  0.28870  1.0000
  C   C68       1.0  0.07371  0.71240  0.21130  1.0000
  C   C69       1.0  0.57371  0.78760  0.71130  1.0000
  C   C70       1.0  0.42629  0.78760  0.78870  1.0000
  C   C71       1.0  0.07371  0.28760  0.71130  1.0000
  C   C72       1.0  0.92629  0.28760  0.78870  1.0000
  C   C73       1.0  0.23197  0.11940  0.27730  1.0000
  C   C74       1.0  0.76803  0.11940  0.22270  1.0000
  C   C75       1.0  0.73197  0.61940  0.27730  1.0000
  C   C76       1.0  0.26803  0.61940  0.22270  1.0000
  C   C77       1.0  0.76803  0.88060  0.72270  1.0000
  C   C78       1.0  0.23197  0.88060  0.77730  1.0000
  C   C79       1.0  0.26803  0.38060  0.72270  1.0000
  C   C80       1.0  0.73197  0.38060  0.77730  1.0000
  C   C81       1.0  0.20961  0.10490  0.35310  1.0000
  C   C82       1.0  0.79039  0.10490  0.14690  1.0000
  C   C83       1.0  0.70961  0.60490  0.35310  1.0000
  C   C84       1.0  0.29039  0.60490  0.14690  1.0000
  C   C85       1.0  0.79039  0.89510  0.64690  1.0000
  C   C86       1.0  0.20961  0.89510  0.85310  1.0000
  C   C87       1.0  0.29039  0.39510  0.64690  1.0000
  C   C88       1.0  0.70961  0.39510  0.85310  1.0000
  H   H33       1.0  0.22510  0.11330  0.40630  1.0000
  H   H34       1.0  0.77490  0.11330  0.09370  1.0000
  H   H35       1.0  0.72510  0.61330  0.40630  1.0000
  H   H36       1.0  0.27490  0.61330  0.09370  1.0000
  H   H37       1.0  0.77490  0.88670  0.59370  1.0000
  H   H38       1.0  0.22510  0.88670  0.90630  1.0000
  H   H39       1.0  0.27490  0.38670  0.59370  1.0000
  H   H40       1.0  0.72510  0.38670  0.90630  1.0000
  C   C89       1.0  0.16436  0.07780  0.35080  1.0000
  C   C90       1.0  0.83564  0.07780  0.14920  1.0000
  C   C91       1.0  0.66436  0.57780  0.35080  1.0000
  C   C92       1.0  0.33564  0.57780  0.14920  1.0000
  C   C93       1.0  0.83564  0.92220  0.64920  1.0000
  C   C94       1.0  0.16436  0.92220  0.85080  1.0000
  C   C95       1.0  0.33564  0.42220  0.64920  1.0000
  C   C96       1.0  0.66436  0.42220  0.85080  1.0000
  C   C97       1.0  0.14033  0.06970  0.26940  1.0000
  C   C98       1.0  0.85967  0.06970  0.23060  1.0000
  C   C99       1.0  0.64033  0.56970  0.26940  1.0000
  C   C100      1.0  0.35967  0.56970  0.23060  1.0000
  C   C101      1.0  0.85967  0.93030  0.73060  1.0000
  C   C102      1.0  0.14033  0.93030  0.76940  1.0000
  C   C103      1.0  0.35967  0.43030  0.73060  1.0000
  C   C104      1.0  0.64033  0.43030  0.76940  1.0000
  H   H41       1.0  0.10980  0.05240  0.26670  1.0000
  H   H42       1.0  0.89020  0.05240  0.23330  1.0000
  H   H43       1.0  0.60980  0.55240  0.26670  1.0000
  H   H44       1.0  0.39020  0.55240  0.23330  1.0000
  H   H45       1.0  0.89020  0.94760  0.73330  1.0000
  H   H46       1.0  0.10980  0.94760  0.76670  1.0000
  H   H47       1.0  0.39020  0.44760  0.73330  1.0000
  H   H48       1.0  0.60980  0.44760  0.76670  1.0000
  C   C105      1.0  0.16134  0.08670  0.19530  1.0000
  C   C106      1.0  0.83866  0.08670  0.30470  1.0000
  C   C107      1.0  0.66134  0.58670  0.19530  1.0000
  C   C108      1.0  0.33866  0.58670  0.30470  1.0000
  C   C109      1.0  0.83866  0.91330  0.80470  1.0000
  C   C110      1.0  0.16134  0.91330  0.69530  1.0000
  C   C111      1.0  0.33866  0.41330  0.80470  1.0000
  C   C112      1.0  0.66134  0.41330  0.69530  1.0000
  C   C113      1.0  0.20712  0.11420  0.19950  1.0000
  C   C114      1.0  0.79288  0.11420  0.30050  1.0000
  C   C115      1.0  0.70712  0.61420  0.19950  1.0000
  C   C116      1.0  0.29288  0.61420  0.30050  1.0000
  C   C117      1.0  0.79288  0.88580  0.80050  1.0000
  C   C118      1.0  0.20712  0.88580  0.69950  1.0000
  C   C119      1.0  0.29288  0.38580  0.80050  1.0000
  C   C120      1.0  0.70712  0.38580  0.69950  1.0000
  H   H49       1.0  0.22060  0.12900  0.14900  1.0000
  H   H50       1.0  0.77940  0.12900  0.35100  1.0000
  H   H51       1.0  0.72060  0.62900  0.14900  1.0000
  H   H52       1.0  0.27940  0.62900  0.35100  1.0000
  H   H53       1.0  0.77940  0.87100  0.85100  1.0000
  H   H54       1.0  0.22060  0.87100  0.64900  1.0000
  H   H55       1.0  0.27940  0.37100  0.85100  1.0000
  H   H56       1.0  0.72060  0.37100  0.64900  1.0000
  C   C121      1.0  0.13984  0.05980  0.43140  1.0000
  C   C122      1.0  0.86016  0.05980  0.06860  1.0000
  C   C123      1.0  0.63984  0.55980  0.43140  1.0000
  C   C124      1.0  0.36016  0.55980  0.06860  1.0000
  C   C125      1.0  0.86016  0.94020  0.56860  1.0000
  C   C126      1.0  0.13984  0.94020  0.93140  1.0000
  C   C127      1.0  0.36016  0.44020  0.56860  1.0000
  C   C128      1.0  0.63984  0.44020  0.93140  1.0000
  C   C129      1.0  0.13449  0.07670  0.10890  1.0000
  C   C130      1.0  0.86551  0.07670  0.39110  1.0000
  C   C131      1.0  0.63449  0.57670  0.10890  1.0000
  C   C132      1.0  0.36551  0.57670  0.39110  1.0000
  C   C133      1.0  0.86551  0.92330  0.89110  1.0000
  C   C134      1.0  0.13449  0.92330  0.60890  1.0000
  C   C135      1.0  0.36551  0.42330  0.89110  1.0000
  C   C136      1.0  0.63449  0.42330  0.60890  1.0000
  O   O1        1.0  0.43677  0.25670  0.23510  1.0000
  O   O2        1.0  0.56323  0.25670  0.26490  1.0000
  O   O3        1.0  0.93677  0.75670  0.23510  1.0000
  O   O4        1.0  0.06323  0.75670  0.26490  1.0000
  O   O5        1.0  0.56323  0.74330  0.76490  1.0000
  O   O6        1.0  0.43677  0.74330  0.73510  1.0000
  O   O7        1.0  0.06323  0.24330  0.76490  1.0000
  O   O8        1.0  0.93677  0.24330  0.73510  1.0000
  O   O9        1.0  0.45543  0.18870  0.34040  1.0000
  O   O10       1.0  0.54457  0.18870  0.15960  1.0000
  O   O11       1.0  0.95543  0.68870  0.34040  1.0000
  O   O12       1.0  0.04457  0.68870  0.15960  1.0000
  O   O13       1.0  0.54457  0.81130  0.65960  1.0000
  O   O14       1.0  0.45543  0.81130  0.84040  1.0000
  O   O15       1.0  0.04457  0.31130  0.65960  1.0000
  O   O16       1.0  0.95543  0.31130  0.84040  1.0000
  O   O17       1.0  0.15649  0.07570  0.50200  1.0000
  O   O18       1.0  0.84351  0.07570  0.99800  1.0000
  O   O19       1.0  0.65649  0.57570  0.50200  1.0000
  O   O20       1.0  0.34351  0.57570  0.99800  1.0000
  O   O21       1.0  0.84351  0.92430  0.49800  1.0000
  O   O22       1.0  0.15649  0.92430  0.00200  1.0000
  O   O23       1.0  0.34351  0.42430  0.49800  1.0000
  O   O24       1.0  0.65649  0.42430  0.00200  1.0000
  O   O25       1.0  0.10193  0.02860  0.41990  1.0000
  O   O26       1.0  0.89807  0.02860  0.08010  1.0000
  O   O27       1.0  0.60193  0.52860  0.41990  1.0000
  O   O28       1.0  0.39807  0.52860  0.08010  1.0000
  O   O29       1.0  0.89807  0.97140  0.58010  1.0000
  O   O30       1.0  0.10193  0.97140  0.91990  1.0000
  O   O31       1.0  0.39807  0.47140  0.58010  1.0000
  O   O32       1.0  0.60193  0.47140  0.91990  1.0000
  O   O33       1.0  0.14792  0.10350  0.04270  1.0000
  O   O34       1.0  0.85208  0.10350  0.45730  1.0000
  O   O35       1.0  0.64792  0.60350  0.04270  1.0000
  O   O36       1.0  0.35208  0.60350  0.45730  1.0000
  O   O37       1.0  0.85208  0.89650  0.95730  1.0000
  O   O38       1.0  0.14792  0.89650  0.54270  1.0000
  O   O39       1.0  0.35208  0.39650  0.95730  1.0000
  O   O40       1.0  0.64792  0.39650  0.54270  1.0000
  O   O41       1.0  0.09906  0.03950  0.11220  1.0000
  O   O42       1.0  0.90094  0.03950  0.38780  1.0000
  O   O43       1.0  0.59906  0.53950  0.11220  1.0000
  O   O44       1.0  0.40094  0.53950  0.38780  1.0000
  O   O45       1.0  0.90094  0.96050  0.88780  1.0000
  O   O46       1.0  0.09906  0.96050  0.61220  1.0000
  O   O47       1.0  0.40094  0.46050  0.88780  1.0000
  O   O48       1.0  0.59906  0.46050  0.61220  1.0000
  N   N1        1.0  0.02345  0.07040  0.95290  1.0000
  N   N2        1.0  0.97655  0.07040  0.54710  1.0000
  N   N3        1.0  0.52345  0.57040  0.95290  1.0000
  N   N4        1.0  0.47655  0.57040  0.54710  1.0000
  N   N5        1.0  0.97655  0.92960  0.04710  1.0000
  N   N6        1.0  0.02345  0.92960  0.45290  1.0000
  N   N7        1.0  0.47655  0.42960  0.04710  1.0000
  N   N8        1.0  0.52345  0.42960  0.45290  1.0000
  N   N9        1.0  0.97471  0.06450  0.93790  1.0000
  N   N10       1.0  0.02529  0.06450  0.56210  1.0000
  N   N11       1.0  0.47471  0.56450  0.93790  1.0000
  N   N12       1.0  0.52529  0.56450  0.56210  1.0000
  N   N13       1.0  0.02529  0.93550  0.06210  1.0000
  N   N14       1.0  0.97471  0.93550  0.43790  1.0000
  N   N15       1.0  0.52529  0.43550  0.06210  1.0000
  N   N16       1.0  0.47471  0.43550  0.43790  1.0000
  N   N17       1.0  0.99883  0.14730  0.85250  1.0000
  N   N18       1.0  0.00117  0.14730  0.64750  1.0000
  N   N19       1.0  0.49883  0.64730  0.85250  1.0000
  N   N20       1.0  0.50117  0.64730  0.64750  1.0000
  N   N21       1.0  0.00117  0.85270  0.14750  1.0000
  N   N22       1.0  0.99883  0.85270  0.35250  1.0000
  N   N23       1.0  0.50117  0.35270  0.14750  1.0000
  N   N24       1.0  0.49883  0.35270  0.35250  1.0000
  N   N25       1.0  0.08068  0.14160  0.89410  1.0000
  N   N26       1.0  0.91932  0.14160  0.60590  1.0000
  N   N27       1.0  0.58068  0.64160  0.89410  1.0000
  N   N28       1.0  0.41932  0.64160  0.60590  1.0000
  N   N29       1.0  0.91932  0.85840  0.10590  1.0000
  N   N30       1.0  0.08068  0.85840  0.39410  1.0000
  N   N31       1.0  0.41932  0.35840  0.10590  1.0000
  N   N32       1.0  0.58068  0.35840  0.39410  1.0000
  H   H57       1.0  0.10300  0.12370  0.92560  1.0000
  H   H58       1.0  0.89700  0.12370  0.57440  1.0000
  H   H59       1.0  0.60300  0.62370  0.92560  1.0000
  H   H60       1.0  0.39700  0.62370  0.57440  1.0000
  H   H61       1.0  0.89700  0.87630  0.07440  1.0000
  H   H62       1.0  0.10300  0.87630  0.42560  1.0000
  H   H63       1.0  0.39700  0.37630  0.07440  1.0000
  H   H64       1.0  0.60300  0.37630  0.42560  1.0000
  H   H65       1.0  0.08700  0.17340  0.85910  1.0000
  H   H66       1.0  0.91300  0.17340  0.64090  1.0000
  H   H67       1.0  0.58700  0.67340  0.85910  1.0000
  H   H68       1.0  0.41300  0.67340  0.64090  1.0000
  H   H69       1.0  0.91300  0.82660  0.14090  1.0000
  H   H70       1.0  0.08700  0.82660  0.35910  1.0000
  H   H71       1.0  0.41300  0.32660  0.14090  1.0000
  H   H72       1.0  0.58700  0.32660  0.35910  1.0000
  N   N33       1.0  0.91681  0.11990  0.84770  1.0000
  N   N34       1.0  0.08319  0.11990  0.65230  1.0000
  N   N35       1.0  0.41681  0.61990  0.84770  1.0000
  N   N36       1.0  0.58319  0.61990  0.65230  1.0000
  N   N37       1.0  0.08319  0.88010  0.15230  1.0000
  N   N38       1.0  0.91681  0.88010  0.34770  1.0000
  N   N39       1.0  0.58319  0.38010  0.15230  1.0000
  N   N40       1.0  0.41681  0.38010  0.34770  1.0000
  H   H73       1.0  0.89420  0.09620  0.86650  1.0000
  H   H74       1.0  0.10580  0.09620  0.63350  1.0000
  H   H75       1.0  0.39420  0.59620  0.86650  1.0000
  H   H76       1.0  0.60580  0.59620  0.63350  1.0000
  H   H77       1.0  0.10580  0.90380  0.13350  1.0000
  H   H78       1.0  0.89420  0.90380  0.36650  1.0000
  H   H79       1.0  0.60580  0.40380  0.13350  1.0000
  H   H80       1.0  0.39420  0.40380  0.36650  1.0000
  H   H81       1.0  0.91090  0.15020  0.80920  1.0000
  H   H82       1.0  0.08910  0.15020  0.69080  1.0000
  H   H83       1.0  0.41090  0.65020  0.80920  1.0000
  H   H84       1.0  0.58910  0.65020  0.69080  1.0000
  H   H85       1.0  0.08910  0.84980  0.19080  1.0000
  H   H86       1.0  0.91090  0.84980  0.30920  1.0000
  H   H87       1.0  0.58910  0.34980  0.19080  1.0000
  H   H88       1.0  0.41090  0.34980  0.30920  1.0000
