data_image0
_chemical_formula_structural       Cd4O40C48H16C16H16C32H16C16H16Li4
_chemical_formula_sum              "Cd4 O40 C112 H64 Li4"
_cell_length_a       23.3033
_cell_length_b       23.3033
_cell_length_c       6.5788
_cell_angle_alpha    90
_cell_angle_beta     90
_cell_angle_gamma    90

_space_group_name_H-M_alt    "P 1"
_space_group_IT_number       1

loop_
  _space_group_symop_operation_xyz
  'x, y, z'

loop_
  _atom_site_type_symbol
  _atom_site_label
  _atom_site_symmetry_multiplicity
  _atom_site_fract_x
  _atom_site_fract_y
  _atom_site_fract_z
  _atom_site_occupancy
  Cd  Cd1       1.0  0.00000  0.50000  0.75000  1.0000
  Cd  Cd2       1.0  0.50000  0.00000  0.25000  1.0000
  Cd  Cd3       1.0  0.50000  0.50000  0.00000  1.0000
  Cd  Cd4       1.0  0.00000  0.00000  0.50000  1.0000
  O   O1        1.0  0.96275  0.54434  0.45450  1.0000
  O   O2        1.0  0.03725  0.45566  0.45450  1.0000
  O   O3        1.0  0.54434  0.03725  0.54550  1.0000
  O   O4        1.0  0.45566  0.96275  0.54550  1.0000
  O   O5        1.0  0.53725  0.54434  0.29550  1.0000
  O   O6        1.0  0.46275  0.45566  0.29550  1.0000
  O   O7        1.0  0.95566  0.03725  0.20450  1.0000
  O   O8        1.0  0.04434  0.96275  0.20450  1.0000
  O   O9        1.0  0.46275  0.04434  0.95450  1.0000
  O   O10       1.0  0.53725  0.95566  0.95450  1.0000
  O   O11       1.0  0.04434  0.53725  0.04550  1.0000
  O   O12       1.0  0.95566  0.46275  0.04550  1.0000
  O   O13       1.0  0.03725  0.04434  0.79550  1.0000
  O   O14       1.0  0.96275  0.95566  0.79550  1.0000
  O   O15       1.0  0.45566  0.53725  0.70450  1.0000
  O   O16       1.0  0.54434  0.46275  0.70450  1.0000
  O   O17       1.0  0.92558  0.57570  0.73230  1.0000
  O   O18       1.0  0.07442  0.42430  0.73230  1.0000
  O   O19       1.0  0.57570  0.07442  0.26770  1.0000
  O   O20       1.0  0.42430  0.92558  0.26770  1.0000
  O   O21       1.0  0.57442  0.57570  0.01770  1.0000
  O   O22       1.0  0.42558  0.42430  0.01770  1.0000
  O   O23       1.0  0.92430  0.07442  0.48230  1.0000
  O   O24       1.0  0.07570  0.92558  0.48230  1.0000
  O   O25       1.0  0.42558  0.07570  0.23230  1.0000
  O   O26       1.0  0.57442  0.92430  0.23230  1.0000
  O   O27       1.0  0.07570  0.57442  0.76770  1.0000
  O   O28       1.0  0.92430  0.42558  0.76770  1.0000
  O   O29       1.0  0.07442  0.07570  0.51770  1.0000
  O   O30       1.0  0.92558  0.92430  0.51770  1.0000
  O   O31       1.0  0.42430  0.57442  0.98230  1.0000
  O   O32       1.0  0.57570  0.42558  0.98230  1.0000
  O   O33       1.0  0.80852  0.75000  0.12500  1.0000
  O   O34       1.0  0.19148  0.25000  0.12500  1.0000
  O   O35       1.0  0.75000  0.19148  0.87500  1.0000
  O   O36       1.0  0.25000  0.80852  0.87500  1.0000
  O   O37       1.0  0.69148  0.75000  0.62500  1.0000
  O   O38       1.0  0.30852  0.25000  0.62500  1.0000
  O   O39       1.0  0.25000  0.69148  0.37500  1.0000
  O   O40       1.0  0.75000  0.30852  0.37500  1.0000
  C   C1        1.0  0.92917  0.57810  0.54720  1.0000
  C   C2        1.0  0.07083  0.42190  0.54720  1.0000
  C   C3        1.0  0.57810  0.07083  0.45280  1.0000
  C   C4        1.0  0.42190  0.92917  0.45280  1.0000
  C   C5        1.0  0.57083  0.57810  0.20280  1.0000
  C   C6        1.0  0.42917  0.42190  0.20280  1.0000
  C   C7        1.0  0.92190  0.07083  0.29720  1.0000
  C   C8        1.0  0.07810  0.92917  0.29720  1.0000
  C   C9        1.0  0.42917  0.07810  0.04720  1.0000
  C   C10       1.0  0.57083  0.92190  0.04720  1.0000
  C   C11       1.0  0.07810  0.57083  0.95280  1.0000
  C   C12       1.0  0.92190  0.42917  0.95280  1.0000
  C   C13       1.0  0.07083  0.07810  0.70280  1.0000
  C   C14       1.0  0.92917  0.92190  0.70280  1.0000
  C   C15       1.0  0.42190  0.57083  0.79720  1.0000
  C   C16       1.0  0.57810  0.42917  0.79720  1.0000
  C   C17       1.0  0.89788  0.62254  0.42760  1.0000
  C   C18       1.0  0.10212  0.37746  0.42760  1.0000
  C   C19       1.0  0.62254  0.10212  0.57240  1.0000
  C   C20       1.0  0.37746  0.89788  0.57240  1.0000
  C   C21       1.0  0.60212  0.62254  0.32240  1.0000
  C   C22       1.0  0.39788  0.37746  0.32240  1.0000
  C   C23       1.0  0.87746  0.10212  0.17760  1.0000
  C   C24       1.0  0.12254  0.89788  0.17760  1.0000
  C   C25       1.0  0.39788  0.12254  0.92760  1.0000
  C   C26       1.0  0.60212  0.87746  0.92760  1.0000
  C   C27       1.0  0.12254  0.60212  0.07240  1.0000
  C   C28       1.0  0.87746  0.39788  0.07240  1.0000
  C   C29       1.0  0.10212  0.12254  0.82240  1.0000
  C   C30       1.0  0.89788  0.87746  0.82240  1.0000
  C   C31       1.0  0.37746  0.60212  0.67760  1.0000
  C   C32       1.0  0.62254  0.39788  0.67760  1.0000
  C   C33       1.0  0.85430  0.65320  0.52360  1.0000
  C   C34       1.0  0.14570  0.34680  0.52360  1.0000
  C   C35       1.0  0.65320  0.14570  0.47640  1.0000
  C   C36       1.0  0.34680  0.85430  0.47640  1.0000
  C   C37       1.0  0.64570  0.65320  0.22640  1.0000
  C   C38       1.0  0.35430  0.34680  0.22640  1.0000
  C   C39       1.0  0.84680  0.14570  0.27360  1.0000
  C   C40       1.0  0.15320  0.85430  0.27360  1.0000
  C   C41       1.0  0.35430  0.15320  0.02360  1.0000
  C   C42       1.0  0.64570  0.84680  0.02360  1.0000
  C   C43       1.0  0.15320  0.64570  0.97640  1.0000
  C   C44       1.0  0.84680  0.35430  0.97640  1.0000
  C   C45       1.0  0.14570  0.15320  0.72640  1.0000
  C   C46       1.0  0.85430  0.84680  0.72640  1.0000
  C   C47       1.0  0.34680  0.64570  0.77360  1.0000
  C   C48       1.0  0.65320  0.35430  0.77360  1.0000
  H   H1        1.0  0.84460  0.64470  0.65730  1.0000
  H   H2        1.0  0.15540  0.35530  0.65730  1.0000
  H   H3        1.0  0.64470  0.15540  0.34270  1.0000
  H   H4        1.0  0.35530  0.84460  0.34270  1.0000
  H   H5        1.0  0.65540  0.64470  0.09270  1.0000
  H   H6        1.0  0.34460  0.35530  0.09270  1.0000
  H   H7        1.0  0.85530  0.15540  0.40730  1.0000
  H   H8        1.0  0.14470  0.84460  0.40730  1.0000
  H   H9        1.0  0.34460  0.14470  0.15730  1.0000
  H   H10       1.0  0.65540  0.85530  0.15730  1.0000
  H   H11       1.0  0.14470  0.65540  0.84270  1.0000
  H   H12       1.0  0.85530  0.34460  0.84270  1.0000
  H   H13       1.0  0.15540  0.14470  0.59270  1.0000
  H   H14       1.0  0.84460  0.85530  0.59270  1.0000
  H   H15       1.0  0.35530  0.65540  0.90730  1.0000
  H   H16       1.0  0.64470  0.34460  0.90730  1.0000
  C   C49       1.0  0.82550  0.69620  0.42230  1.0000
  C   C50       1.0  0.17450  0.30380  0.42230  1.0000
  C   C51       1.0  0.69620  0.17450  0.57770  1.0000
  C   C52       1.0  0.30380  0.82550  0.57770  1.0000
  C   C53       1.0  0.67450  0.69620  0.32770  1.0000
  C   C54       1.0  0.32550  0.30380  0.32770  1.0000
  C   C55       1.0  0.80380  0.17450  0.17230  1.0000
  C   C56       1.0  0.19620  0.82550  0.17230  1.0000
  C   C57       1.0  0.32550  0.19620  0.92230  1.0000
  C   C58       1.0  0.67450  0.80380  0.92230  1.0000
  C   C59       1.0  0.19620  0.67450  0.07770  1.0000
  C   C60       1.0  0.80380  0.32550  0.07770  1.0000
  C   C61       1.0  0.17450  0.19620  0.82770  1.0000
  C   C62       1.0  0.82550  0.80380  0.82770  1.0000
  C   C63       1.0  0.30380  0.67450  0.67230  1.0000
  C   C64       1.0  0.69620  0.32550  0.67230  1.0000
  H   H17       1.0  0.79660  0.71660  0.48780  1.0000
  H   H18       1.0  0.20340  0.28340  0.48780  1.0000
  H   H19       1.0  0.71660  0.20340  0.51220  1.0000
  H   H20       1.0  0.28340  0.79660  0.51220  1.0000
  H   H21       1.0  0.70340  0.71660  0.26220  1.0000
  H   H22       1.0  0.29660  0.28340  0.26220  1.0000
  H   H23       1.0  0.78340  0.20340  0.23780  1.0000
  H   H24       1.0  0.21660  0.79660  0.23780  1.0000
  H   H25       1.0  0.29660  0.21660  0.98780  1.0000
  H   H26       1.0  0.70340  0.78340  0.98780  1.0000
  H   H27       1.0  0.21660  0.70340  0.01220  1.0000
  H   H28       1.0  0.78340  0.29660  0.01220  1.0000
  H   H29       1.0  0.20340  0.21660  0.76220  1.0000
  H   H30       1.0  0.79660  0.78340  0.76220  1.0000
  H   H31       1.0  0.28340  0.70340  0.73780  1.0000
  H   H32       1.0  0.71660  0.29660  0.73780  1.0000
  C   C65       1.0  0.83930  0.70867  0.22750  1.0000
  C   C66       1.0  0.16070  0.29133  0.22750  1.0000
  C   C67       1.0  0.70867  0.16070  0.77250  1.0000
  C   C68       1.0  0.29133  0.83930  0.77250  1.0000
  C   C69       1.0  0.66070  0.70867  0.52250  1.0000
  C   C70       1.0  0.33930  0.29133  0.52250  1.0000
  C   C71       1.0  0.79133  0.16070  0.97750  1.0000
  C   C72       1.0  0.20867  0.83930  0.97750  1.0000
  C   C73       1.0  0.33930  0.20867  0.72750  1.0000
  C   C74       1.0  0.66070  0.79133  0.72750  1.0000
  C   C75       1.0  0.20867  0.66070  0.27250  1.0000
  C   C76       1.0  0.79133  0.33930  0.27250  1.0000
  C   C77       1.0  0.16070  0.20867  0.02250  1.0000
  C   C78       1.0  0.83930  0.79133  0.02250  1.0000
  C   C79       1.0  0.29133  0.66070  0.47750  1.0000
  C   C80       1.0  0.70867  0.33930  0.47750  1.0000
  C   C81       1.0  0.88090  0.67560  0.12590  1.0000
  C   C82       1.0  0.11910  0.32440  0.12590  1.0000
  C   C83       1.0  0.67560  0.11910  0.87410  1.0000
  C   C84       1.0  0.32440  0.88090  0.87410  1.0000
  C   C85       1.0  0.61910  0.67560  0.62410  1.0000
  C   C86       1.0  0.38090  0.32440  0.62410  1.0000
  C   C87       1.0  0.82440  0.11910  0.87590  1.0000
  C   C88       1.0  0.17560  0.88090  0.87590  1.0000
  C   C89       1.0  0.38090  0.17560  0.62590  1.0000
  C   C90       1.0  0.61910  0.82440  0.62590  1.0000
  C   C91       1.0  0.17560  0.61910  0.37410  1.0000
  C   C92       1.0  0.82440  0.38090  0.37410  1.0000
  C   C93       1.0  0.11910  0.17560  0.12410  1.0000
  C   C94       1.0  0.88090  0.82440  0.12410  1.0000
  C   C95       1.0  0.32440  0.61910  0.37590  1.0000
  C   C96       1.0  0.67560  0.38090  0.37590  1.0000
  H   H33       1.0  0.88870  0.68230  0.98920  1.0000
  H   H34       1.0  0.11130  0.31770  0.98920  1.0000
  H   H35       1.0  0.68230  0.11130  0.01080  1.0000
  H   H36       1.0  0.31770  0.88870  0.01080  1.0000
  H   H37       1.0  0.61130  0.68230  0.76080  1.0000
  H   H38       1.0  0.38870  0.31770  0.76080  1.0000
  H   H39       1.0  0.81770  0.11130  0.73920  1.0000
  H   H40       1.0  0.18230  0.88870  0.73920  1.0000
  H   H41       1.0  0.38870  0.18230  0.48920  1.0000
  H   H42       1.0  0.61130  0.81770  0.48920  1.0000
  H   H43       1.0  0.18230  0.61130  0.51080  1.0000
  H   H44       1.0  0.81770  0.38870  0.51080  1.0000
  H   H45       1.0  0.11130  0.18230  0.26080  1.0000
  H   H46       1.0  0.88870  0.81770  0.26080  1.0000
  H   H47       1.0  0.31770  0.61130  0.23920  1.0000
  H   H48       1.0  0.68230  0.38870  0.23920  1.0000
  C   C97       1.0  0.90989  0.63389  0.22810  1.0000
  C   C98       1.0  0.09011  0.36611  0.22810  1.0000
  C   C99       1.0  0.63389  0.09011  0.77190  1.0000
  C   C100      1.0  0.36611  0.90989  0.77190  1.0000
  C   C101      1.0  0.59011  0.63389  0.52190  1.0000
  C   C102      1.0  0.40989  0.36611  0.52190  1.0000
  C   C103      1.0  0.86611  0.09011  0.97810  1.0000
  C   C104      1.0  0.13389  0.90989  0.97810  1.0000
  C   C105      1.0  0.40989  0.13389  0.72810  1.0000
  C   C106      1.0  0.59011  0.86611  0.72810  1.0000
  C   C107      1.0  0.13389  0.59011  0.27190  1.0000
  C   C108      1.0  0.86611  0.40989  0.27190  1.0000
  C   C109      1.0  0.09011  0.13389  0.02190  1.0000
  C   C110      1.0  0.90989  0.86611  0.02190  1.0000
  C   C111      1.0  0.36611  0.59011  0.47810  1.0000
  C   C112      1.0  0.63389  0.40989  0.47810  1.0000
  H   H49       1.0  0.93810  0.61290  0.16160  1.0000
  H   H50       1.0  0.06190  0.38710  0.16160  1.0000
  H   H51       1.0  0.61290  0.06190  0.83840  1.0000
  H   H52       1.0  0.38710  0.93810  0.83840  1.0000
  H   H53       1.0  0.56190  0.61290  0.58840  1.0000
  H   H54       1.0  0.43810  0.38710  0.58840  1.0000
  H   H55       1.0  0.88710  0.06190  0.91160  1.0000
  H   H56       1.0  0.11290  0.93810  0.91160  1.0000
  H   H57       1.0  0.43810  0.11290  0.66160  1.0000
  H   H58       1.0  0.56190  0.88710  0.66160  1.0000
  H   H59       1.0  0.11290  0.56190  0.33840  1.0000
  H   H60       1.0  0.88710  0.43810  0.33840  1.0000
  H   H61       1.0  0.06190  0.11290  0.08840  1.0000
  H   H62       1.0  0.93810  0.88710  0.08840  1.0000
  H   H63       1.0  0.38710  0.56190  0.41160  1.0000
  H   H64       1.0  0.61290  0.43810  0.41160  1.0000
  Li  Li1       1.0  0.00000  0.50000  0.25000  1.0000
  Li  Li2       1.0  0.50000  0.00000  0.75000  1.0000
  Li  Li3       1.0  0.50000  0.50000  0.50000  1.0000
  Li  Li4       1.0  0.00000  0.00000  0.00000  1.0000
