data_image0
_chemical_formula_structural       V16Na16O24H4O12H4O4H4O96N160C12H4C4H4C4H8C4H8C12H4C4H4C4H8C4H8C12H4C4H4C4H8C4H8C12H4C4H4C4H8C4H8C12H4C4H4C4H8C4H8C12H4C4H4C4H8C4H8C12H4C4H4C4H8C4H8C12H4C4H4C4H8C4H8C12H4C4H4C4H8C4H8C12H4C4H4C4H8C4H8
_chemical_formula_sum              "V16 Na16 O136 H252 N160 C240"
_cell_length_a       9.6197
_cell_length_b       28.063
_cell_length_c       34.34
_cell_angle_alpha    90
_cell_angle_beta     90.078
_cell_angle_gamma    90

_space_group_name_H-M_alt    "P 1"
_space_group_IT_number       1

loop_
  _space_group_symop_operation_xyz
  'x, y, z'

loop_
  _atom_site_type_symbol
  _atom_site_label
  _atom_site_symmetry_multiplicity
  _atom_site_fract_x
  _atom_site_fract_y
  _atom_site_fract_z
  _atom_site_occupancy
  V   V1        1.0  0.73311  0.94894  0.21115  1.0000
  V   V2        1.0  0.26689  0.44894  0.28885  1.0000
  V   V3        1.0  0.26689  0.05106  0.78885  1.0000
  V   V4        1.0  0.73311  0.55106  0.71115  1.0000
  V   V5        1.0  0.73433  0.80069  0.20951  1.0000
  V   V6        1.0  0.26567  0.30069  0.29049  1.0000
  V   V7        1.0  0.26567  0.19931  0.79049  1.0000
  V   V8        1.0  0.73433  0.69931  0.70951  1.0000
  V   V9        1.0  0.51713  0.87506  0.16272  1.0000
  V   V10       1.0  0.48287  0.37506  0.33728  1.0000
  V   V11       1.0  0.48287  0.12494  0.83728  1.0000
  V   V12       1.0  0.51713  0.62494  0.66272  1.0000
  V   V13       1.0  0.99385  0.87485  0.21317  1.0000
  V   V14       1.0  0.00615  0.37485  0.28683  1.0000
  V   V15       1.0  0.00615  0.12515  0.78683  1.0000
  V   V16       1.0  0.99385  0.62515  0.71317  1.0000
  Na  Na1       1.0  0.75003  0.07535  0.15843  1.0000
  Na  Na2       1.0  0.24997  0.57535  0.34157  1.0000
  Na  Na3       1.0  0.24997  0.92465  0.84157  1.0000
  Na  Na4       1.0  0.75003  0.42465  0.65843  1.0000
  Na  Na5       1.0  0.74831  0.67243  0.15413  1.0000
  Na  Na6       1.0  0.25169  0.17243  0.34587  1.0000
  Na  Na7       1.0  0.25169  0.32757  0.84587  1.0000
  Na  Na8       1.0  0.74831  0.82757  0.65413  1.0000
  Na  Na9       1.0  0.75435  0.12298  0.04903  1.0000
  Na  Na10      1.0  0.24565  0.62298  0.45097  1.0000
  Na  Na11      1.0  0.24565  0.87702  0.95097  1.0000
  Na  Na12      1.0  0.75435  0.37702  0.54903  1.0000
  Na  Na13      1.0  0.75338  0.62550  0.04212  1.0000
  Na  Na14      1.0  0.24662  0.12550  0.45788  1.0000
  Na  Na15      1.0  0.24662  0.37450  0.95788  1.0000
  Na  Na16      1.0  0.75338  0.87450  0.54212  1.0000
  O   O1        1.0  0.74980  0.00715  0.20836  1.0000
  O   O2        1.0  0.25020  0.50715  0.29164  1.0000
  O   O3        1.0  0.25020  0.99285  0.79164  1.0000
  O   O4        1.0  0.74980  0.49285  0.70836  1.0000
  O   O5        1.0  0.65960  0.93601  0.25325  1.0000
  O   O6        1.0  0.34040  0.43601  0.24675  1.0000
  O   O7        1.0  0.34040  0.06399  0.74675  1.0000
  O   O8        1.0  0.65960  0.56399  0.75325  1.0000
  O   O9        1.0  0.74660  0.74273  0.20528  1.0000
  O   O10       1.0  0.25340  0.24273  0.29472  1.0000
  O   O11       1.0  0.25340  0.25727  0.79472  1.0000
  O   O12       1.0  0.74660  0.75727  0.70528  1.0000
  O   O13       1.0  0.66380  0.81275  0.25145  1.0000
  O   O14       1.0  0.33620  0.31275  0.24855  1.0000
  O   O15       1.0  0.33620  0.18725  0.74855  1.0000
  O   O16       1.0  0.66380  0.68725  0.75145  1.0000
  O   O17       1.0  0.46980  0.87557  0.11635  1.0000
  O   O18       1.0  0.53020  0.37557  0.38365  1.0000
  O   O19       1.0  0.53020  0.12443  0.88365  1.0000
  O   O20       1.0  0.46980  0.62443  0.61635  1.0000
  O   O21       1.0  0.38210  0.87322  0.19104  1.0000
  O   O22       1.0  0.61790  0.37322  0.30896  1.0000
  O   O23       1.0  0.61790  0.12678  0.80896  1.0000
  O   O24       1.0  0.38210  0.62678  0.69104  1.0000
  H   H1        1.0  0.31120  0.88160  0.17850  1.0000
  H   H2        1.0  0.68880  0.38160  0.32150  1.0000
  H   H3        1.0  0.68880  0.11840  0.82150  1.0000
  H   H4        1.0  0.31120  0.61840  0.67850  1.0000
  O   O25       1.0  0.07790  0.87532  0.25552  1.0000
  O   O26       1.0  0.92210  0.37532  0.24448  1.0000
  O   O27       1.0  0.92210  0.12468  0.74448  1.0000
  O   O28       1.0  0.07790  0.62468  0.75552  1.0000
  O   O29       1.0  0.11450  0.87530  0.17847  1.0000
  O   O30       1.0  0.88550  0.37530  0.32153  1.0000
  O   O31       1.0  0.88550  0.12470  0.82153  1.0000
  O   O32       1.0  0.11450  0.62470  0.67847  1.0000
  O   O33       1.0  0.74890  0.13924  0.11460  1.0000
  O   O34       1.0  0.25110  0.63924  0.38540  1.0000
  O   O35       1.0  0.25110  0.86076  0.88540  1.0000
  O   O36       1.0  0.74890  0.36076  0.61460  1.0000
  H   H5        1.0  0.74630  0.17120  0.12370  1.0000
  H   H6        1.0  0.25370  0.67120  0.37630  1.0000
  H   H7        1.0  0.25370  0.82880  0.87630  1.0000
  H   H8        1.0  0.74630  0.32880  0.62370  1.0000
  O   O37       1.0  0.74670  0.61035  0.10891  1.0000
  O   O38       1.0  0.25330  0.11035  0.39109  1.0000
  O   O39       1.0  0.25330  0.38965  0.89109  1.0000
  O   O40       1.0  0.74670  0.88965  0.60891  1.0000
  H   H9        1.0  0.74330  0.57830  0.11790  1.0000
  H   H10       1.0  0.25670  0.07830  0.38210  1.0000
  H   H11       1.0  0.25670  0.42170  0.88210  1.0000
  H   H12       1.0  0.74330  0.92170  0.61790  1.0000
  O   O41       1.0  0.56910  0.12065  0.19088  1.0000
  O   O42       1.0  0.43090  0.62065  0.30912  1.0000
  O   O43       1.0  0.43090  0.87935  0.80912  1.0000
  O   O44       1.0  0.56910  0.37935  0.69088  1.0000
  O   O45       1.0  0.92810  0.11856  0.18936  1.0000
  O   O46       1.0  0.07190  0.61856  0.31064  1.0000
  O   O47       1.0  0.07190  0.88144  0.81064  1.0000
  O   O48       1.0  0.92810  0.38144  0.68936  1.0000
  O   O49       1.0  0.56150  0.03676  0.13129  1.0000
  O   O50       1.0  0.43850  0.53676  0.36871  1.0000
  O   O51       1.0  0.43850  0.96324  0.86871  1.0000
  O   O52       1.0  0.56150  0.46324  0.63129  1.0000
  O   O53       1.0  0.93310  0.03195  0.13081  1.0000
  O   O54       1.0  0.06690  0.53195  0.36919  1.0000
  O   O55       1.0  0.06690  0.96805  0.86919  1.0000
  O   O56       1.0  0.93310  0.46805  0.63081  1.0000
  O   O57       1.0  0.57850  0.06660  0.03822  1.0000
  O   O58       1.0  0.42150  0.56660  0.46178  1.0000
  O   O59       1.0  0.42150  0.93340  0.96178  1.0000
  O   O60       1.0  0.57850  0.43340  0.53822  1.0000
  O   O61       1.0  0.93340  0.06857  0.03730  1.0000
  O   O62       1.0  0.06660  0.56857  0.46270  1.0000
  O   O63       1.0  0.06660  0.93143  0.96270  1.0000
  O   O64       1.0  0.93340  0.43143  0.53730  1.0000
  O   O65       1.0  0.57600  0.18071  0.04050  1.0000
  O   O66       1.0  0.42400  0.68071  0.45950  1.0000
  O   O67       1.0  0.42400  0.81929  0.95950  1.0000
  O   O68       1.0  0.57600  0.31929  0.54050  1.0000
  O   O69       1.0  0.93180  0.17927  0.03775  1.0000
  O   O70       1.0  0.06820  0.67927  0.46225  1.0000
  O   O71       1.0  0.06820  0.82073  0.96225  1.0000
  O   O72       1.0  0.93180  0.32073  0.53775  1.0000
  O   O73       1.0  0.57990  0.21663  0.13560  1.0000
  O   O74       1.0  0.42010  0.71663  0.36440  1.0000
  O   O75       1.0  0.42010  0.78337  0.86440  1.0000
  O   O76       1.0  0.57990  0.28337  0.63560  1.0000
  O   O77       1.0  0.93440  0.21010  0.13066  1.0000
  O   O78       1.0  0.06560  0.71010  0.36934  1.0000
  O   O79       1.0  0.06560  0.78990  0.86934  1.0000
  O   O80       1.0  0.93440  0.28990  0.63066  1.0000
  O   O81       1.0  0.56190  0.71348  0.12886  1.0000
  O   O82       1.0  0.43810  0.21348  0.37114  1.0000
  O   O83       1.0  0.43810  0.28652  0.87114  1.0000
  O   O84       1.0  0.56190  0.78652  0.62886  1.0000
  O   O85       1.0  0.92950  0.71845  0.12798  1.0000
  O   O86       1.0  0.07050  0.21845  0.37202  1.0000
  O   O87       1.0  0.07050  0.28155  0.87202  1.0000
  O   O88       1.0  0.92950  0.78155  0.62798  1.0000
  O   O89       1.0  0.56920  0.62950  0.18786  1.0000
  O   O90       1.0  0.43080  0.12950  0.31214  1.0000
  O   O91       1.0  0.43080  0.37050  0.81214  1.0000
  O   O92       1.0  0.56920  0.87050  0.68786  1.0000
  O   O93       1.0  0.92650  0.63125  0.18656  1.0000
  O   O94       1.0  0.07350  0.13125  0.31344  1.0000
  O   O95       1.0  0.07350  0.36875  0.81344  1.0000
  O   O96       1.0  0.92650  0.86875  0.68656  1.0000
  O   O97       1.0  0.57640  0.53279  0.13253  1.0000
  O   O98       1.0  0.42360  0.03279  0.36747  1.0000
  O   O99       1.0  0.42360  0.46721  0.86747  1.0000
  O   O100      1.0  0.57640  0.96721  0.63253  1.0000
  O   O101      1.0  0.93420  0.54002  0.12802  1.0000
  O   O102      1.0  0.06580  0.04002  0.37198  1.0000
  O   O103      1.0  0.06580  0.45998  0.87198  1.0000
  O   O104      1.0  0.93420  0.95998  0.62802  1.0000
  O   O105      1.0  0.57110  0.56795  0.03702  1.0000
  O   O106      1.0  0.42890  0.06795  0.46298  1.0000
  O   O107      1.0  0.42890  0.43205  0.96298  1.0000
  O   O108      1.0  0.57110  0.93205  0.53702  1.0000
  O   O109      1.0  0.93220  0.56995  0.03616  1.0000
  O   O110      1.0  0.06780  0.06995  0.46384  1.0000
  O   O111      1.0  0.06780  0.43005  0.96384  1.0000
  O   O112      1.0  0.93220  0.93005  0.53616  1.0000
  O   O113      1.0  0.57560  0.68279  0.03604  1.0000
  O   O114      1.0  0.42440  0.18279  0.46396  1.0000
  O   O115      1.0  0.42440  0.31721  0.96396  1.0000
  O   O116      1.0  0.57560  0.81721  0.53604  1.0000
  O   O117      1.0  0.93200  0.67952  0.03443  1.0000
  O   O118      1.0  0.06800  0.17952  0.46557  1.0000
  O   O119      1.0  0.06800  0.32048  0.96557  1.0000
  O   O120      1.0  0.93200  0.82048  0.53443  1.0000
  O   O121      1.0  0.62280  0.82273  0.17018  1.0000
  O   O122      1.0  0.37720  0.32273  0.32982  1.0000
  O   O123      1.0  0.37720  0.17727  0.82982  1.0000
  O   O124      1.0  0.62280  0.67727  0.67018  1.0000
  O   O125      1.0  0.62120  0.92709  0.17183  1.0000
  O   O126      1.0  0.37880  0.42709  0.32817  1.0000
  O   O127      1.0  0.37880  0.07291  0.82817  1.0000
  O   O128      1.0  0.62120  0.57291  0.67183  1.0000
  O   O129      1.0  0.90050  0.92227  0.20636  1.0000
  O   O130      1.0  0.09950  0.42227  0.29364  1.0000
  O   O131      1.0  0.09950  0.07773  0.79364  1.0000
  O   O132      1.0  0.90050  0.57773  0.70636  1.0000
  O   O133      1.0  0.90400  0.82737  0.20590  1.0000
  O   O134      1.0  0.09600  0.32737  0.29410  1.0000
  O   O135      1.0  0.09600  0.17263  0.79410  1.0000
  O   O136      1.0  0.90400  0.67263  0.70590  1.0000
  N   N1        1.0  0.37090  0.16002  0.21074  1.0000
  N   N2        1.0  0.62910  0.66002  0.28926  1.0000
  N   N3        1.0  0.62910  0.83998  0.78926  1.0000
  N   N4        1.0  0.37090  0.33998  0.71074  1.0000
  N   N5        1.0  0.12170  0.15804  0.21577  1.0000
  N   N6        1.0  0.87830  0.65804  0.28423  1.0000
  N   N7        1.0  0.87830  0.84196  0.78423  1.0000
  N   N8        1.0  0.12170  0.34196  0.71577  1.0000
  N   N9        1.0  0.37890  0.07970  0.21614  1.0000
  N   N10       1.0  0.62110  0.57970  0.28386  1.0000
  N   N11       1.0  0.62110  0.92030  0.78386  1.0000
  N   N12       1.0  0.37890  0.42030  0.71614  1.0000
  N   N13       1.0  0.12030  0.07952  0.21253  1.0000
  N   N14       1.0  0.87970  0.57952  0.28747  1.0000
  N   N15       1.0  0.87970  0.92048  0.78747  1.0000
  N   N16       1.0  0.12030  0.42048  0.71253  1.0000
  N   N17       1.0  0.37480  0.01564  0.16928  1.0000
  N   N18       1.0  0.62520  0.51564  0.33072  1.0000
  N   N19       1.0  0.62520  0.98436  0.83072  1.0000
  N   N20       1.0  0.37480  0.48436  0.66928  1.0000
  N   N21       1.0  0.11970  0.01193  0.16944  1.0000
  N   N22       1.0  0.88030  0.51193  0.33056  1.0000
  N   N23       1.0  0.88030  0.98807  0.83056  1.0000
  N   N24       1.0  0.11970  0.48807  0.66944  1.0000
  N   N25       1.0  0.37920  0.99230  0.10727  1.0000
  N   N26       1.0  0.62080  0.49230  0.39273  1.0000
  N   N27       1.0  0.62080  0.00770  0.89273  1.0000
  N   N28       1.0  0.37920  0.50770  0.60727  1.0000
  N   N29       1.0  0.12340  0.99243  0.10704  1.0000
  N   N30       1.0  0.87660  0.49243  0.39296  1.0000
  N   N31       1.0  0.87660  0.00757  0.89296  1.0000
  N   N32       1.0  0.12340  0.50757  0.60704  1.0000
  N   N33       1.0  0.38300  0.01830  0.03975  1.0000
  N   N34       1.0  0.61700  0.51830  0.46025  1.0000
  N   N35       1.0  0.61700  0.98170  0.96025  1.0000
  N   N36       1.0  0.38300  0.48170  0.53975  1.0000
  N   N37       1.0  0.12530  0.01860  0.03998  1.0000
  N   N38       1.0  0.87470  0.51860  0.46002  1.0000
  N   N39       1.0  0.87470  0.98140  0.96002  1.0000
  N   N40       1.0  0.12530  0.48140  0.53998  1.0000
  N   N41       1.0  0.38330  0.08150  0.99979  1.0000
  N   N42       1.0  0.61670  0.58150  0.50021  1.0000
  N   N43       1.0  0.61670  0.91850  0.00021  1.0000
  N   N44       1.0  0.38330  0.41850  0.49979  1.0000
  N   N45       1.0  0.12740  0.08100  0.00017  1.0000
  N   N46       1.0  0.87260  0.58100  0.49983  1.0000
  N   N47       1.0  0.87260  0.91900  0.99983  1.0000
  N   N48       1.0  0.12740  0.41900  0.50017  1.0000
  N   N49       1.0  0.38110  0.16720  0.00119  1.0000
  N   N50       1.0  0.61890  0.66720  0.49881  1.0000
  N   N51       1.0  0.61890  0.83280  0.99881  1.0000
  N   N52       1.0  0.38110  0.33280  0.50119  1.0000
  N   N53       1.0  0.12850  0.16790  0.00077  1.0000
  N   N54       1.0  0.87150  0.66790  0.49923  1.0000
  N   N55       1.0  0.87150  0.83210  0.99923  1.0000
  N   N56       1.0  0.12850  0.33210  0.50077  1.0000
  N   N57       1.0  0.38260  0.22740  0.04181  1.0000
  N   N58       1.0  0.61740  0.72740  0.45819  1.0000
  N   N59       1.0  0.61740  0.77260  0.95819  1.0000
  N   N60       1.0  0.38260  0.27260  0.54181  1.0000
  N   N61       1.0  0.12700  0.22980  0.04096  1.0000
  N   N62       1.0  0.87300  0.72980  0.45904  1.0000
  N   N63       1.0  0.87300  0.77020  0.95904  1.0000
  N   N64       1.0  0.12700  0.27020  0.54096  1.0000
  N   N65       1.0  0.38200  0.25178  0.11059  1.0000
  N   N66       1.0  0.61800  0.75178  0.38941  1.0000
  N   N67       1.0  0.61800  0.74822  0.88941  1.0000
  N   N68       1.0  0.38200  0.24822  0.61059  1.0000
  N   N69       1.0  0.12770  0.25180  0.10806  1.0000
  N   N70       1.0  0.87230  0.75180  0.39194  1.0000
  N   N71       1.0  0.87230  0.74820  0.89194  1.0000
  N   N72       1.0  0.12770  0.24820  0.60806  1.0000
  N   N73       1.0  0.38150  0.23166  0.17266  1.0000
  N   N74       1.0  0.61850  0.73166  0.32734  1.0000
  N   N75       1.0  0.61850  0.76834  0.82734  1.0000
  N   N76       1.0  0.38150  0.26834  0.67266  1.0000
  N   N77       1.0  0.13100  0.22338  0.16861  1.0000
  N   N78       1.0  0.86900  0.72338  0.33139  1.0000
  N   N79       1.0  0.86900  0.77662  0.83139  1.0000
  N   N80       1.0  0.13100  0.27662  0.66861  1.0000
  N   N81       1.0  0.37760  0.75600  0.10379  1.0000
  N   N82       1.0  0.62240  0.25600  0.39621  1.0000
  N   N83       1.0  0.62240  0.24400  0.89621  1.0000
  N   N84       1.0  0.37760  0.74400  0.60379  1.0000
  N   N85       1.0  0.12420  0.75683  0.10267  1.0000
  N   N86       1.0  0.87580  0.25683  0.39733  1.0000
  N   N87       1.0  0.87580  0.24317  0.89733  1.0000
  N   N88       1.0  0.12420  0.74317  0.60267  1.0000
  N   N89       1.0  0.37110  0.73483  0.16561  1.0000
  N   N90       1.0  0.62890  0.23483  0.33439  1.0000
  N   N91       1.0  0.62890  0.26517  0.83439  1.0000
  N   N92       1.0  0.37110  0.76517  0.66561  1.0000
  N   N93       1.0  0.12160  0.73781  0.16560  1.0000
  N   N94       1.0  0.87840  0.23781  0.33440  1.0000
  N   N95       1.0  0.87840  0.26219  0.83440  1.0000
  N   N96       1.0  0.12160  0.76219  0.66560  1.0000
  N   N97       1.0  0.37880  0.66953  0.21255  1.0000
  N   N98       1.0  0.62120  0.16953  0.28745  1.0000
  N   N99       1.0  0.62120  0.33047  0.78745  1.0000
  N   N100      1.0  0.37880  0.83047  0.71255  1.0000
  N   N101      1.0  0.12530  0.66934  0.20992  1.0000
  N   N102      1.0  0.87470  0.16934  0.29008  1.0000
  N   N103      1.0  0.87470  0.33066  0.79008  1.0000
  N   N104      1.0  0.12530  0.83066  0.70992  1.0000
  N   N105      1.0  0.36950  0.59030  0.20860  1.0000
  N   N106      1.0  0.63050  0.09030  0.29140  1.0000
  N   N107      1.0  0.63050  0.40970  0.79140  1.0000
  N   N108      1.0  0.36950  0.90970  0.70860  1.0000
  N   N109      1.0  0.11130  0.59090  0.21247  1.0000
  N   N110      1.0  0.88870  0.09090  0.28753  1.0000
  N   N111      1.0  0.88870  0.40910  0.78753  1.0000
  N   N112      1.0  0.11130  0.90910  0.71247  1.0000
  N   N113      1.0  0.38490  0.51826  0.17021  1.0000
  N   N114      1.0  0.61510  0.01826  0.32979  1.0000
  N   N115      1.0  0.61510  0.48174  0.82979  1.0000
  N   N116      1.0  0.38490  0.98174  0.67021  1.0000
  N   N117      1.0  0.12780  0.52637  0.16589  1.0000
  N   N118      1.0  0.87220  0.02637  0.33411  1.0000
  N   N119      1.0  0.87220  0.47363  0.83411  1.0000
  N   N120      1.0  0.12780  0.97363  0.66589  1.0000
  N   N121      1.0  0.38010  0.49715  0.10754  1.0000
  N   N122      1.0  0.61990  0.99715  0.39246  1.0000
  N   N123      1.0  0.61990  0.50285  0.89246  1.0000
  N   N124      1.0  0.38010  0.00285  0.60754  1.0000
  N   N125      1.0  0.12210  0.49602  0.10683  1.0000
  N   N126      1.0  0.87790  0.99602  0.39317  1.0000
  N   N127      1.0  0.87790  0.50398  0.89317  1.0000
  N   N128      1.0  0.12210  0.00398  0.60683  1.0000
  N   N129      1.0  0.38070  0.51960  0.03900  1.0000
  N   N130      1.0  0.61930  0.01960  0.46100  1.0000
  N   N131      1.0  0.61930  0.48040  0.96100  1.0000
  N   N132      1.0  0.38070  0.98040  0.53900  1.0000
  N   N133      1.0  0.12200  0.51837  0.03856  1.0000
  N   N134      1.0  0.87800  0.01837  0.46144  1.0000
  N   N135      1.0  0.87800  0.48163  0.96144  1.0000
  N   N136      1.0  0.12200  0.98163  0.53856  1.0000
  N   N137      1.0  0.37930  0.58170  0.99800  1.0000
  N   N138      1.0  0.62070  0.08170  0.50200  1.0000
  N   N139      1.0  0.62070  0.41830  0.00200  1.0000
  N   N140      1.0  0.37930  0.91830  0.49800  1.0000
  N   N141      1.0  0.12700  0.58100  0.99787  1.0000
  N   N142      1.0  0.87300  0.08100  0.50213  1.0000
  N   N143      1.0  0.87300  0.41900  0.00213  1.0000
  N   N144      1.0  0.12700  0.91900  0.49787  1.0000
  N   N145      1.0  0.38120  0.66730  0.99780  1.0000
  N   N146      1.0  0.61880  0.16730  0.50220  1.0000
  N   N147      1.0  0.61880  0.33270  0.00220  1.0000
  N   N148      1.0  0.38120  0.83270  0.49780  1.0000
  N   N149      1.0  0.12690  0.66840  0.99663  1.0000
  N   N150      1.0  0.87310  0.16840  0.50337  1.0000
  N   N151      1.0  0.87310  0.33160  0.00337  1.0000
  N   N152      1.0  0.12690  0.83160  0.49663  1.0000
  N   N153      1.0  0.38180  0.72940  0.03639  1.0000
  N   N154      1.0  0.61820  0.22940  0.46361  1.0000
  N   N155      1.0  0.61820  0.27060  0.96361  1.0000
  N   N156      1.0  0.38180  0.77060  0.53639  1.0000
  N   N157      1.0  0.12680  0.72940  0.03644  1.0000
  N   N158      1.0  0.87320  0.22940  0.46356  1.0000
  N   N159      1.0  0.87320  0.27060  0.96356  1.0000
  N   N160      1.0  0.12680  0.77060  0.53644  1.0000
  C   C1        1.0  0.45130  0.12020  0.20416  1.0000
  C   C2        1.0  0.54870  0.62020  0.29584  1.0000
  C   C3        1.0  0.54870  0.87980  0.79584  1.0000
  C   C4        1.0  0.45130  0.37980  0.70416  1.0000
  C   C5        1.0  0.04590  0.11820  0.20320  1.0000
  C   C6        1.0  0.95410  0.61820  0.29680  1.0000
  C   C7        1.0  0.95410  0.88180  0.79680  1.0000
  C   C8        1.0  0.04590  0.38180  0.70320  1.0000
  C   C9        1.0  0.24800  0.14820  0.23425  1.0000
  C   C10       1.0  0.75200  0.64820  0.26575  1.0000
  C   C11       1.0  0.75200  0.85180  0.76575  1.0000
  C   C12       1.0  0.24800  0.35180  0.73425  1.0000
  H   H13       1.0  0.25280  0.16190  0.26110  1.0000
  H   H14       1.0  0.74720  0.66190  0.23890  1.0000
  H   H15       1.0  0.74720  0.83810  0.73890  1.0000
  H   H16       1.0  0.25280  0.33810  0.76110  1.0000
  C   C13       1.0  0.24850  0.09230  0.23430  1.0000
  C   C14       1.0  0.75150  0.59230  0.26570  1.0000
  C   C15       1.0  0.75150  0.90770  0.76570  1.0000
  C   C16       1.0  0.24850  0.40770  0.73430  1.0000
  H   H17       1.0  0.24450  0.07970  0.26150  1.0000
  H   H18       1.0  0.75550  0.57970  0.23850  1.0000
  H   H19       1.0  0.75550  0.92030  0.73850  1.0000
  H   H20       1.0  0.24450  0.42030  0.76150  1.0000
  C   C17       1.0  0.42140  0.03380  0.20595  1.0000
  C   C18       1.0  0.57860  0.53380  0.29405  1.0000
  C   C19       1.0  0.57860  0.96620  0.79405  1.0000
  C   C20       1.0  0.42140  0.46620  0.70595  1.0000
  H   H21       1.0  0.38950  0.01160  0.22650  1.0000
  H   H22       1.0  0.61050  0.51160  0.27350  1.0000
  H   H23       1.0  0.61050  0.98840  0.77350  1.0000
  H   H24       1.0  0.38950  0.48840  0.72650  1.0000
  H   H25       1.0  0.52430  0.03310  0.20600  1.0000
  H   H26       1.0  0.47570  0.53310  0.29400  1.0000
  H   H27       1.0  0.47570  0.96690  0.79400  1.0000
  H   H28       1.0  0.52430  0.46690  0.70600  1.0000
  C   C21       1.0  0.07670  0.03120  0.20599  1.0000
  C   C22       1.0  0.92330  0.53120  0.29401  1.0000
  C   C23       1.0  0.92330  0.96880  0.79401  1.0000
  C   C24       1.0  0.07670  0.46880  0.70599  1.0000
  H   H29       1.0  0.11440  0.01100  0.22710  1.0000
  H   H30       1.0  0.88560  0.51100  0.27290  1.0000
  H   H31       1.0  0.88560  0.98900  0.77290  1.0000
  H   H32       1.0  0.11440  0.48900  0.72710  1.0000
  H   H33       1.0  0.97400  0.02980  0.20750  1.0000
  H   H34       1.0  0.02600  0.52980  0.29250  1.0000
  H   H35       1.0  0.02600  0.97020  0.79250  1.0000
  H   H36       1.0  0.97400  0.47020  0.70750  1.0000
  C   C25       1.0  0.45020  0.01780  0.13525  1.0000
  C   C26       1.0  0.54980  0.51780  0.36475  1.0000
  C   C27       1.0  0.54980  0.98220  0.86475  1.0000
  C   C28       1.0  0.45020  0.48220  0.63525  1.0000
  C   C29       1.0  0.04650  0.01280  0.13597  1.0000
  C   C30       1.0  0.95350  0.51280  0.36403  1.0000
  C   C31       1.0  0.95350  0.98720  0.86403  1.0000
  C   C32       1.0  0.04650  0.48720  0.63597  1.0000
  C   C33       1.0  0.25400  0.98620  0.16500  1.0000
  C   C34       1.0  0.74600  0.48620  0.33500  1.0000
  C   C35       1.0  0.74600  0.01380  0.83500  1.0000
  C   C36       1.0  0.25400  0.51380  0.66500  1.0000
  H   H37       1.0  0.25860  0.95780  0.18250  1.0000
  H   H38       1.0  0.74140  0.45780  0.31750  1.0000
  H   H39       1.0  0.74140  0.04220  0.81750  1.0000
  H   H40       1.0  0.25860  0.54220  0.68250  1.0000
  C   C37       1.0  0.24980  0.97110  0.12171  1.0000
  C   C38       1.0  0.75020  0.47110  0.37829  1.0000
  C   C39       1.0  0.75020  0.02890  0.87829  1.0000
  C   C40       1.0  0.24980  0.52890  0.62171  1.0000
  H   H41       1.0  0.24940  0.93570  0.11870  1.0000
  H   H42       1.0  0.75060  0.43570  0.38130  1.0000
  H   H43       1.0  0.75060  0.06430  0.88130  1.0000
  H   H44       1.0  0.24940  0.56430  0.61870  1.0000
  C   C41       1.0  0.43660  0.98550  0.06872  1.0000
  C   C42       1.0  0.56340  0.48550  0.43128  1.0000
  C   C43       1.0  0.56340  0.01450  0.93128  1.0000
  C   C44       1.0  0.43660  0.51450  0.56872  1.0000
  H   H45       1.0  0.41670  0.95250  0.06010  1.0000
  H   H46       1.0  0.58330  0.45250  0.43990  1.0000
  H   H47       1.0  0.58330  0.04750  0.93990  1.0000
  H   H48       1.0  0.41670  0.54750  0.56010  1.0000
  H   H49       1.0  0.53880  0.98920  0.07020  1.0000
  H   H50       1.0  0.46120  0.48920  0.42980  1.0000
  H   H51       1.0  0.46120  0.01080  0.92980  1.0000
  H   H52       1.0  0.53880  0.51080  0.57020  1.0000
  C   C45       1.0  0.07250  0.98520  0.06780  1.0000
  C   C46       1.0  0.92750  0.48520  0.43220  1.0000
  C   C47       1.0  0.92750  0.01480  0.93220  1.0000
  C   C48       1.0  0.07250  0.51480  0.56780  1.0000
  H   H53       1.0  0.09770  0.95260  0.05930  1.0000
  H   H54       1.0  0.90230  0.45260  0.44070  1.0000
  H   H55       1.0  0.90230  0.04740  0.94070  1.0000
  H   H56       1.0  0.09770  0.54740  0.55930  1.0000
  H   H57       1.0  0.96980  0.98740  0.06800  1.0000
  H   H58       1.0  0.03020  0.48740  0.43200  1.0000
  H   H59       1.0  0.03020  0.01260  0.93200  1.0000
  H   H60       1.0  0.96980  0.51260  0.56800  1.0000
  C   C49       1.0  0.45700  0.05650  0.02730  1.0000
  C   C50       1.0  0.54300  0.55650  0.47270  1.0000
  C   C51       1.0  0.54300  0.94350  0.97270  1.0000
  C   C52       1.0  0.45700  0.44350  0.52730  1.0000
  C   C53       1.0  0.04730  0.05780  0.02809  1.0000
  C   C54       1.0  0.95270  0.55780  0.47191  1.0000
  C   C55       1.0  0.95270  0.94220  0.97191  1.0000
  C   C56       1.0  0.04730  0.44220  0.52809  1.0000
  C   C57       1.0  0.25400  0.01270  0.01823  1.0000
  C   C58       1.0  0.74600  0.51270  0.48177  1.0000
  C   C59       1.0  0.74600  0.98730  0.98177  1.0000
  C   C60       1.0  0.25400  0.48730  0.51823  1.0000
  H   H61       1.0  0.25360  0.98220  0.00320  1.0000
  H   H62       1.0  0.74640  0.48220  0.49680  1.0000
  H   H63       1.0  0.74640  0.01780  0.99680  1.0000
  H   H64       1.0  0.25360  0.51780  0.50320  1.0000
  C   C61       1.0  0.25340  0.05630  0.99046  1.0000
  C   C62       1.0  0.74660  0.55630  0.50954  1.0000
  C   C63       1.0  0.74660  0.94370  0.00954  1.0000
  C   C64       1.0  0.25340  0.44370  0.49046  1.0000
  H   H65       1.0  0.25240  0.04580  0.96260  1.0000
  H   H66       1.0  0.74760  0.54580  0.53740  1.0000
  H   H67       1.0  0.74760  0.95420  0.03740  1.0000
  H   H68       1.0  0.25240  0.45420  0.46260  1.0000
  C   C65       1.0  0.43130  0.12460  0.98235  1.0000
  C   C66       1.0  0.56870  0.62460  0.51765  1.0000
  C   C67       1.0  0.56870  0.87540  0.01765  1.0000
  C   C68       1.0  0.43130  0.37540  0.48235  1.0000
  H   H69       1.0  0.40170  0.12510  0.95470  1.0000
  H   H70       1.0  0.59830  0.62510  0.54530  1.0000
  H   H71       1.0  0.59830  0.87490  0.04530  1.0000
  H   H72       1.0  0.40170  0.37490  0.45470  1.0000
  H   H73       1.0  0.53420  0.12480  0.98290  1.0000
  H   H74       1.0  0.46580  0.62480  0.51710  1.0000
  H   H75       1.0  0.46580  0.87520  0.01710  1.0000
  H   H76       1.0  0.53420  0.37520  0.48290  1.0000
  C   C69       1.0  0.07840  0.12390  0.98135  1.0000
  C   C70       1.0  0.92160  0.62390  0.51865  1.0000
  C   C71       1.0  0.92160  0.87610  0.01865  1.0000
  C   C72       1.0  0.07840  0.37610  0.48135  1.0000
  H   H77       1.0  0.97550  0.12390  0.98130  1.0000
  H   H78       1.0  0.02450  0.62390  0.51870  1.0000
  H   H79       1.0  0.02450  0.87610  0.01870  1.0000
  H   H80       1.0  0.97550  0.37610  0.48130  1.0000
  H   H81       1.0  0.11000  0.12400  0.95390  1.0000
  H   H82       1.0  0.89000  0.62400  0.54610  1.0000
  H   H83       1.0  0.89000  0.87600  0.04610  1.0000
  H   H84       1.0  0.11000  0.37600  0.45390  1.0000
  C   C73       1.0  0.46040  0.18920  0.02941  1.0000
  C   C74       1.0  0.53960  0.68920  0.47059  1.0000
  C   C75       1.0  0.53960  0.81080  0.97059  1.0000
  C   C76       1.0  0.46040  0.31080  0.52941  1.0000
  C   C77       1.0  0.05000  0.19080  0.02767  1.0000
  C   C78       1.0  0.95000  0.69080  0.47233  1.0000
  C   C79       1.0  0.95000  0.80920  0.97233  1.0000
  C   C80       1.0  0.05000  0.30920  0.52767  1.0000
  C   C81       1.0  0.25600  0.19240  0.99118  1.0000
  C   C82       1.0  0.74400  0.69240  0.50882  1.0000
  C   C83       1.0  0.74400  0.80760  0.00882  1.0000
  C   C84       1.0  0.25600  0.30760  0.49118  1.0000
  H   H85       1.0  0.25680  0.20310  0.96340  1.0000
  H   H86       1.0  0.74320  0.70310  0.53660  1.0000
  H   H87       1.0  0.74320  0.79690  0.03660  1.0000
  H   H88       1.0  0.25680  0.29690  0.46340  1.0000
  C   C85       1.0  0.25500  0.23490  0.01946  1.0000
  C   C86       1.0  0.74500  0.73490  0.48054  1.0000
  C   C87       1.0  0.74500  0.76510  0.98054  1.0000
  C   C88       1.0  0.25500  0.26510  0.51946  1.0000
  H   H89       1.0  0.25780  0.26590  0.00510  1.0000
  H   H90       1.0  0.74220  0.76590  0.49490  1.0000
  H   H91       1.0  0.74220  0.73410  0.99490  1.0000
  H   H92       1.0  0.25780  0.23410  0.50510  1.0000
  C   C89       1.0  0.43320  0.26050  0.07109  1.0000
  C   C90       1.0  0.56680  0.76050  0.42891  1.0000
  C   C91       1.0  0.56680  0.73950  0.92891  1.0000
  C   C92       1.0  0.43320  0.23950  0.57109  1.0000
  H   H93       1.0  0.40620  0.29320  0.06330  1.0000
  H   H94       1.0  0.59380  0.79320  0.43670  1.0000
  H   H95       1.0  0.59380  0.70680  0.93670  1.0000
  H   H96       1.0  0.40620  0.20680  0.56330  1.0000
  H   H97       1.0  0.53600  0.25910  0.07150  1.0000
  H   H98       1.0  0.46400  0.75910  0.42850  1.0000
  H   H99       1.0  0.46400  0.74090  0.92850  1.0000
  H   H100      1.0  0.53600  0.24090  0.57150  1.0000
  C   C93       1.0  0.07470  0.26300  0.06942  1.0000
  C   C94       1.0  0.92530  0.76300  0.43058  1.0000
  C   C95       1.0  0.92530  0.73700  0.93058  1.0000
  C   C96       1.0  0.07470  0.23700  0.56942  1.0000
  H   H101      1.0  0.97180  0.26170  0.06970  1.0000
  H   H102      1.0  0.02820  0.76170  0.43030  1.0000
  H   H103      1.0  0.02820  0.73830  0.93030  1.0000
  H   H104      1.0  0.97180  0.23830  0.56970  1.0000
  H   H105      1.0  0.10280  0.29570  0.06220  1.0000
  H   H106      1.0  0.89720  0.79570  0.43780  1.0000
  H   H107      1.0  0.89720  0.70430  0.93780  1.0000
  H   H108      1.0  0.10280  0.20430  0.56220  1.0000
  C   C97       1.0  0.45900  0.23020  0.13899  1.0000
  C   C98       1.0  0.54100  0.73020  0.36101  1.0000
  C   C99       1.0  0.54100  0.76980  0.86101  1.0000
  C   C100      1.0  0.45900  0.26980  0.63899  1.0000
  C   C101      1.0  0.05140  0.22620  0.13546  1.0000
  C   C102      1.0  0.94860  0.72620  0.36454  1.0000
  C   C103      1.0  0.94860  0.77380  0.86454  1.0000
  C   C104      1.0  0.05140  0.27380  0.63546  1.0000
  C   C105      1.0  0.25550  0.27210  0.12491  1.0000
  C   C106      1.0  0.74450  0.77210  0.37509  1.0000
  C   C107      1.0  0.74450  0.72790  0.87509  1.0000
  C   C108      1.0  0.25550  0.22790  0.62491  1.0000
  H   H109      1.0  0.25640  0.30760  0.12310  1.0000
  H   H110      1.0  0.74360  0.80760  0.37690  1.0000
  H   H111      1.0  0.74360  0.69240  0.87690  1.0000
  H   H112      1.0  0.25640  0.19240  0.62310  1.0000
  C   C109      1.0  0.24790  0.25470  0.16824  1.0000
  C   C110      1.0  0.75210  0.75470  0.33176  1.0000
  C   C111      1.0  0.75210  0.74530  0.83176  1.0000
  C   C112      1.0  0.24790  0.24530  0.66824  1.0000
  H   H113      1.0  0.23620  0.28180  0.18680  1.0000
  H   H114      1.0  0.76380  0.78180  0.31320  1.0000
  H   H115      1.0  0.76380  0.71820  0.81320  1.0000
  H   H116      1.0  0.23620  0.21820  0.68680  1.0000
  C   C113      1.0  0.43060  0.20780  0.20733  1.0000
  C   C114      1.0  0.56940  0.70780  0.29267  1.0000
  C   C115      1.0  0.56940  0.79220  0.79267  1.0000
  C   C116      1.0  0.43060  0.29220  0.70733  1.0000
  H   H117      1.0  0.40500  0.22690  0.23050  1.0000
  H   H118      1.0  0.59500  0.72690  0.26950  1.0000
  H   H119      1.0  0.59500  0.77310  0.76950  1.0000
  H   H120      1.0  0.40500  0.27310  0.73050  1.0000
  H   H121      1.0  0.53320  0.20550  0.20650  1.0000
  H   H122      1.0  0.46680  0.70550  0.29350  1.0000
  H   H123      1.0  0.46680  0.79450  0.79350  1.0000
  H   H124      1.0  0.53320  0.29450  0.70650  1.0000
  C   C117      1.0  0.06950  0.20610  0.20480  1.0000
  C   C118      1.0  0.93050  0.70610  0.29520  1.0000
  C   C119      1.0  0.93050  0.79390  0.79520  1.0000
  C   C120      1.0  0.06950  0.29390  0.70480  1.0000
  H   H125      1.0  0.96720  0.20480  0.20180  1.0000
  H   H126      1.0  0.03280  0.70480  0.29820  1.0000
  H   H127      1.0  0.03280  0.79520  0.79820  1.0000
  H   H128      1.0  0.96720  0.29520  0.70180  1.0000
  H   H129      1.0  0.09100  0.22890  0.22600  1.0000
  H   H130      1.0  0.90900  0.72890  0.27400  1.0000
  H   H131      1.0  0.90900  0.77110  0.77400  1.0000
  H   H132      1.0  0.09100  0.27110  0.72600  1.0000
  C   C121      1.0  0.44960  0.73190  0.13216  1.0000
  C   C122      1.0  0.55040  0.23190  0.36784  1.0000
  C   C123      1.0  0.55040  0.26810  0.86784  1.0000
  C   C124      1.0  0.44960  0.76810  0.63216  1.0000
  C   C125      1.0  0.04560  0.73500  0.13202  1.0000
  C   C126      1.0  0.95440  0.23500  0.36798  1.0000
  C   C127      1.0  0.95440  0.26500  0.86798  1.0000
  C   C128      1.0  0.04560  0.76500  0.63202  1.0000
  C   C129      1.0  0.25450  0.77670  0.11823  1.0000
  C   C130      1.0  0.74550  0.27670  0.38177  1.0000
  C   C131      1.0  0.74550  0.22330  0.88177  1.0000
  C   C132      1.0  0.25450  0.72330  0.61823  1.0000
  H   H133      1.0  0.25650  0.81210  0.11510  1.0000
  H   H134      1.0  0.74350  0.31210  0.38490  1.0000
  H   H135      1.0  0.74350  0.18790  0.88490  1.0000
  H   H136      1.0  0.25650  0.68790  0.61510  1.0000
  C   C133      1.0  0.24860  0.76270  0.16260  1.0000
  C   C134      1.0  0.75140  0.26270  0.33740  1.0000
  C   C135      1.0  0.75140  0.23730  0.83740  1.0000
  C   C136      1.0  0.24860  0.73730  0.66260  1.0000
  H   H137      1.0  0.25140  0.79130  0.18000  1.0000
  H   H138      1.0  0.74860  0.29130  0.32000  1.0000
  H   H139      1.0  0.74860  0.20870  0.82000  1.0000
  H   H140      1.0  0.25140  0.70870  0.68000  1.0000
  C   C137      1.0  0.43000  0.71590  0.20283  1.0000
  C   C138      1.0  0.57000  0.21590  0.29717  1.0000
  C   C139      1.0  0.57000  0.28410  0.79717  1.0000
  C   C140      1.0  0.43000  0.78410  0.70283  1.0000
  H   H141      1.0  0.53250  0.71450  0.20060  1.0000
  H   H142      1.0  0.46750  0.21450  0.29940  1.0000
  H   H143      1.0  0.46750  0.28550  0.79940  1.0000
  H   H144      1.0  0.53250  0.78550  0.70060  1.0000
  H   H145      1.0  0.40700  0.73820  0.22420  1.0000
  H   H146      1.0  0.59300  0.23820  0.27580  1.0000
  H   H147      1.0  0.59300  0.26180  0.77580  1.0000
  H   H148      1.0  0.40700  0.76180  0.72420  1.0000
  C   C141      1.0  0.07540  0.71930  0.20247  1.0000
  C   C142      1.0  0.92460  0.21930  0.29753  1.0000
  C   C143      1.0  0.92460  0.28070  0.79753  1.0000
  C   C144      1.0  0.07540  0.78070  0.70247  1.0000
  H   H149      1.0  0.97250  0.71970  0.20310  1.0000
  H   H150      1.0  0.02750  0.21970  0.29690  1.0000
  H   H151      1.0  0.02750  0.28030  0.79690  1.0000
  H   H152      1.0  0.97250  0.78030  0.70310  1.0000
  H   H153      1.0  0.10940  0.74030  0.22360  1.0000
  H   H154      1.0  0.89060  0.24030  0.27640  1.0000
  H   H155      1.0  0.89060  0.25970  0.77640  1.0000
  H   H156      1.0  0.10940  0.75970  0.72360  1.0000
  C   C145      1.0  0.45280  0.62930  0.20109  1.0000
  C   C146      1.0  0.54720  0.12930  0.29891  1.0000
  C   C147      1.0  0.54720  0.37070  0.79891  1.0000
  C   C148      1.0  0.45280  0.87070  0.70109  1.0000
  C   C149      1.0  0.04460  0.63120  0.20072  1.0000
  C   C150      1.0  0.95540  0.13120  0.29928  1.0000
  C   C151      1.0  0.95540  0.36880  0.79928  1.0000
  C   C152      1.0  0.04460  0.86880  0.70072  1.0000
  C   C153      1.0  0.25010  0.65860  0.23148  1.0000
  C   C154      1.0  0.74990  0.15860  0.26852  1.0000
  C   C155      1.0  0.74990  0.34140  0.76852  1.0000
  C   C156      1.0  0.25010  0.84140  0.73148  1.0000
  H   H157      1.0  0.24670  0.67140  0.25860  1.0000
  H   H158      1.0  0.75330  0.17140  0.24140  1.0000
  H   H159      1.0  0.75330  0.32860  0.74140  1.0000
  H   H160      1.0  0.24670  0.82860  0.75860  1.0000
  C   C157      1.0  0.24750  0.60240  0.23068  1.0000
  C   C158      1.0  0.75250  0.10240  0.26932  1.0000
  C   C159      1.0  0.75250  0.39760  0.76932  1.0000
  C   C160      1.0  0.24750  0.89760  0.73068  1.0000
  H   H161      1.0  0.25330  0.58910  0.25770  1.0000
  H   H162      1.0  0.74670  0.08910  0.24230  1.0000
  H   H163      1.0  0.74670  0.41090  0.74230  1.0000
  H   H164      1.0  0.25330  0.91090  0.75770  1.0000
  C   C161      1.0  0.42010  0.54220  0.20438  1.0000
  C   C162      1.0  0.57990  0.04220  0.29562  1.0000
  C   C163      1.0  0.57990  0.45780  0.79562  1.0000
  C   C164      1.0  0.42010  0.95780  0.70438  1.0000
  H   H165      1.0  0.52270  0.54290  0.20640  1.0000
  H   H166      1.0  0.47730  0.04290  0.29360  1.0000
  H   H167      1.0  0.47730  0.45710  0.79360  1.0000
  H   H168      1.0  0.52270  0.95710  0.70640  1.0000
  H   H169      1.0  0.38510  0.52330  0.22660  1.0000
  H   H170      1.0  0.61490  0.02330  0.27340  1.0000
  H   H171      1.0  0.61490  0.47670  0.77340  1.0000
  H   H172      1.0  0.38510  0.97670  0.72660  1.0000
  C   C165      1.0  0.06980  0.54390  0.20268  1.0000
  C   C166      1.0  0.93020  0.04390  0.29732  1.0000
  C   C167      1.0  0.93020  0.45610  0.79732  1.0000
  C   C168      1.0  0.06980  0.95610  0.70268  1.0000
  H   H173      1.0  0.96710  0.54280  0.20100  1.0000
  H   H174      1.0  0.03290  0.04280  0.29900  1.0000
  H   H175      1.0  0.03290  0.45720  0.79900  1.0000
  H   H176      1.0  0.96710  0.95720  0.70100  1.0000
  H   H177      1.0  0.09860  0.52210  0.22390  1.0000
  H   H178      1.0  0.90140  0.02210  0.27610  1.0000
  H   H179      1.0  0.90140  0.47790  0.77610  1.0000
  H   H180      1.0  0.09860  0.97790  0.72390  1.0000
  C   C169      1.0  0.45520  0.51910  0.13535  1.0000
  C   C170      1.0  0.54480  0.01910  0.36465  1.0000
  C   C171      1.0  0.54480  0.48090  0.86465  1.0000
  C   C172      1.0  0.45520  0.98090  0.63535  1.0000
  C   C173      1.0  0.04940  0.52210  0.13302  1.0000
  C   C174      1.0  0.95060  0.02210  0.36698  1.0000
  C   C175      1.0  0.95060  0.47790  0.86698  1.0000
  C   C176      1.0  0.04940  0.97790  0.63302  1.0000
  C   C177      1.0  0.24870  0.49490  0.16476  1.0000
  C   C178      1.0  0.75130  0.99490  0.33524  1.0000
  C   C179      1.0  0.75130  0.50510  0.83524  1.0000
  C   C180      1.0  0.24870  0.00510  0.66476  1.0000
  H   H181      1.0  0.23730  0.46810  0.18370  1.0000
  H   H182      1.0  0.76270  0.96810  0.31630  1.0000
  H   H183      1.0  0.76270  0.53190  0.81630  1.0000
  H   H184      1.0  0.23730  0.03190  0.68370  1.0000
  C   C181      1.0  0.24910  0.47580  0.12251  1.0000
  C   C182      1.0  0.75090  0.97580  0.37749  1.0000
  C   C183      1.0  0.75090  0.52420  0.87749  1.0000
  C   C184      1.0  0.24910  0.02420  0.62251  1.0000
  H   H185      1.0  0.24980  0.44020  0.12140  1.0000
  H   H186      1.0  0.75020  0.94020  0.37860  1.0000
  H   H187      1.0  0.75020  0.55980  0.87860  1.0000
  H   H188      1.0  0.24980  0.05980  0.62140  1.0000
  C   C185      1.0  0.43300  0.48800  0.06908  1.0000
  C   C186      1.0  0.56700  0.98800  0.43092  1.0000
  C   C187      1.0  0.56700  0.51200  0.93092  1.0000
  C   C188      1.0  0.43300  0.01200  0.56908  1.0000
  H   H189      1.0  0.40970  0.45480  0.06180  1.0000
  H   H190      1.0  0.59030  0.95480  0.43820  1.0000
  H   H191      1.0  0.59030  0.54520  0.93820  1.0000
  H   H192      1.0  0.40970  0.04520  0.56180  1.0000
  H   H193      1.0  0.53570  0.49060  0.06980  1.0000
  H   H194      1.0  0.46430  0.99060  0.43020  1.0000
  H   H195      1.0  0.46430  0.50940  0.93020  1.0000
  H   H196      1.0  0.53570  0.00940  0.56980  1.0000
  C   C189      1.0  0.06890  0.48640  0.06758  1.0000
  C   C190      1.0  0.93110  0.98640  0.43242  1.0000
  C   C191      1.0  0.93110  0.51360  0.93242  1.0000
  C   C192      1.0  0.06890  0.01360  0.56758  1.0000
  H   H197      1.0  0.09360  0.45340  0.06020  1.0000
  H   H198      1.0  0.90640  0.95340  0.43980  1.0000
  H   H199      1.0  0.90640  0.54660  0.93980  1.0000
  H   H200      1.0  0.09360  0.04660  0.56020  1.0000
  H   H201      1.0  0.96630  0.48870  0.06790  1.0000
  H   H202      1.0  0.03370  0.98870  0.43210  1.0000
  H   H203      1.0  0.03370  0.51130  0.93210  1.0000
  H   H204      1.0  0.96630  0.01130  0.56790  1.0000
  C   C193      1.0  0.45290  0.55830  0.02551  1.0000
  C   C194      1.0  0.54710  0.05830  0.47449  1.0000
  C   C195      1.0  0.54710  0.44170  0.97449  1.0000
  C   C196      1.0  0.45290  0.94170  0.52551  1.0000
  C   C197      1.0  0.04530  0.55850  0.02617  1.0000
  C   C198      1.0  0.95470  0.05850  0.47383  1.0000
  C   C199      1.0  0.95470  0.44150  0.97383  1.0000
  C   C200      1.0  0.04530  0.94150  0.52617  1.0000
  C   C201      1.0  0.24910  0.51250  0.01786  1.0000
  C   C202      1.0  0.75090  0.01250  0.48214  1.0000
  C   C203      1.0  0.75090  0.48750  0.98214  1.0000
  C   C204      1.0  0.24910  0.98750  0.51786  1.0000
  H   H205      1.0  0.24990  0.48150  0.00360  1.0000
  H   H206      1.0  0.75010  0.98150  0.49640  1.0000
  H   H207      1.0  0.75010  0.51850  0.99640  1.0000
  H   H208      1.0  0.24990  0.01850  0.50360  1.0000
  C   C205      1.0  0.25290  0.55520  0.98870  1.0000
  C   C206      1.0  0.74710  0.05520  0.51130  1.0000
  C   C207      1.0  0.74710  0.44480  0.01130  1.0000
  C   C208      1.0  0.25290  0.94480  0.48870  1.0000
  H   H209      1.0  0.25300  0.54390  0.96110  1.0000
  H   H210      1.0  0.74700  0.04390  0.53890  1.0000
  H   H211      1.0  0.74700  0.45610  0.03890  1.0000
  H   H212      1.0  0.25300  0.95610  0.46110  1.0000
  C   C209      1.0  0.42900  0.62420  0.97896  1.0000
  C   C210      1.0  0.57100  0.12420  0.52104  1.0000
  C   C211      1.0  0.57100  0.37580  0.02104  1.0000
  C   C212      1.0  0.42900  0.87580  0.47896  1.0000
  H   H213      1.0  0.39690  0.62410  0.95160  1.0000
  H   H214      1.0  0.60310  0.12410  0.54840  1.0000
  H   H215      1.0  0.60310  0.37590  0.04840  1.0000
  H   H216      1.0  0.39690  0.87590  0.45160  1.0000
  H   H217      1.0  0.53190  0.62390  0.97880  1.0000
  H   H218      1.0  0.46810  0.12390  0.52120  1.0000
  H   H219      1.0  0.46810  0.37610  0.02120  1.0000
  H   H220      1.0  0.53190  0.87610  0.47880  1.0000
  C   C213      1.0  0.08050  0.62400  0.97800  1.0000
  C   C214      1.0  0.91950  0.12400  0.52200  1.0000
  C   C215      1.0  0.91950  0.37600  0.02200  1.0000
  C   C216      1.0  0.08050  0.87600  0.47800  1.0000
  H   H221      1.0  0.97770  0.62400  0.97690  1.0000
  H   H222      1.0  0.02230  0.12400  0.52310  1.0000
  H   H223      1.0  0.02230  0.37600  0.02310  1.0000
  H   H224      1.0  0.97770  0.87600  0.47690  1.0000
  H   H225      1.0  0.11540  0.62340  0.95090  1.0000
  H   H226      1.0  0.88460  0.12340  0.54910  1.0000
  H   H227      1.0  0.88460  0.37660  0.04910  1.0000
  H   H228      1.0  0.11540  0.87660  0.45090  1.0000
  C   C217      1.0  0.45860  0.69040  0.02514  1.0000
  C   C218      1.0  0.54140  0.19040  0.47486  1.0000
  C   C219      1.0  0.54140  0.30960  0.97486  1.0000
  C   C220      1.0  0.45860  0.80960  0.52514  1.0000
  C   C221      1.0  0.05050  0.69050  0.02367  1.0000
  C   C222      1.0  0.94950  0.19050  0.47633  1.0000
  C   C223      1.0  0.94950  0.30950  0.97633  1.0000
  C   C224      1.0  0.05050  0.80950  0.52367  1.0000
  C   C225      1.0  0.25380  0.69210  0.98707  1.0000
  C   C226      1.0  0.74620  0.19210  0.51293  1.0000
  C   C227      1.0  0.74620  0.30790  0.01293  1.0000
  C   C228      1.0  0.25380  0.80790  0.48707  1.0000
  H   H229      1.0  0.25530  0.70200  0.95910  1.0000
  H   H230      1.0  0.74470  0.20200  0.54090  1.0000
  H   H231      1.0  0.74470  0.29800  0.04090  1.0000
  H   H232      1.0  0.25530  0.79800  0.45910  1.0000
  C   C229      1.0  0.25320  0.73580  0.01441  1.0000
  C   C230      1.0  0.74680  0.23580  0.48559  1.0000
  C   C231      1.0  0.74680  0.26420  0.98559  1.0000
  C   C232      1.0  0.25320  0.76420  0.51441  1.0000
  H   H233      1.0  0.25280  0.76640  0.99950  1.0000
  H   H234      1.0  0.74720  0.26640  0.50050  1.0000
  H   H235      1.0  0.74720  0.23360  0.00050  1.0000
  H   H236      1.0  0.25280  0.73360  0.49950  1.0000
  C   C233      1.0  0.43370  0.76360  0.06444  1.0000
  C   C234      1.0  0.56630  0.26360  0.43556  1.0000
  C   C235      1.0  0.56630  0.23640  0.93556  1.0000
  C   C236      1.0  0.43370  0.73640  0.56444  1.0000
  H   H237      1.0  0.40910  0.79610  0.05560  1.0000
  H   H238      1.0  0.59090  0.29610  0.44440  1.0000
  H   H239      1.0  0.59090  0.20390  0.94440  1.0000
  H   H240      1.0  0.40910  0.70390  0.55560  1.0000
  H   H241      1.0  0.53640  0.76140  0.06550  1.0000
  H   H242      1.0  0.46360  0.26140  0.43450  1.0000
  H   H243      1.0  0.46360  0.23860  0.93450  1.0000
  H   H244      1.0  0.53640  0.73860  0.56550  1.0000
  C   C237      1.0  0.07390  0.76390  0.06394  1.0000
  C   C238      1.0  0.92610  0.26390  0.43606  1.0000
  C   C239      1.0  0.92610  0.23610  0.93606  1.0000
  C   C240      1.0  0.07390  0.73610  0.56394  1.0000
  H   H245      1.0  0.10040  0.79630  0.05520  1.0000
  H   H246      1.0  0.89960  0.29630  0.44480  1.0000
  H   H247      1.0  0.89960  0.20370  0.94480  1.0000
  H   H248      1.0  0.10040  0.70370  0.55520  1.0000
  H   H249      1.0  0.97110  0.76220  0.06410  1.0000
  H   H250      1.0  0.02890  0.26220  0.43590  1.0000
  H   H251      1.0  0.02890  0.23780  0.93590  1.0000
  H   H252      1.0  0.97110  0.73780  0.56410  1.0000
