data_image0
_chemical_formula_structural       U8O96N16C8H16C16H16C16H16C16H16C16H16C16H16C8
_chemical_formula_sum              "U8 O96 N16 C96 H96"
_cell_length_a       22.6935
_cell_length_b       9.4783
_cell_length_c       23.9262
_cell_angle_alpha    90
_cell_angle_beta     90
_cell_angle_gamma    90

_space_group_name_H-M_alt    "P 1"
_space_group_IT_number       1

loop_
  _space_group_symop_operation_xyz
  'x, y, z'

loop_
  _atom_site_type_symbol
  _atom_site_label
  _atom_site_symmetry_multiplicity
  _atom_site_fract_x
  _atom_site_fract_y
  _atom_site_fract_z
  _atom_site_occupancy
  U   U1        1.0  0.56626  0.27431  0.18882  1.0000
  U   U2        1.0  0.93374  0.72569  0.68883  1.0000
  U   U3        1.0  0.43374  0.77431  0.31117  1.0000
  U   U4        1.0  0.06626  0.22569  0.81117  1.0000
  U   U5        1.0  0.43374  0.72569  0.81117  1.0000
  U   U6        1.0  0.06626  0.27431  0.31117  1.0000
  U   U7        1.0  0.56626  0.22569  0.68883  1.0000
  U   U8        1.0  0.93374  0.77431  0.18882  1.0000
  O   O1        1.0  0.56520  0.05610  0.14430  1.0000
  O   O2        1.0  0.93480  0.94390  0.64430  1.0000
  O   O3        1.0  0.43480  0.55610  0.35570  1.0000
  O   O4        1.0  0.06520  0.44390  0.85570  1.0000
  O   O5        1.0  0.43480  0.94390  0.85570  1.0000
  O   O6        1.0  0.06520  0.05610  0.35570  1.0000
  O   O7        1.0  0.56520  0.44390  0.64430  1.0000
  O   O8        1.0  0.93480  0.55610  0.14430  1.0000
  O   O9        1.0  0.60740  0.87770  0.09790  1.0000
  O   O10       1.0  0.89260  0.12230  0.59790  1.0000
  O   O11       1.0  0.39260  0.37770  0.40210  1.0000
  O   O12       1.0  0.10740  0.62230  0.90210  1.0000
  O   O13       1.0  0.39260  0.12230  0.90210  1.0000
  O   O14       1.0  0.10740  0.87770  0.40210  1.0000
  O   O15       1.0  0.60740  0.62230  0.59790  1.0000
  O   O16       1.0  0.89260  0.37770  0.09790  1.0000
  O   O17       1.0  0.57590  0.19030  0.28260  1.0000
  O   O18       1.0  0.92410  0.80970  0.78260  1.0000
  O   O19       1.0  0.42410  0.69030  0.21740  1.0000
  O   O20       1.0  0.07590  0.30970  0.71740  1.0000
  O   O21       1.0  0.42410  0.80970  0.71740  1.0000
  O   O22       1.0  0.07590  0.19030  0.21740  1.0000
  O   O23       1.0  0.57590  0.30970  0.78260  1.0000
  O   O24       1.0  0.92410  0.69030  0.28260  1.0000
  O   O25       1.0  0.62440  0.07010  0.34830  1.0000
  O   O26       1.0  0.87560  0.92990  0.84830  1.0000
  O   O27       1.0  0.37560  0.57010  0.15170  1.0000
  O   O28       1.0  0.12440  0.42990  0.65170  1.0000
  O   O29       1.0  0.37560  0.92990  0.65170  1.0000
  O   O30       1.0  0.12440  0.07010  0.15170  1.0000
  O   O31       1.0  0.62440  0.42990  0.84830  1.0000
  O   O32       1.0  0.87560  0.57010  0.34830  1.0000
  O   O33       1.0  0.64760  0.38970  0.22940  1.0000
  O   O34       1.0  0.85240  0.61030  0.72940  1.0000
  O   O35       1.0  0.35240  0.88970  0.27060  1.0000
  O   O36       1.0  0.14760  0.11030  0.77060  1.0000
  O   O37       1.0  0.35240  0.61030  0.77060  1.0000
  O   O38       1.0  0.14760  0.38970  0.27060  1.0000
  O   O39       1.0  0.64760  0.11030  0.72940  1.0000
  O   O40       1.0  0.85240  0.88970  0.22940  1.0000
  O   O41       1.0  0.73000  0.38710  0.28030  1.0000
  O   O42       1.0  0.77000  0.61290  0.78030  1.0000
  O   O43       1.0  0.27000  0.88710  0.21970  1.0000
  O   O44       1.0  0.23000  0.11290  0.71970  1.0000
  O   O45       1.0  0.27000  0.61290  0.71970  1.0000
  O   O46       1.0  0.23000  0.38710  0.21970  1.0000
  O   O47       1.0  0.73000  0.11290  0.78030  1.0000
  O   O48       1.0  0.77000  0.88710  0.28030  1.0000
  O   O49       1.0  0.62790  0.30060  0.10980  1.0000
  O   O50       1.0  0.87210  0.69940  0.60980  1.0000
  O   O51       1.0  0.37210  0.80060  0.39020  1.0000
  O   O52       1.0  0.12790  0.19940  0.89020  1.0000
  O   O53       1.0  0.37210  0.69940  0.89020  1.0000
  O   O54       1.0  0.12790  0.30060  0.39020  1.0000
  O   O55       1.0  0.62790  0.19940  0.60980  1.0000
  O   O56       1.0  0.87210  0.80060  0.10980  1.0000
  O   O57       1.0  0.67830  0.42070  0.04520  1.0000
  O   O58       1.0  0.82170  0.57930  0.54520  1.0000
  O   O59       1.0  0.32170  0.92070  0.45480  1.0000
  O   O60       1.0  0.17830  0.07930  0.95480  1.0000
  O   O61       1.0  0.32170  0.57930  0.95480  1.0000
  O   O62       1.0  0.17830  0.42070  0.45480  1.0000
  O   O63       1.0  0.67830  0.07930  0.54520  1.0000
  O   O64       1.0  0.82170  0.92070  0.04520  1.0000
  O   O65       1.0  0.49710  0.33620  0.12100  1.0000
  O   O66       1.0  0.00290  0.66380  0.62100  1.0000
  O   O67       1.0  0.50290  0.83620  0.37900  1.0000
  O   O68       1.0  0.99710  0.16380  0.87900  1.0000
  O   O69       1.0  0.50290  0.66380  0.87900  1.0000
  O   O70       1.0  0.99710  0.33620  0.37900  1.0000
  O   O71       1.0  0.49710  0.16380  0.62100  1.0000
  O   O72       1.0  0.00290  0.83620  0.12100  1.0000
  O   O73       1.0  0.45320  0.46970  0.05670  1.0000
  O   O74       1.0  0.04680  0.53030  0.55670  1.0000
  O   O75       1.0  0.54680  0.96970  0.44330  1.0000
  O   O76       1.0  0.95320  0.03030  0.94330  1.0000
  O   O77       1.0  0.54680  0.53030  0.94330  1.0000
  O   O78       1.0  0.95320  0.46970  0.44330  1.0000
  O   O79       1.0  0.45320  0.03030  0.55670  1.0000
  O   O80       1.0  0.04680  0.96970  0.05670  1.0000
  O   O81       1.0  0.52160  0.45900  0.24310  1.0000
  O   O82       1.0  0.97840  0.54100  0.74310  1.0000
  O   O83       1.0  0.47840  0.95900  0.25690  1.0000
  O   O84       1.0  0.02160  0.04100  0.75690  1.0000
  O   O85       1.0  0.47840  0.54100  0.75690  1.0000
  O   O86       1.0  0.02160  0.45900  0.25690  1.0000
  O   O87       1.0  0.52160  0.04100  0.74310  1.0000
  O   O88       1.0  0.97840  0.95900  0.24310  1.0000
  O   O89       1.0  0.52620  0.67270  0.28220  1.0000
  O   O90       1.0  0.97380  0.32730  0.78220  1.0000
  O   O91       1.0  0.47380  0.17270  0.21780  1.0000
  O   O92       1.0  0.02620  0.82730  0.71780  1.0000
  O   O93       1.0  0.47380  0.32730  0.71780  1.0000
  O   O94       1.0  0.02620  0.67270  0.21780  1.0000
  O   O95       1.0  0.52620  0.82730  0.78220  1.0000
  O   O96       1.0  0.97380  0.17270  0.28220  1.0000
  N   N1        1.0  0.65870  0.10550  0.20560  1.0000
  N   N2        1.0  0.84130  0.89450  0.70560  1.0000
  N   N3        1.0  0.34130  0.60550  0.29440  1.0000
  N   N4        1.0  0.15870  0.39450  0.79440  1.0000
  N   N5        1.0  0.34130  0.89450  0.79440  1.0000
  N   N6        1.0  0.15870  0.10550  0.29440  1.0000
  N   N7        1.0  0.65870  0.39450  0.70560  1.0000
  N   N8        1.0  0.84130  0.60550  0.20560  1.0000
  N   N9        1.0  0.57820  0.54120  0.14900  1.0000
  N   N10       1.0  0.92180  0.45880  0.64900  1.0000
  N   N11       1.0  0.42180  0.04120  0.35100  1.0000
  N   N12       1.0  0.07820  0.95880  0.85100  1.0000
  N   N13       1.0  0.42180  0.45880  0.85100  1.0000
  N   N14       1.0  0.07820  0.54120  0.35100  1.0000
  N   N15       1.0  0.57820  0.95880  0.64900  1.0000
  N   N16       1.0  0.92180  0.04120  0.14900  1.0000
  C   C1        1.0  0.66880  0.01890  0.15580  1.0000
  C   C2        1.0  0.83120  0.98110  0.65580  1.0000
  C   C3        1.0  0.33120  0.51890  0.34420  1.0000
  C   C4        1.0  0.16880  0.48110  0.84420  1.0000
  C   C5        1.0  0.33120  0.98110  0.84420  1.0000
  C   C6        1.0  0.16880  0.01890  0.34420  1.0000
  C   C7        1.0  0.66880  0.48110  0.65580  1.0000
  C   C8        1.0  0.83120  0.51890  0.15580  1.0000
  H   H1        1.0  0.69120  0.93310  0.16600  1.0000
  H   H2        1.0  0.80880  0.06690  0.66600  1.0000
  H   H3        1.0  0.30880  0.43310  0.33400  1.0000
  H   H4        1.0  0.19120  0.56690  0.83400  1.0000
  H   H5        1.0  0.30880  0.06690  0.83400  1.0000
  H   H6        1.0  0.19120  0.93310  0.33400  1.0000
  H   H7        1.0  0.69120  0.56690  0.66600  1.0000
  H   H8        1.0  0.80880  0.43310  0.16600  1.0000
  H   H9        1.0  0.69220  0.07280  0.12820  1.0000
  H   H10       1.0  0.80780  0.92720  0.62820  1.0000
  H   H11       1.0  0.30780  0.57280  0.37180  1.0000
  H   H12       1.0  0.19220  0.42720  0.87180  1.0000
  H   H13       1.0  0.30780  0.92720  0.87180  1.0000
  H   H14       1.0  0.19220  0.07280  0.37180  1.0000
  H   H15       1.0  0.69220  0.42720  0.62820  1.0000
  H   H16       1.0  0.80780  0.57280  0.12820  1.0000
  C   C9        1.0  0.60950  0.97730  0.13030  1.0000
  C   C10       1.0  0.89050  0.02270  0.63030  1.0000
  C   C11       1.0  0.39050  0.47730  0.36970  1.0000
  C   C12       1.0  0.10950  0.52270  0.86970  1.0000
  C   C13       1.0  0.39050  0.02270  0.86970  1.0000
  C   C14       1.0  0.10950  0.97730  0.36970  1.0000
  C   C15       1.0  0.60950  0.52270  0.63030  1.0000
  C   C16       1.0  0.89050  0.47730  0.13030  1.0000
  C   C17       1.0  0.64190  0.01320  0.25280  1.0000
  C   C18       1.0  0.85810  0.98680  0.75280  1.0000
  C   C19       1.0  0.35810  0.51320  0.24720  1.0000
  C   C20       1.0  0.14190  0.48680  0.74720  1.0000
  C   C21       1.0  0.35810  0.98680  0.74720  1.0000
  C   C22       1.0  0.14190  0.01320  0.24720  1.0000
  C   C23       1.0  0.64190  0.48680  0.75280  1.0000
  C   C24       1.0  0.85810  0.51320  0.25280  1.0000
  H   H17       1.0  0.67750  0.96630  0.26780  1.0000
  H   H18       1.0  0.82250  0.03370  0.76780  1.0000
  H   H19       1.0  0.32250  0.46630  0.23220  1.0000
  H   H20       1.0  0.17750  0.53370  0.73220  1.0000
  H   H21       1.0  0.32250  0.03370  0.73220  1.0000
  H   H22       1.0  0.17750  0.96630  0.23220  1.0000
  H   H23       1.0  0.67750  0.53370  0.76780  1.0000
  H   H24       1.0  0.82250  0.46630  0.26780  1.0000
  H   H25       1.0  0.61460  0.93910  0.23940  1.0000
  H   H26       1.0  0.88540  0.06090  0.73940  1.0000
  H   H27       1.0  0.38540  0.43910  0.26060  1.0000
  H   H28       1.0  0.11460  0.56090  0.76060  1.0000
  H   H29       1.0  0.38540  0.06090  0.76060  1.0000
  H   H30       1.0  0.11460  0.93910  0.26060  1.0000
  H   H31       1.0  0.61460  0.56090  0.73940  1.0000
  H   H32       1.0  0.88540  0.43910  0.23940  1.0000
  C   C25       1.0  0.61250  0.09690  0.29880  1.0000
  C   C26       1.0  0.88750  0.90310  0.79880  1.0000
  C   C27       1.0  0.38750  0.59690  0.20120  1.0000
  C   C28       1.0  0.11250  0.40310  0.70120  1.0000
  C   C29       1.0  0.38750  0.90310  0.70120  1.0000
  C   C30       1.0  0.11250  0.09690  0.20120  1.0000
  C   C31       1.0  0.61250  0.40310  0.79880  1.0000
  C   C32       1.0  0.88750  0.59690  0.29880  1.0000
  C   C33       1.0  0.71200  0.19100  0.22050  1.0000
  C   C34       1.0  0.78800  0.80900  0.72050  1.0000
  C   C35       1.0  0.28800  0.69100  0.27950  1.0000
  C   C36       1.0  0.21200  0.30900  0.77950  1.0000
  C   C37       1.0  0.28800  0.80900  0.77950  1.0000
  C   C38       1.0  0.21200  0.19100  0.27950  1.0000
  C   C39       1.0  0.71200  0.30900  0.72050  1.0000
  C   C40       1.0  0.78800  0.69100  0.22050  1.0000
  H   H33       1.0  0.73570  0.20750  0.18640  1.0000
  H   H34       1.0  0.76430  0.79250  0.68640  1.0000
  H   H35       1.0  0.26430  0.70750  0.31360  1.0000
  H   H36       1.0  0.23570  0.29250  0.81360  1.0000
  H   H37       1.0  0.26430  0.79250  0.81360  1.0000
  H   H38       1.0  0.23570  0.20750  0.31360  1.0000
  H   H39       1.0  0.73570  0.29250  0.68640  1.0000
  H   H40       1.0  0.76430  0.70750  0.18640  1.0000
  H   H41       1.0  0.73660  0.13690  0.24710  1.0000
  H   H42       1.0  0.76340  0.86310  0.74710  1.0000
  H   H43       1.0  0.26340  0.63690  0.25290  1.0000
  H   H44       1.0  0.23660  0.36310  0.75290  1.0000
  H   H45       1.0  0.26340  0.86310  0.75290  1.0000
  H   H46       1.0  0.23660  0.13690  0.25290  1.0000
  H   H47       1.0  0.73660  0.36310  0.74710  1.0000
  H   H48       1.0  0.76340  0.63690  0.24710  1.0000
  C   C41       1.0  0.69580  0.33330  0.24670  1.0000
  C   C42       1.0  0.80420  0.66670  0.74670  1.0000
  C   C43       1.0  0.30420  0.83330  0.25330  1.0000
  C   C44       1.0  0.19580  0.16670  0.75330  1.0000
  C   C45       1.0  0.30420  0.66670  0.75330  1.0000
  C   C46       1.0  0.19580  0.33330  0.25330  1.0000
  C   C47       1.0  0.69580  0.16670  0.74670  1.0000
  C   C48       1.0  0.80420  0.83330  0.24670  1.0000
  C   C49       1.0  0.63490  0.54850  0.12020  1.0000
  C   C50       1.0  0.86510  0.45150  0.62020  1.0000
  C   C51       1.0  0.36510  0.04850  0.37980  1.0000
  C   C52       1.0  0.13490  0.95150  0.87980  1.0000
  C   C53       1.0  0.36510  0.45150  0.87980  1.0000
  C   C54       1.0  0.13490  0.54850  0.37980  1.0000
  C   C55       1.0  0.63490  0.95150  0.62020  1.0000
  C   C56       1.0  0.86510  0.04850  0.12020  1.0000
  H   H49       1.0  0.66650  0.56510  0.14790  1.0000
  H   H50       1.0  0.83350  0.43490  0.64790  1.0000
  H   H51       1.0  0.33350  0.06510  0.35210  1.0000
  H   H52       1.0  0.16650  0.93490  0.85210  1.0000
  H   H53       1.0  0.33350  0.43490  0.85210  1.0000
  H   H54       1.0  0.16650  0.56510  0.35210  1.0000
  H   H55       1.0  0.66650  0.93490  0.64790  1.0000
  H   H56       1.0  0.83350  0.06510  0.14790  1.0000
  H   H57       1.0  0.63450  0.62940  0.09400  1.0000
  H   H58       1.0  0.86550  0.37060  0.59400  1.0000
  H   H59       1.0  0.36550  0.12940  0.40600  1.0000
  H   H60       1.0  0.13450  0.87060  0.90600  1.0000
  H   H61       1.0  0.36550  0.37060  0.90600  1.0000
  H   H62       1.0  0.13450  0.62940  0.40600  1.0000
  H   H63       1.0  0.63450  0.87060  0.59400  1.0000
  H   H64       1.0  0.86550  0.12940  0.09400  1.0000
  C   C57       1.0  0.64830  0.41450  0.08790  1.0000
  C   C58       1.0  0.85170  0.58550  0.58790  1.0000
  C   C59       1.0  0.35170  0.91450  0.41210  1.0000
  C   C60       1.0  0.14830  0.08550  0.91210  1.0000
  C   C61       1.0  0.35170  0.58550  0.91210  1.0000
  C   C62       1.0  0.14830  0.41450  0.41210  1.0000
  C   C63       1.0  0.64830  0.08550  0.58790  1.0000
  C   C64       1.0  0.85170  0.91450  0.08790  1.0000
  C   C65       1.0  0.52950  0.57140  0.11090  1.0000
  C   C66       1.0  0.97050  0.42860  0.61090  1.0000
  C   C67       1.0  0.47050  0.07140  0.38910  1.0000
  C   C68       1.0  0.02950  0.92860  0.88910  1.0000
  C   C69       1.0  0.47050  0.42860  0.88910  1.0000
  C   C70       1.0  0.02950  0.57140  0.38910  1.0000
  C   C71       1.0  0.52950  0.92860  0.61090  1.0000
  C   C72       1.0  0.97050  0.07140  0.11090  1.0000
  H   H65       1.0  0.54620  0.61370  0.07660  1.0000
  H   H66       1.0  0.95380  0.38630  0.57660  1.0000
  H   H67       1.0  0.45380  0.11370  0.42340  1.0000
  H   H68       1.0  0.04620  0.88630  0.92340  1.0000
  H   H69       1.0  0.45380  0.38630  0.92340  1.0000
  H   H70       1.0  0.04620  0.61370  0.42340  1.0000
  H   H71       1.0  0.54620  0.88630  0.57660  1.0000
  H   H72       1.0  0.95380  0.11370  0.07660  1.0000
  H   H73       1.0  0.50420  0.64400  0.12860  1.0000
  H   H74       1.0  0.99580  0.35600  0.62860  1.0000
  H   H75       1.0  0.49580  0.14400  0.37140  1.0000
  H   H76       1.0  0.00420  0.85600  0.87140  1.0000
  H   H77       1.0  0.49580  0.35600  0.87140  1.0000
  H   H78       1.0  0.00420  0.64400  0.37140  1.0000
  H   H79       1.0  0.50420  0.85600  0.62860  1.0000
  H   H80       1.0  0.99580  0.14400  0.12860  1.0000
  C   C73       1.0  0.49060  0.45020  0.09380  1.0000
  C   C74       1.0  0.00940  0.54980  0.59380  1.0000
  C   C75       1.0  0.50940  0.95020  0.40620  1.0000
  C   C76       1.0  0.99060  0.04980  0.90620  1.0000
  C   C77       1.0  0.50940  0.54980  0.90620  1.0000
  C   C78       1.0  0.99060  0.45020  0.40620  1.0000
  C   C79       1.0  0.49060  0.04980  0.59380  1.0000
  C   C80       1.0  0.00940  0.95020  0.09380  1.0000
  C   C81       1.0  0.57590  0.64090  0.19690  1.0000
  C   C82       1.0  0.92410  0.35910  0.69690  1.0000
  C   C83       1.0  0.42410  0.14090  0.30310  1.0000
  C   C84       1.0  0.07590  0.85910  0.80310  1.0000
  C   C85       1.0  0.42410  0.35910  0.80310  1.0000
  C   C86       1.0  0.07590  0.64090  0.30310  1.0000
  C   C87       1.0  0.57590  0.85910  0.69690  1.0000
  C   C88       1.0  0.92410  0.14090  0.19690  1.0000
  H   H81       1.0  0.56040  0.73290  0.18390  1.0000
  H   H82       1.0  0.93960  0.26710  0.68390  1.0000
  H   H83       1.0  0.43960  0.23290  0.31610  1.0000
  H   H84       1.0  0.06040  0.76710  0.81610  1.0000
  H   H85       1.0  0.43960  0.26710  0.81610  1.0000
  H   H86       1.0  0.06040  0.73290  0.31610  1.0000
  H   H87       1.0  0.56040  0.76710  0.68390  1.0000
  H   H88       1.0  0.93960  0.23290  0.18390  1.0000
  H   H89       1.0  0.61630  0.65630  0.21130  1.0000
  H   H90       1.0  0.88370  0.34370  0.71130  1.0000
  H   H91       1.0  0.38370  0.15630  0.28870  1.0000
  H   H92       1.0  0.11630  0.84370  0.78870  1.0000
  H   H93       1.0  0.38370  0.34370  0.78870  1.0000
  H   H94       1.0  0.11630  0.65630  0.28870  1.0000
  H   H95       1.0  0.61630  0.84370  0.71130  1.0000
  H   H96       1.0  0.88370  0.15630  0.21130  1.0000
  C   C89       1.0  0.53730  0.58640  0.24390  1.0000
  C   C90       1.0  0.96270  0.41360  0.74390  1.0000
  C   C91       1.0  0.46270  0.08640  0.25610  1.0000
  C   C92       1.0  0.03730  0.91360  0.75610  1.0000
  C   C93       1.0  0.46270  0.41360  0.75610  1.0000
  C   C94       1.0  0.03730  0.58640  0.25610  1.0000
  C   C95       1.0  0.53730  0.91360  0.74390  1.0000
  C   C96       1.0  0.96270  0.08640  0.24390  1.0000
