data_image0
_chemical_formula_structural       C24H8C8H8C16H8C8H8C16H8C8H8C16H8C8H8C32H8C8H8C16H8C8H8C16H8C8H8C16H8C8H8C32H8C8H8C16H8C8H8C16H8C8H8C16H8C8H8C32H8C8H8C16H8C8H8C16H8C8H8C16H8C8H8C32H8C8H8C16H8C8H8C16H8C8H8C16H8C8H8C32H8C8H8C16H8C8H8C16H8C8H8C16H8C8H8C16H8C8H8C16H8C8H8C8H16C8H16C8H16C16H8C8H8C8H8C8H8C24H8C8H8C16H8C8H8C16H8C8H8C16H8C8H8C16H8C8H24C8H24C8H8C8H24C8H24Cd48N32O240
_chemical_formula_sum              "C936 H672 Cd48 N32 O240"
_cell_length_a       53.6
_cell_length_b       13.976
_cell_length_c       47.389
_cell_angle_alpha    90
_cell_angle_beta     118.27
_cell_angle_gamma    90

_space_group_name_H-M_alt    "P 1"
_space_group_IT_number       1

loop_
  _space_group_symop_operation_xyz
  'x, y, z'

loop_
  _atom_site_type_symbol
  _atom_site_label
  _atom_site_symmetry_multiplicity
  _atom_site_fract_x
  _atom_site_fract_y
  _atom_site_fract_z
  _atom_site_occupancy
  C   C1        1.0  0.33139  0.76040  0.07575  1.0000
  C   C2        1.0  0.66861  0.76040  0.42425  1.0000
  C   C3        1.0  0.83139  0.26040  0.07575  1.0000
  C   C4        1.0  0.16861  0.26040  0.42425  1.0000
  C   C5        1.0  0.66861  0.23960  0.92425  1.0000
  C   C6        1.0  0.33139  0.23960  0.57575  1.0000
  C   C7        1.0  0.16861  0.73960  0.92425  1.0000
  C   C8        1.0  0.83139  0.73960  0.57575  1.0000
  C   C9        1.0  0.35152  0.75410  0.06145  1.0000
  C   C10       1.0  0.64848  0.75410  0.43855  1.0000
  C   C11       1.0  0.85152  0.25410  0.06145  1.0000
  C   C12       1.0  0.14848  0.25410  0.43855  1.0000
  C   C13       1.0  0.64848  0.24590  0.93855  1.0000
  C   C14       1.0  0.35152  0.24590  0.56145  1.0000
  C   C15       1.0  0.14848  0.74590  0.93855  1.0000
  C   C16       1.0  0.85152  0.74590  0.56145  1.0000
  C   C17       1.0  0.34537  0.80390  0.03396  1.0000
  C   C18       1.0  0.65463  0.80390  0.46604  1.0000
  C   C19       1.0  0.84537  0.30390  0.03396  1.0000
  C   C20       1.0  0.15463  0.30390  0.46604  1.0000
  C   C21       1.0  0.65463  0.19610  0.96604  1.0000
  C   C22       1.0  0.34537  0.19610  0.53396  1.0000
  C   C23       1.0  0.15463  0.69610  0.96604  1.0000
  C   C24       1.0  0.84537  0.69610  0.53396  1.0000
  H   H1        1.0  0.32900  0.84080  0.02420  1.0000
  H   H2        1.0  0.67100  0.84080  0.47580  1.0000
  H   H3        1.0  0.82900  0.34080  0.02420  1.0000
  H   H4        1.0  0.17100  0.34080  0.47580  1.0000
  H   H5        1.0  0.67100  0.15920  0.97580  1.0000
  H   H6        1.0  0.32900  0.15920  0.52420  1.0000
  H   H7        1.0  0.17100  0.65920  0.97580  1.0000
  H   H8        1.0  0.82900  0.65920  0.52420  1.0000
  C   C25       1.0  0.36362  0.79930  0.02065  1.0000
  C   C26       1.0  0.63638  0.79930  0.47935  1.0000
  C   C27       1.0  0.86362  0.29930  0.02065  1.0000
  C   C28       1.0  0.13638  0.29930  0.47935  1.0000
  C   C29       1.0  0.63638  0.20070  0.97935  1.0000
  C   C30       1.0  0.36362  0.20070  0.52065  1.0000
  C   C31       1.0  0.13638  0.70070  0.97935  1.0000
  C   C32       1.0  0.86362  0.70070  0.52065  1.0000
  H   H9        1.0  0.35900  0.83290  0.00190  1.0000
  H   H10       1.0  0.64100  0.83290  0.49810  1.0000
  H   H11       1.0  0.85900  0.33290  0.00190  1.0000
  H   H12       1.0  0.14100  0.33290  0.49810  1.0000
  H   H13       1.0  0.64100  0.16710  0.99810  1.0000
  H   H14       1.0  0.35900  0.16710  0.50190  1.0000
  H   H15       1.0  0.14100  0.66710  0.99810  1.0000
  H   H16       1.0  0.85900  0.66710  0.50190  1.0000
  C   C33       1.0  0.38840  0.74650  0.03439  1.0000
  C   C34       1.0  0.61160  0.74650  0.46561  1.0000
  C   C35       1.0  0.88840  0.24650  0.03439  1.0000
  C   C36       1.0  0.11160  0.24650  0.46561  1.0000
  C   C37       1.0  0.61160  0.25350  0.96561  1.0000
  C   C38       1.0  0.38840  0.25350  0.53439  1.0000
  C   C39       1.0  0.11160  0.75350  0.96561  1.0000
  C   C40       1.0  0.88840  0.75350  0.53439  1.0000
  C   C41       1.0  0.39444  0.69630  0.06214  1.0000
  C   C42       1.0  0.60556  0.69630  0.43786  1.0000
  C   C43       1.0  0.89444  0.19630  0.06214  1.0000
  C   C44       1.0  0.10556  0.19630  0.43786  1.0000
  C   C45       1.0  0.60556  0.30370  0.93786  1.0000
  C   C46       1.0  0.39444  0.30370  0.56214  1.0000
  C   C47       1.0  0.10556  0.80370  0.93786  1.0000
  C   C48       1.0  0.89444  0.80370  0.56214  1.0000
  H   H17       1.0  0.41090  0.65980  0.07180  1.0000
  H   H18       1.0  0.58910  0.65980  0.42820  1.0000
  H   H19       1.0  0.91090  0.15980  0.07180  1.0000
  H   H20       1.0  0.08910  0.15980  0.42820  1.0000
  H   H21       1.0  0.58910  0.34020  0.92820  1.0000
  H   H22       1.0  0.41090  0.34020  0.57180  1.0000
  H   H23       1.0  0.08910  0.84020  0.92820  1.0000
  H   H24       1.0  0.91090  0.84020  0.57180  1.0000
  C   C49       1.0  0.37683  0.69890  0.07567  1.0000
  C   C50       1.0  0.62317  0.69890  0.42433  1.0000
  C   C51       1.0  0.87683  0.19890  0.07567  1.0000
  C   C52       1.0  0.12317  0.19890  0.42433  1.0000
  C   C53       1.0  0.62317  0.30110  0.92433  1.0000
  C   C54       1.0  0.37683  0.30110  0.57567  1.0000
  C   C55       1.0  0.12317  0.80110  0.92433  1.0000
  C   C56       1.0  0.87683  0.80110  0.57567  1.0000
  H   H25       1.0  0.38140  0.66430  0.09430  1.0000
  H   H26       1.0  0.61860  0.66430  0.40570  1.0000
  H   H27       1.0  0.88140  0.16430  0.09430  1.0000
  H   H28       1.0  0.11860  0.16430  0.40570  1.0000
  H   H29       1.0  0.61860  0.33570  0.90570  1.0000
  H   H30       1.0  0.38140  0.33570  0.59430  1.0000
  H   H31       1.0  0.11860  0.83570  0.90570  1.0000
  H   H32       1.0  0.88140  0.83570  0.59430  1.0000
  C   C57       1.0  0.40706  0.74280  0.02013  1.0000
  C   C58       1.0  0.59294  0.74280  0.47987  1.0000
  C   C59       1.0  0.90706  0.24280  0.02013  1.0000
  C   C60       1.0  0.09294  0.24280  0.47987  1.0000
  C   C61       1.0  0.59294  0.25720  0.97987  1.0000
  C   C62       1.0  0.40706  0.25720  0.52013  1.0000
  C   C63       1.0  0.09294  0.75720  0.97987  1.0000
  C   C64       1.0  0.90706  0.75720  0.52013  1.0000
  C   C65       1.0  0.40931  0.82480  0.00323  1.0000
  C   C66       1.0  0.59069  0.82480  0.49677  1.0000
  C   C67       1.0  0.90931  0.32480  0.00323  1.0000
  C   C68       1.0  0.09069  0.32480  0.49677  1.0000
  C   C69       1.0  0.59069  0.17520  0.99677  1.0000
  C   C70       1.0  0.40931  0.17520  0.50323  1.0000
  C   C71       1.0  0.09069  0.67520  0.99677  1.0000
  C   C72       1.0  0.90931  0.67520  0.50323  1.0000
  H   H33       1.0  0.39990  0.88120  0.00270  1.0000
  H   H34       1.0  0.60010  0.88120  0.49730  1.0000
  H   H35       1.0  0.89990  0.38120  0.00270  1.0000
  H   H36       1.0  0.10010  0.38120  0.49730  1.0000
  H   H37       1.0  0.60010  0.11880  0.99730  1.0000
  H   H38       1.0  0.39990  0.11880  0.50270  1.0000
  H   H39       1.0  0.10010  0.61880  0.99730  1.0000
  H   H40       1.0  0.89990  0.61880  0.50270  1.0000
  C   C73       1.0  0.42558  0.81920  0.98779  1.0000
  C   C74       1.0  0.57442  0.81920  0.51221  1.0000
  C   C75       1.0  0.92558  0.31920  0.98779  1.0000
  C   C76       1.0  0.07442  0.31920  0.51221  1.0000
  C   C77       1.0  0.57442  0.18080  0.01221  1.0000
  C   C78       1.0  0.42558  0.18080  0.48779  1.0000
  C   C79       1.0  0.07442  0.68080  0.01221  1.0000
  C   C80       1.0  0.92558  0.68080  0.48779  1.0000
  H   H41       1.0  0.42670  0.87290  0.97690  1.0000
  H   H42       1.0  0.57330  0.87290  0.52310  1.0000
  H   H43       1.0  0.92670  0.37290  0.97690  1.0000
  H   H44       1.0  0.07330  0.37290  0.52310  1.0000
  H   H45       1.0  0.57330  0.12710  0.02310  1.0000
  H   H46       1.0  0.42670  0.12710  0.47690  1.0000
  H   H47       1.0  0.07330  0.62710  0.02310  1.0000
  H   H48       1.0  0.92670  0.62710  0.47690  1.0000
  C   C81       1.0  0.44063  0.73550  0.98776  1.0000
  C   C82       1.0  0.55937  0.73550  0.51224  1.0000
  C   C83       1.0  0.94063  0.23550  0.98776  1.0000
  C   C84       1.0  0.05937  0.23550  0.51224  1.0000
  C   C85       1.0  0.55937  0.26450  0.01224  1.0000
  C   C86       1.0  0.44063  0.26450  0.48776  1.0000
  C   C87       1.0  0.05937  0.76450  0.01224  1.0000
  C   C88       1.0  0.94063  0.76450  0.48776  1.0000
  C   C89       1.0  0.43787  0.65830  0.00404  1.0000
  C   C90       1.0  0.56213  0.65830  0.49596  1.0000
  C   C91       1.0  0.93787  0.15830  0.00404  1.0000
  C   C92       1.0  0.06213  0.15830  0.49596  1.0000
  C   C93       1.0  0.56213  0.34170  0.99596  1.0000
  C   C94       1.0  0.43787  0.34170  0.50404  1.0000
  C   C95       1.0  0.06213  0.84170  0.99596  1.0000
  C   C96       1.0  0.93787  0.84170  0.50404  1.0000
  H   H49       1.0  0.44740  0.60210  0.00470  1.0000
  H   H50       1.0  0.55260  0.60210  0.49530  1.0000
  H   H51       1.0  0.94740  0.10210  0.00470  1.0000
  H   H52       1.0  0.05260  0.10210  0.49530  1.0000
  H   H53       1.0  0.55260  0.39790  0.99530  1.0000
  H   H54       1.0  0.44740  0.39790  0.50470  1.0000
  H   H55       1.0  0.05260  0.89790  0.99530  1.0000
  H   H56       1.0  0.94740  0.89790  0.50470  1.0000
  C   C97       1.0  0.42150  0.66030  0.01952  1.0000
  C   C98       1.0  0.57850  0.66030  0.48048  1.0000
  C   C99       1.0  0.92150  0.16030  0.01952  1.0000
  C   C100      1.0  0.07850  0.16030  0.48048  1.0000
  C   C101      1.0  0.57850  0.33970  0.98048  1.0000
  C   C102      1.0  0.42150  0.33970  0.51952  1.0000
  C   C103      1.0  0.07850  0.83970  0.98048  1.0000
  C   C104      1.0  0.92150  0.83970  0.51952  1.0000
  H   H57       1.0  0.42010  0.60540  0.02980  1.0000
  H   H58       1.0  0.57990  0.60540  0.47020  1.0000
  H   H59       1.0  0.92010  0.10540  0.02980  1.0000
  H   H60       1.0  0.07990  0.10540  0.47020  1.0000
  H   H61       1.0  0.57990  0.39460  0.97020  1.0000
  H   H62       1.0  0.42010  0.39460  0.52980  1.0000
  H   H63       1.0  0.07990  0.89460  0.97020  1.0000
  H   H64       1.0  0.92010  0.89460  0.52980  1.0000
  C   C105      1.0  0.45651  0.73190  0.96998  1.0000
  C   C106      1.0  0.54349  0.73190  0.53002  1.0000
  C   C107      1.0  0.95651  0.23190  0.96998  1.0000
  C   C108      1.0  0.04349  0.23190  0.53002  1.0000
  C   C109      1.0  0.54349  0.26810  0.03002  1.0000
  C   C110      1.0  0.45651  0.26810  0.46998  1.0000
  C   C111      1.0  0.04349  0.76810  0.03002  1.0000
  C   C112      1.0  0.95651  0.76810  0.46998  1.0000
  C   C113      1.0  0.23978  0.87780  0.07310  1.0000
  C   C114      1.0  0.76022  0.87780  0.42690  1.0000
  C   C115      1.0  0.73978  0.37780  0.07310  1.0000
  C   C116      1.0  0.26022  0.37780  0.42690  1.0000
  C   C117      1.0  0.76022  0.12220  0.92690  1.0000
  C   C118      1.0  0.23978  0.12220  0.57310  1.0000
  C   C119      1.0  0.26022  0.62220  0.92690  1.0000
  C   C120      1.0  0.73978  0.62220  0.57310  1.0000
  C   C121      1.0  0.21236  0.92540  0.05500  1.0000
  C   C122      1.0  0.78764  0.92540  0.44500  1.0000
  C   C123      1.0  0.71236  0.42540  0.05500  1.0000
  C   C124      1.0  0.28764  0.42540  0.44500  1.0000
  C   C125      1.0  0.78764  0.07460  0.94500  1.0000
  C   C126      1.0  0.21236  0.07460  0.55500  1.0000
  C   C127      1.0  0.28764  0.57460  0.94500  1.0000
  C   C128      1.0  0.71236  0.57460  0.55500  1.0000
  C   C129      1.0  0.20437  0.99510  0.06856  1.0000
  C   C130      1.0  0.79563  0.99510  0.43144  1.0000
  C   C131      1.0  0.70437  0.49510  0.06856  1.0000
  C   C132      1.0  0.29563  0.49510  0.43144  1.0000
  C   C133      1.0  0.79563  0.00490  0.93144  1.0000
  C   C134      1.0  0.20437  0.00490  0.56856  1.0000
  C   C135      1.0  0.29563  0.50490  0.93144  1.0000
  C   C136      1.0  0.70437  0.50490  0.56856  1.0000
  H   H65       1.0  0.21670  0.01410  0.08940  1.0000
  H   H66       1.0  0.78330  0.01410  0.41060  1.0000
  H   H67       1.0  0.71670  0.51410  0.08940  1.0000
  H   H68       1.0  0.28330  0.51410  0.41060  1.0000
  H   H69       1.0  0.78330  0.98590  0.91060  1.0000
  H   H70       1.0  0.21670  0.98590  0.58940  1.0000
  H   H71       1.0  0.28330  0.48590  0.91060  1.0000
  H   H72       1.0  0.71670  0.48590  0.58940  1.0000
  C   C137      1.0  0.17743  0.04090  0.05175  1.0000
  C   C138      1.0  0.82257  0.04090  0.44825  1.0000
  C   C139      1.0  0.67743  0.54090  0.05175  1.0000
  C   C140      1.0  0.32257  0.54090  0.44825  1.0000
  C   C141      1.0  0.82257  0.95910  0.94825  1.0000
  C   C142      1.0  0.17743  0.95910  0.55175  1.0000
  C   C143      1.0  0.32257  0.45910  0.94825  1.0000
  C   C144      1.0  0.67743  0.45910  0.55175  1.0000
  H   H73       1.0  0.17300  0.08960  0.06200  1.0000
  H   H74       1.0  0.82700  0.08960  0.43800  1.0000
  H   H75       1.0  0.67300  0.58960  0.06200  1.0000
  H   H76       1.0  0.32700  0.58960  0.43800  1.0000
  H   H77       1.0  0.82700  0.91040  0.93800  1.0000
  H   H78       1.0  0.17300  0.91040  0.56200  1.0000
  H   H79       1.0  0.32700  0.41040  0.93800  1.0000
  H   H80       1.0  0.67300  0.41040  0.56200  1.0000
  C   C145      1.0  0.15820  0.01670  0.02181  1.0000
  C   C146      1.0  0.84180  0.01670  0.47819  1.0000
  C   C147      1.0  0.65820  0.51670  0.02181  1.0000
  C   C148      1.0  0.34180  0.51670  0.47819  1.0000
  C   C149      1.0  0.84180  0.98330  0.97819  1.0000
  C   C150      1.0  0.15820  0.98330  0.52181  1.0000
  C   C151      1.0  0.34180  0.48330  0.97819  1.0000
  C   C152      1.0  0.65820  0.48330  0.52181  1.0000
  C   C153      1.0  0.16719  0.94190  0.00801  1.0000
  C   C154      1.0  0.83281  0.94190  0.49199  1.0000
  C   C155      1.0  0.66719  0.44190  0.00801  1.0000
  C   C156      1.0  0.33281  0.44190  0.49199  1.0000
  C   C157      1.0  0.83281  0.05810  0.99199  1.0000
  C   C158      1.0  0.16719  0.05810  0.50801  1.0000
  C   C159      1.0  0.33281  0.55810  0.99199  1.0000
  C   C160      1.0  0.66719  0.55810  0.50801  1.0000
  H   H81       1.0  0.15480  0.92140  0.98740  1.0000
  H   H82       1.0  0.84520  0.92140  0.51260  1.0000
  H   H83       1.0  0.65480  0.42140  0.98740  1.0000
  H   H84       1.0  0.34520  0.42140  0.51260  1.0000
  H   H85       1.0  0.84520  0.07860  0.01260  1.0000
  H   H86       1.0  0.15480  0.07860  0.48740  1.0000
  H   H87       1.0  0.34520  0.57860  0.01260  1.0000
  H   H88       1.0  0.65480  0.57860  0.48740  1.0000
  C   C161      1.0  0.19316  0.89940  0.02377  1.0000
  C   C162      1.0  0.80684  0.89940  0.47623  1.0000
  C   C163      1.0  0.69316  0.39940  0.02377  1.0000
  C   C164      1.0  0.30684  0.39940  0.47623  1.0000
  C   C165      1.0  0.80684  0.10060  0.97623  1.0000
  C   C166      1.0  0.19316  0.10060  0.52377  1.0000
  C   C167      1.0  0.30684  0.60060  0.97623  1.0000
  C   C168      1.0  0.69316  0.60060  0.52377  1.0000
  H   H89       1.0  0.19810  0.85220  0.01350  1.0000
  H   H90       1.0  0.80190  0.85220  0.48650  1.0000
  H   H91       1.0  0.69810  0.35220  0.01350  1.0000
  H   H92       1.0  0.30190  0.35220  0.48650  1.0000
  H   H93       1.0  0.80190  0.14780  0.98650  1.0000
  H   H94       1.0  0.19810  0.14780  0.51350  1.0000
  H   H95       1.0  0.30190  0.64780  0.98650  1.0000
  H   H96       1.0  0.69810  0.64780  0.51350  1.0000
  C   C169      1.0  0.12967  0.05320  0.00579  1.0000
  C   C170      1.0  0.87033  0.05320  0.49421  1.0000
  C   C171      1.0  0.62967  0.55320  0.00579  1.0000
  C   C172      1.0  0.37033  0.55320  0.49421  1.0000
  C   C173      1.0  0.87033  0.94680  0.99421  1.0000
  C   C174      1.0  0.12967  0.94680  0.50579  1.0000
  C   C175      1.0  0.37033  0.44680  0.99421  1.0000
  C   C176      1.0  0.62967  0.44680  0.50579  1.0000
  C   C177      1.0  0.11610  0.07910  0.02326  1.0000
  C   C178      1.0  0.88390  0.07910  0.47674  1.0000
  C   C179      1.0  0.61610  0.57910  0.02326  1.0000
  C   C180      1.0  0.38390  0.57910  0.47674  1.0000
  C   C181      1.0  0.88390  0.92090  0.97674  1.0000
  C   C182      1.0  0.11610  0.92090  0.52326  1.0000
  C   C183      1.0  0.38390  0.42090  0.97674  1.0000
  C   C184      1.0  0.61610  0.42090  0.52326  1.0000
  H   H97       1.0  0.12600  0.07280  0.04540  1.0000
  H   H98       1.0  0.87400  0.07280  0.45460  1.0000
  H   H99       1.0  0.62600  0.57280  0.04540  1.0000
  H   H100      1.0  0.37400  0.57280  0.45460  1.0000
  H   H101      1.0  0.87400  0.92720  0.95460  1.0000
  H   H102      1.0  0.12600  0.92720  0.54540  1.0000
  H   H103      1.0  0.37400  0.42720  0.95460  1.0000
  H   H104      1.0  0.62600  0.42720  0.54540  1.0000
  C   C185      1.0  0.08908  0.11340  0.00980  1.0000
  C   C186      1.0  0.91092  0.11340  0.49020  1.0000
  C   C187      1.0  0.58908  0.61340  0.00980  1.0000
  C   C188      1.0  0.41092  0.61340  0.49020  1.0000
  C   C189      1.0  0.91092  0.88660  0.99020  1.0000
  C   C190      1.0  0.08908  0.88660  0.50980  1.0000
  C   C191      1.0  0.41092  0.38660  0.99020  1.0000
  C   C192      1.0  0.58908  0.38660  0.50980  1.0000
  H   H105      1.0  0.08150  0.13450  0.02270  1.0000
  H   H106      1.0  0.91850  0.13450  0.47730  1.0000
  H   H107      1.0  0.58150  0.63450  0.02270  1.0000
  H   H108      1.0  0.41850  0.63450  0.47730  1.0000
  H   H109      1.0  0.91850  0.86550  0.97730  1.0000
  H   H110      1.0  0.08150  0.86550  0.52270  1.0000
  H   H111      1.0  0.41850  0.36550  0.97730  1.0000
  H   H112      1.0  0.58150  0.36550  0.52270  1.0000
  C   C193      1.0  0.07299  0.11650  0.97655  1.0000
  C   C194      1.0  0.92701  0.11650  0.52345  1.0000
  C   C195      1.0  0.57299  0.61650  0.97655  1.0000
  C   C196      1.0  0.42701  0.61650  0.52345  1.0000
  C   C197      1.0  0.92701  0.88350  0.02345  1.0000
  C   C198      1.0  0.07299  0.88350  0.47655  1.0000
  C   C199      1.0  0.42701  0.38350  0.02345  1.0000
  C   C200      1.0  0.57299  0.38350  0.47655  1.0000
  C   C201      1.0  0.08531  0.08940  0.95791  1.0000
  C   C202      1.0  0.91469  0.08940  0.54209  1.0000
  C   C203      1.0  0.58531  0.58940  0.95791  1.0000
  C   C204      1.0  0.41469  0.58940  0.54209  1.0000
  C   C205      1.0  0.91469  0.91060  0.04209  1.0000
  C   C206      1.0  0.08531  0.91060  0.45791  1.0000
  C   C207      1.0  0.41469  0.41060  0.04209  1.0000
  C   C208      1.0  0.58531  0.41060  0.45791  1.0000
  H   H113      1.0  0.07480  0.09120  0.93570  1.0000
  H   H114      1.0  0.92520  0.09120  0.56430  1.0000
  H   H115      1.0  0.57480  0.59120  0.93570  1.0000
  H   H116      1.0  0.42520  0.59120  0.56430  1.0000
  H   H117      1.0  0.92520  0.90880  0.06430  1.0000
  H   H118      1.0  0.07480  0.90880  0.43570  1.0000
  H   H119      1.0  0.42520  0.40880  0.06430  1.0000
  H   H120      1.0  0.57480  0.40880  0.43570  1.0000
  C   C209      1.0  0.11336  0.05950  0.97224  1.0000
  C   C210      1.0  0.88664  0.05950  0.52776  1.0000
  C   C211      1.0  0.61336  0.55950  0.97224  1.0000
  C   C212      1.0  0.38664  0.55950  0.52776  1.0000
  C   C213      1.0  0.88664  0.94050  0.02776  1.0000
  C   C214      1.0  0.11336  0.94050  0.47224  1.0000
  C   C215      1.0  0.38664  0.44050  0.02776  1.0000
  C   C216      1.0  0.61336  0.44050  0.47224  1.0000
  H   H121      1.0  0.12150  0.04330  0.95940  1.0000
  H   H122      1.0  0.87850  0.04330  0.54060  1.0000
  H   H123      1.0  0.62150  0.54330  0.95940  1.0000
  H   H124      1.0  0.37850  0.54330  0.54060  1.0000
  H   H125      1.0  0.87850  0.95670  0.04060  1.0000
  H   H126      1.0  0.12150  0.95670  0.45940  1.0000
  H   H127      1.0  0.37850  0.45670  0.04060  1.0000
  H   H128      1.0  0.62150  0.45670  0.45940  1.0000
  C   C217      1.0  0.04227  0.14810  0.96171  1.0000
  C   C218      1.0  0.95773  0.14810  0.53829  1.0000
  C   C219      1.0  0.54227  0.64810  0.96171  1.0000
  C   C220      1.0  0.45773  0.64810  0.53829  1.0000
  C   C221      1.0  0.95773  0.85190  0.03829  1.0000
  C   C222      1.0  0.04227  0.85190  0.46171  1.0000
  C   C223      1.0  0.45773  0.35190  0.03829  1.0000
  C   C224      1.0  0.54227  0.35190  0.46171  1.0000
  C   C225      1.0  0.27687  0.61620  0.11520  1.0000
  C   C226      1.0  0.72313  0.61620  0.38480  1.0000
  C   C227      1.0  0.77687  0.11620  0.11520  1.0000
  C   C228      1.0  0.22313  0.11620  0.38480  1.0000
  C   C229      1.0  0.72313  0.38380  0.88480  1.0000
  C   C230      1.0  0.27687  0.38380  0.61520  1.0000
  C   C231      1.0  0.22313  0.88380  0.88480  1.0000
  C   C232      1.0  0.77687  0.88380  0.61520  1.0000
  C   C233      1.0  0.26852  0.52420  0.12473  1.0000
  C   C234      1.0  0.73148  0.52420  0.37527  1.0000
  C   C235      1.0  0.76852  0.02420  0.12473  1.0000
  C   C236      1.0  0.23148  0.02420  0.37527  1.0000
  C   C237      1.0  0.73148  0.47580  0.87527  1.0000
  C   C238      1.0  0.26852  0.47580  0.62473  1.0000
  C   C239      1.0  0.23148  0.97580  0.87527  1.0000
  C   C240      1.0  0.76852  0.97580  0.62473  1.0000
  C   C241      1.0  0.25952  0.44490  0.10320  1.0000
  C   C242      1.0  0.74048  0.44490  0.39680  1.0000
  C   C243      1.0  0.75952  0.94490  0.10320  1.0000
  C   C244      1.0  0.24048  0.94490  0.39680  1.0000
  C   C245      1.0  0.74048  0.55510  0.89680  1.0000
  C   C246      1.0  0.25952  0.55510  0.60320  1.0000
  C   C247      1.0  0.24048  0.05510  0.89680  1.0000
  C   C248      1.0  0.75952  0.05510  0.60320  1.0000
  H   H129      1.0  0.25860  0.45080  0.08320  1.0000
  H   H130      1.0  0.74140  0.45080  0.41680  1.0000
  H   H131      1.0  0.75860  0.95080  0.08320  1.0000
  H   H132      1.0  0.24140  0.95080  0.41680  1.0000
  H   H133      1.0  0.74140  0.54920  0.91680  1.0000
  H   H134      1.0  0.25860  0.54920  0.58320  1.0000
  H   H135      1.0  0.24140  0.04920  0.91680  1.0000
  H   H136      1.0  0.75860  0.04920  0.58320  1.0000
  C   C249      1.0  0.25233  0.36050  0.11190  1.0000
  C   C250      1.0  0.74767  0.36050  0.38810  1.0000
  C   C251      1.0  0.75233  0.86050  0.11190  1.0000
  C   C252      1.0  0.24767  0.86050  0.38810  1.0000
  C   C253      1.0  0.74767  0.63950  0.88810  1.0000
  C   C254      1.0  0.25233  0.63950  0.61190  1.0000
  C   C255      1.0  0.24767  0.13950  0.88810  1.0000
  C   C256      1.0  0.75233  0.13950  0.61190  1.0000
  H   H137      1.0  0.24610  0.31010  0.09730  1.0000
  H   H138      1.0  0.75390  0.31010  0.40270  1.0000
  H   H139      1.0  0.74610  0.81010  0.09730  1.0000
  H   H140      1.0  0.25390  0.81010  0.40270  1.0000
  H   H141      1.0  0.75390  0.68990  0.90270  1.0000
  H   H142      1.0  0.24610  0.68990  0.59730  1.0000
  H   H143      1.0  0.25390  0.18990  0.90270  1.0000
  H   H144      1.0  0.74610  0.18990  0.59730  1.0000
  C   C257      1.0  0.25395  0.34740  0.14151  1.0000
  C   C258      1.0  0.74605  0.34740  0.35849  1.0000
  C   C259      1.0  0.75395  0.84740  0.14151  1.0000
  C   C260      1.0  0.24605  0.84740  0.35849  1.0000
  C   C261      1.0  0.74605  0.65260  0.85849  1.0000
  C   C262      1.0  0.25395  0.65260  0.64151  1.0000
  C   C263      1.0  0.24605  0.15260  0.85849  1.0000
  C   C264      1.0  0.75395  0.15260  0.64151  1.0000
  C   C265      1.0  0.26186  0.42560  0.16207  1.0000
  C   C266      1.0  0.73814  0.42560  0.33793  1.0000
  C   C267      1.0  0.76186  0.92560  0.16207  1.0000
  C   C268      1.0  0.23814  0.92560  0.33793  1.0000
  C   C269      1.0  0.73814  0.57440  0.83793  1.0000
  C   C270      1.0  0.26186  0.57440  0.66207  1.0000
  C   C271      1.0  0.23814  0.07440  0.83793  1.0000
  C   C272      1.0  0.76186  0.07440  0.66207  1.0000
  H   H145      1.0  0.26230  0.41910  0.18180  1.0000
  H   H146      1.0  0.73770  0.41910  0.31820  1.0000
  H   H147      1.0  0.76230  0.91910  0.18180  1.0000
  H   H148      1.0  0.23770  0.91910  0.31820  1.0000
  H   H149      1.0  0.73770  0.58090  0.81820  1.0000
  H   H150      1.0  0.26230  0.58090  0.68180  1.0000
  H   H151      1.0  0.23770  0.08090  0.81820  1.0000
  H   H152      1.0  0.76230  0.08090  0.68180  1.0000
  C   C273      1.0  0.26914  0.51260  0.15421  1.0000
  C   C274      1.0  0.73086  0.51260  0.34579  1.0000
  C   C275      1.0  0.76914  0.01260  0.15421  1.0000
  C   C276      1.0  0.23086  0.01260  0.34579  1.0000
  C   C277      1.0  0.73086  0.48740  0.84579  1.0000
  C   C278      1.0  0.26914  0.48740  0.65421  1.0000
  C   C279      1.0  0.23086  0.98740  0.84579  1.0000
  C   C280      1.0  0.76914  0.98740  0.65421  1.0000
  H   H153      1.0  0.27440  0.56330  0.16860  1.0000
  H   H154      1.0  0.72560  0.56330  0.33140  1.0000
  H   H155      1.0  0.77440  0.06330  0.16860  1.0000
  H   H156      1.0  0.22560  0.06330  0.33140  1.0000
  H   H157      1.0  0.72560  0.43670  0.83140  1.0000
  H   H158      1.0  0.27440  0.43670  0.66860  1.0000
  H   H159      1.0  0.22560  0.93670  0.83140  1.0000
  H   H160      1.0  0.77440  0.93670  0.66860  1.0000
  C   C281      1.0  0.24805  0.25060  0.15090  1.0000
  C   C282      1.0  0.75195  0.25060  0.34910  1.0000
  C   C283      1.0  0.74805  0.75060  0.15090  1.0000
  C   C284      1.0  0.25195  0.75060  0.34910  1.0000
  C   C285      1.0  0.75195  0.74940  0.84910  1.0000
  C   C286      1.0  0.24805  0.74940  0.65090  1.0000
  C   C287      1.0  0.25195  0.24940  0.84910  1.0000
  C   C288      1.0  0.74805  0.24940  0.65090  1.0000
  C   C289      1.0  0.25882  0.17070  0.14340  1.0000
  C   C290      1.0  0.74118  0.17070  0.35660  1.0000
  C   C291      1.0  0.75882  0.67070  0.14340  1.0000
  C   C292      1.0  0.24118  0.67070  0.35660  1.0000
  C   C293      1.0  0.74118  0.82930  0.85660  1.0000
  C   C294      1.0  0.25882  0.82930  0.64340  1.0000
  C   C295      1.0  0.24118  0.32930  0.85660  1.0000
  C   C296      1.0  0.75882  0.32930  0.64340  1.0000
  H   H161      1.0  0.26900  0.17810  0.13220  1.0000
  H   H162      1.0  0.73100  0.17810  0.36780  1.0000
  H   H163      1.0  0.76900  0.67810  0.13220  1.0000
  H   H164      1.0  0.23100  0.67810  0.36780  1.0000
  H   H165      1.0  0.73100  0.82190  0.86780  1.0000
  H   H166      1.0  0.26900  0.82190  0.63220  1.0000
  H   H167      1.0  0.23100  0.32190  0.86780  1.0000
  H   H168      1.0  0.76900  0.32190  0.63220  1.0000
  C   C297      1.0  0.25469  0.07700  0.15239  1.0000
  C   C298      1.0  0.74531  0.07700  0.34761  1.0000
  C   C299      1.0  0.75469  0.57700  0.15239  1.0000
  C   C300      1.0  0.24531  0.57700  0.34761  1.0000
  C   C301      1.0  0.74531  0.92300  0.84761  1.0000
  C   C302      1.0  0.25469  0.92300  0.65239  1.0000
  C   C303      1.0  0.24531  0.42300  0.84761  1.0000
  C   C304      1.0  0.75469  0.42300  0.65239  1.0000
  H   H169      1.0  0.26190  0.02410  0.14680  1.0000
  H   H170      1.0  0.73810  0.02410  0.35320  1.0000
  H   H171      1.0  0.76190  0.52410  0.14680  1.0000
  H   H172      1.0  0.23810  0.52410  0.35320  1.0000
  H   H173      1.0  0.73810  0.97590  0.85320  1.0000
  H   H174      1.0  0.26190  0.97590  0.64680  1.0000
  H   H175      1.0  0.23810  0.47590  0.85320  1.0000
  H   H176      1.0  0.76190  0.47590  0.64680  1.0000
  C   C305      1.0  0.24006  0.06490  0.16942  1.0000
  C   C306      1.0  0.75994  0.06490  0.33058  1.0000
  C   C307      1.0  0.74006  0.56490  0.16942  1.0000
  C   C308      1.0  0.25994  0.56490  0.33058  1.0000
  C   C309      1.0  0.75994  0.93510  0.83058  1.0000
  C   C310      1.0  0.24006  0.93510  0.66942  1.0000
  C   C311      1.0  0.25994  0.43510  0.83058  1.0000
  C   C312      1.0  0.74006  0.43510  0.66942  1.0000
  C   C313      1.0  0.23021  0.14880  0.17831  1.0000
  C   C314      1.0  0.76979  0.14880  0.32169  1.0000
  C   C315      1.0  0.73021  0.64880  0.17831  1.0000
  C   C316      1.0  0.26979  0.64880  0.32169  1.0000
  C   C317      1.0  0.76979  0.85120  0.82169  1.0000
  C   C318      1.0  0.23021  0.85120  0.67831  1.0000
  C   C319      1.0  0.26979  0.35120  0.82169  1.0000
  C   C320      1.0  0.73021  0.35120  0.67831  1.0000
  H   H177      1.0  0.22010  0.14310  0.18970  1.0000
  H   H178      1.0  0.77990  0.14310  0.31030  1.0000
  H   H179      1.0  0.72010  0.64310  0.18970  1.0000
  H   H180      1.0  0.27990  0.64310  0.31030  1.0000
  H   H181      1.0  0.77990  0.85690  0.81030  1.0000
  H   H182      1.0  0.22010  0.85690  0.68970  1.0000
  H   H183      1.0  0.27990  0.35690  0.81030  1.0000
  H   H184      1.0  0.72010  0.35690  0.68970  1.0000
  C   C321      1.0  0.23565  0.23820  0.17010  1.0000
  C   C322      1.0  0.76435  0.23820  0.32990  1.0000
  C   C323      1.0  0.73565  0.73820  0.17010  1.0000
  C   C324      1.0  0.26435  0.73820  0.32990  1.0000
  C   C325      1.0  0.76435  0.76180  0.82990  1.0000
  C   C326      1.0  0.23565  0.76180  0.67010  1.0000
  C   C327      1.0  0.26435  0.26180  0.82990  1.0000
  C   C328      1.0  0.73565  0.26180  0.67010  1.0000
  H   H185      1.0  0.23070  0.29200  0.17800  1.0000
  H   H186      1.0  0.76930  0.29200  0.32200  1.0000
  H   H187      1.0  0.73070  0.79200  0.17800  1.0000
  H   H188      1.0  0.26930  0.79200  0.32200  1.0000
  H   H189      1.0  0.76930  0.70800  0.82200  1.0000
  H   H190      1.0  0.23070  0.70800  0.67800  1.0000
  H   H191      1.0  0.26930  0.20800  0.82200  1.0000
  H   H192      1.0  0.73070  0.20800  0.67800  1.0000
  C   C329      1.0  0.23397  0.96940  0.17736  1.0000
  C   C330      1.0  0.76603  0.96940  0.32264  1.0000
  C   C331      1.0  0.73397  0.46940  0.17736  1.0000
  C   C332      1.0  0.26603  0.46940  0.32264  1.0000
  C   C333      1.0  0.76603  0.03060  0.82264  1.0000
  C   C334      1.0  0.23397  0.03060  0.67736  1.0000
  C   C335      1.0  0.26603  0.53060  0.82264  1.0000
  C   C336      1.0  0.73397  0.53060  0.67736  1.0000
  C   C337      1.0  0.32042  0.90730  0.16208  1.0000
  C   C338      1.0  0.67958  0.90730  0.33792  1.0000
  C   C339      1.0  0.82042  0.40730  0.16208  1.0000
  C   C340      1.0  0.17958  0.40730  0.33792  1.0000
  C   C341      1.0  0.67958  0.09270  0.83792  1.0000
  C   C342      1.0  0.32042  0.09270  0.66208  1.0000
  C   C343      1.0  0.17958  0.59270  0.83792  1.0000
  C   C344      1.0  0.82042  0.59270  0.66208  1.0000
  C   C345      1.0  0.34475  0.96520  0.18309  1.0000
  C   C346      1.0  0.65525  0.96520  0.31691  1.0000
  C   C347      1.0  0.84475  0.46520  0.18309  1.0000
  C   C348      1.0  0.15525  0.46520  0.31691  1.0000
  C   C349      1.0  0.65525  0.03480  0.81691  1.0000
  C   C350      1.0  0.34475  0.03480  0.68309  1.0000
  C   C351      1.0  0.15525  0.53480  0.81691  1.0000
  C   C352      1.0  0.84475  0.53480  0.68309  1.0000
  C   C353      1.0  0.36270  0.00540  0.17240  1.0000
  C   C354      1.0  0.63730  0.00540  0.32760  1.0000
  C   C355      1.0  0.86270  0.50540  0.17240  1.0000
  C   C356      1.0  0.13730  0.50540  0.32760  1.0000
  C   C357      1.0  0.63730  0.99460  0.82760  1.0000
  C   C358      1.0  0.36270  0.99460  0.67240  1.0000
  C   C359      1.0  0.13730  0.49460  0.82760  1.0000
  C   C360      1.0  0.86270  0.49460  0.67240  1.0000
  H   H193      1.0  0.35790  0.00090  0.15080  1.0000
  H   H194      1.0  0.64210  0.00090  0.34920  1.0000
  H   H195      1.0  0.85790  0.50090  0.15080  1.0000
  H   H196      1.0  0.14210  0.50090  0.34920  1.0000
  H   H197      1.0  0.64210  0.99910  0.84920  1.0000
  H   H198      1.0  0.35790  0.99910  0.65080  1.0000
  H   H199      1.0  0.14210  0.49910  0.84920  1.0000
  H   H200      1.0  0.85790  0.49910  0.65080  1.0000
  C   C361      1.0  0.38729  0.05140  0.19312  1.0000
  C   C362      1.0  0.61271  0.05140  0.30688  1.0000
  C   C363      1.0  0.88729  0.55140  0.19312  1.0000
  C   C364      1.0  0.11271  0.55140  0.30688  1.0000
  C   C365      1.0  0.61271  0.94860  0.80688  1.0000
  C   C366      1.0  0.38729  0.94860  0.69312  1.0000
  C   C367      1.0  0.11271  0.44860  0.80688  1.0000
  C   C368      1.0  0.88729  0.44860  0.69312  1.0000
  H   H201      1.0  0.39920  0.07410  0.18530  1.0000
  H   H202      1.0  0.60080  0.07410  0.31470  1.0000
  H   H203      1.0  0.89920  0.57410  0.18530  1.0000
  H   H204      1.0  0.10080  0.57410  0.31470  1.0000
  H   H205      1.0  0.60080  0.92590  0.81470  1.0000
  H   H206      1.0  0.39920  0.92590  0.68530  1.0000
  H   H207      1.0  0.10080  0.42590  0.81470  1.0000
  H   H208      1.0  0.89920  0.42590  0.68530  1.0000
  C   C369      1.0  0.39530  0.06590  0.22635  1.0000
  C   C370      1.0  0.60470  0.06590  0.27365  1.0000
  C   C371      1.0  0.89530  0.56590  0.22635  1.0000
  C   C372      1.0  0.10470  0.56590  0.27365  1.0000
  C   C373      1.0  0.60470  0.93410  0.77365  1.0000
  C   C374      1.0  0.39530  0.93410  0.72635  1.0000
  C   C375      1.0  0.10470  0.43410  0.77365  1.0000
  C   C376      1.0  0.89530  0.43410  0.72635  1.0000
  C   C377      1.0  0.37618  0.03150  0.23570  1.0000
  C   C378      1.0  0.62382  0.03150  0.26430  1.0000
  C   C379      1.0  0.87618  0.53150  0.23570  1.0000
  C   C380      1.0  0.12382  0.53150  0.26430  1.0000
  C   C381      1.0  0.62382  0.96850  0.76430  1.0000
  C   C382      1.0  0.37618  0.96850  0.73570  1.0000
  C   C383      1.0  0.12382  0.46850  0.76430  1.0000
  C   C384      1.0  0.87618  0.46850  0.73570  1.0000
  H   H209      1.0  0.37990  0.03980  0.25680  1.0000
  H   H210      1.0  0.62010  0.03980  0.24320  1.0000
  H   H211      1.0  0.87990  0.53980  0.25680  1.0000
  H   H212      1.0  0.12010  0.53980  0.24320  1.0000
  H   H213      1.0  0.62010  0.96020  0.74320  1.0000
  H   H214      1.0  0.37990  0.96020  0.75680  1.0000
  H   H215      1.0  0.12010  0.46020  0.74320  1.0000
  H   H216      1.0  0.87990  0.46020  0.75680  1.0000
  C   C385      1.0  0.35135  0.98450  0.21420  1.0000
  C   C386      1.0  0.64865  0.98450  0.28580  1.0000
  C   C387      1.0  0.85135  0.48450  0.21420  1.0000
  C   C388      1.0  0.14865  0.48450  0.28580  1.0000
  C   C389      1.0  0.64865  0.01550  0.78580  1.0000
  C   C390      1.0  0.35135  0.01550  0.71420  1.0000
  C   C391      1.0  0.14865  0.51550  0.78580  1.0000
  C   C392      1.0  0.85135  0.51550  0.71420  1.0000
  H   H217      1.0  0.33870  0.96540  0.22140  1.0000
  H   H218      1.0  0.66130  0.96540  0.27860  1.0000
  H   H219      1.0  0.83870  0.46540  0.22140  1.0000
  H   H220      1.0  0.16130  0.46540  0.27860  1.0000
  H   H221      1.0  0.66130  0.03460  0.77860  1.0000
  H   H222      1.0  0.33870  0.03460  0.72140  1.0000
  H   H223      1.0  0.16130  0.53460  0.77860  1.0000
  H   H224      1.0  0.83870  0.53460  0.72140  1.0000
  C   C393      1.0  0.42188  0.11170  0.24827  1.0000
  C   C394      1.0  0.57812  0.11170  0.25173  1.0000
  C   C395      1.0  0.92188  0.61170  0.24827  1.0000
  C   C396      1.0  0.07812  0.61170  0.25173  1.0000
  C   C397      1.0  0.57812  0.88830  0.75173  1.0000
  C   C398      1.0  0.42188  0.88830  0.74827  1.0000
  C   C399      1.0  0.07812  0.38830  0.75173  1.0000
  C   C400      1.0  0.92188  0.38830  0.74827  1.0000
  C   C401      1.0  0.44043  0.14650  0.23668  1.0000
  C   C402      1.0  0.55957  0.14650  0.26332  1.0000
  C   C403      1.0  0.94043  0.64650  0.23668  1.0000
  C   C404      1.0  0.05957  0.64650  0.26332  1.0000
  C   C405      1.0  0.55957  0.85350  0.76332  1.0000
  C   C406      1.0  0.44043  0.85350  0.73668  1.0000
  C   C407      1.0  0.05957  0.35350  0.76332  1.0000
  C   C408      1.0  0.94043  0.35350  0.73668  1.0000
  H   H225      1.0  0.43490  0.14530  0.21490  1.0000
  H   H226      1.0  0.56510  0.14530  0.28510  1.0000
  H   H227      1.0  0.93490  0.64530  0.21490  1.0000
  H   H228      1.0  0.06510  0.64530  0.28510  1.0000
  H   H229      1.0  0.56510  0.85470  0.78510  1.0000
  H   H230      1.0  0.43490  0.85470  0.71490  1.0000
  H   H231      1.0  0.06510  0.35470  0.78510  1.0000
  H   H232      1.0  0.93490  0.35470  0.71490  1.0000
  C   C409      1.0  0.46616  0.18110  0.25800  1.0000
  C   C410      1.0  0.53384  0.18110  0.24200  1.0000
  C   C411      1.0  0.96616  0.68110  0.25800  1.0000
  C   C412      1.0  0.03384  0.68110  0.24200  1.0000
  C   C413      1.0  0.53384  0.81890  0.74200  1.0000
  C   C414      1.0  0.46616  0.81890  0.75800  1.0000
  C   C415      1.0  0.03384  0.31890  0.74200  1.0000
  C   C416      1.0  0.96616  0.31890  0.75800  1.0000
  H   H233      1.0  0.47820  0.20230  0.25020  1.0000
  H   H234      1.0  0.52180  0.20230  0.24980  1.0000
  H   H235      1.0  0.97820  0.70230  0.25020  1.0000
  H   H236      1.0  0.02180  0.70230  0.24980  1.0000
  H   H237      1.0  0.52180  0.79770  0.74980  1.0000
  H   H238      1.0  0.47820  0.79770  0.75020  1.0000
  H   H239      1.0  0.02180  0.29770  0.74980  1.0000
  H   H240      1.0  0.97820  0.29770  0.75020  1.0000
  C   C417      1.0  0.47570  0.18700  0.29081  1.0000
  C   C418      1.0  0.52430  0.18700  0.20919  1.0000
  C   C419      1.0  0.97570  0.68700  0.29081  1.0000
  C   C420      1.0  0.02430  0.68700  0.20919  1.0000
  C   C421      1.0  0.52430  0.81300  0.70919  1.0000
  C   C422      1.0  0.47570  0.81300  0.79081  1.0000
  C   C423      1.0  0.02430  0.31300  0.70919  1.0000
  C   C424      1.0  0.97570  0.31300  0.79081  1.0000
  C   C425      1.0  0.45685  0.15710  0.30149  1.0000
  C   C426      1.0  0.54315  0.15710  0.19851  1.0000
  C   C427      1.0  0.95685  0.65710  0.30149  1.0000
  C   C428      1.0  0.04315  0.65710  0.19851  1.0000
  C   C429      1.0  0.54315  0.84290  0.69851  1.0000
  C   C430      1.0  0.45685  0.84290  0.80149  1.0000
  C   C431      1.0  0.04315  0.34290  0.69851  1.0000
  C   C432      1.0  0.95685  0.34290  0.80149  1.0000
  H   H241      1.0  0.46200  0.16150  0.32320  1.0000
  H   H242      1.0  0.53800  0.16150  0.17680  1.0000
  H   H243      1.0  0.96200  0.66150  0.32320  1.0000
  H   H244      1.0  0.03800  0.66150  0.17680  1.0000
  H   H245      1.0  0.53800  0.83850  0.67680  1.0000
  H   H246      1.0  0.46200  0.83850  0.82320  1.0000
  H   H247      1.0  0.03800  0.33850  0.67680  1.0000
  H   H248      1.0  0.96200  0.33850  0.82320  1.0000
  C   C433      1.0  0.43030  0.12080  0.28016  1.0000
  C   C434      1.0  0.56970  0.12080  0.21984  1.0000
  C   C435      1.0  0.93030  0.62080  0.28016  1.0000
  C   C436      1.0  0.06970  0.62080  0.21984  1.0000
  C   C437      1.0  0.56970  0.87920  0.71984  1.0000
  C   C438      1.0  0.43030  0.87920  0.78016  1.0000
  C   C439      1.0  0.06970  0.37920  0.71984  1.0000
  C   C440      1.0  0.93030  0.37920  0.78016  1.0000
  H   H249      1.0  0.41800  0.10240  0.28790  1.0000
  H   H250      1.0  0.58200  0.10240  0.21210  1.0000
  H   H251      1.0  0.91800  0.60240  0.28790  1.0000
  H   H252      1.0  0.08200  0.60240  0.21210  1.0000
  H   H253      1.0  0.58200  0.89760  0.71210  1.0000
  H   H254      1.0  0.41800  0.89760  0.78790  1.0000
  H   H255      1.0  0.08200  0.39760  0.71210  1.0000
  H   H256      1.0  0.91800  0.39760  0.78790  1.0000
  C   C441      1.0  0.50486  0.21610  0.31288  1.0000
  C   C442      1.0  0.49514  0.21610  0.18712  1.0000
  C   C443      1.0  0.00486  0.71610  0.31288  1.0000
  C   C444      1.0  0.99514  0.71610  0.18712  1.0000
  C   C445      1.0  0.49514  0.78390  0.68712  1.0000
  C   C446      1.0  0.50486  0.78390  0.81288  1.0000
  C   C447      1.0  0.99514  0.28390  0.68712  1.0000
  C   C448      1.0  0.00486  0.28390  0.81288  1.0000
  C   C449      1.0  0.27285  0.69660  0.21758  1.0000
  C   C450      1.0  0.72715  0.69660  0.28242  1.0000
  C   C451      1.0  0.77285  0.19660  0.21758  1.0000
  C   C452      1.0  0.22715  0.19660  0.28242  1.0000
  C   C453      1.0  0.72715  0.30340  0.78242  1.0000
  C   C454      1.0  0.27285  0.30340  0.71758  1.0000
  C   C455      1.0  0.22715  0.80340  0.78242  1.0000
  C   C456      1.0  0.77285  0.80340  0.71758  1.0000
  C   C457      1.0  0.29929  0.64730  0.23873  1.0000
  C   C458      1.0  0.70071  0.64730  0.26127  1.0000
  C   C459      1.0  0.79929  0.14730  0.23873  1.0000
  C   C460      1.0  0.20071  0.14730  0.26127  1.0000
  C   C461      1.0  0.70071  0.35270  0.76127  1.0000
  C   C462      1.0  0.29929  0.35270  0.73873  1.0000
  C   C463      1.0  0.20071  0.85270  0.76127  1.0000
  C   C464      1.0  0.79929  0.85270  0.73873  1.0000
  C   C465      1.0  0.30027  0.57900  0.26262  1.0000
  C   C466      1.0  0.69973  0.57900  0.23738  1.0000
  C   C467      1.0  0.80027  0.07900  0.26262  1.0000
  C   C468      1.0  0.19973  0.07900  0.23738  1.0000
  C   C469      1.0  0.69973  0.42100  0.73738  1.0000
  C   C470      1.0  0.30027  0.42100  0.76262  1.0000
  C   C471      1.0  0.19973  0.92100  0.73738  1.0000
  C   C472      1.0  0.80027  0.92100  0.76262  1.0000
  H   H257      1.0  0.28410  0.56580  0.26440  1.0000
  H   H258      1.0  0.71590  0.56580  0.23560  1.0000
  H   H259      1.0  0.78410  0.06580  0.26440  1.0000
  H   H260      1.0  0.21590  0.06580  0.23560  1.0000
  H   H261      1.0  0.71590  0.43420  0.73560  1.0000
  H   H262      1.0  0.28410  0.43420  0.76440  1.0000
  H   H263      1.0  0.21590  0.93420  0.73560  1.0000
  H   H264      1.0  0.78410  0.93420  0.76440  1.0000
  C   C473      1.0  0.32542  0.53480  0.28233  1.0000
  C   C474      1.0  0.67458  0.53480  0.21767  1.0000
  C   C475      1.0  0.82542  0.03480  0.28233  1.0000
  C   C476      1.0  0.17458  0.03480  0.21767  1.0000
  C   C477      1.0  0.67458  0.46520  0.71767  1.0000
  C   C478      1.0  0.32542  0.46520  0.78233  1.0000
  C   C479      1.0  0.17458  0.96520  0.71767  1.0000
  C   C480      1.0  0.82542  0.96520  0.78233  1.0000
  H   H265      1.0  0.32590  0.49180  0.29750  1.0000
  H   H266      1.0  0.67410  0.49180  0.20250  1.0000
  H   H267      1.0  0.82590  0.99180  0.29750  1.0000
  H   H268      1.0  0.17410  0.99180  0.20250  1.0000
  H   H269      1.0  0.67410  0.50820  0.70250  1.0000
  H   H270      1.0  0.32590  0.50820  0.79750  1.0000
  H   H271      1.0  0.17410  0.00820  0.70250  1.0000
  H   H272      1.0  0.82590  0.00820  0.79750  1.0000
  C   C481      1.0  0.35053  0.55150  0.28059  1.0000
  C   C482      1.0  0.64947  0.55150  0.21941  1.0000
  C   C483      1.0  0.85053  0.05150  0.28059  1.0000
  C   C484      1.0  0.14947  0.05150  0.21941  1.0000
  C   C485      1.0  0.64947  0.44850  0.71941  1.0000
  C   C486      1.0  0.35053  0.44850  0.78059  1.0000
  C   C487      1.0  0.14947  0.94850  0.71941  1.0000
  C   C488      1.0  0.85053  0.94850  0.78059  1.0000
  C   C489      1.0  0.34883  0.60930  0.25669  1.0000
  C   C490      1.0  0.65117  0.60930  0.24331  1.0000
  C   C491      1.0  0.84883  0.10930  0.25669  1.0000
  C   C492      1.0  0.15117  0.10930  0.24331  1.0000
  C   C493      1.0  0.65117  0.39070  0.74331  1.0000
  C   C494      1.0  0.34883  0.39070  0.75669  1.0000
  C   C495      1.0  0.15117  0.89070  0.74331  1.0000
  C   C496      1.0  0.84883  0.89070  0.75669  1.0000
  H   H273      1.0  0.36460  0.61580  0.25360  1.0000
  H   H274      1.0  0.63540  0.61580  0.24640  1.0000
  H   H275      1.0  0.86460  0.11580  0.25360  1.0000
  H   H276      1.0  0.13540  0.11580  0.24640  1.0000
  H   H277      1.0  0.63540  0.38420  0.74640  1.0000
  H   H278      1.0  0.36460  0.38420  0.75360  1.0000
  H   H279      1.0  0.13540  0.88420  0.74640  1.0000
  H   H280      1.0  0.86460  0.88420  0.75360  1.0000
  C   C497      1.0  0.32435  0.65910  0.23674  1.0000
  C   C498      1.0  0.67565  0.65910  0.26326  1.0000
  C   C499      1.0  0.82435  0.15910  0.23674  1.0000
  C   C500      1.0  0.17565  0.15910  0.26326  1.0000
  C   C501      1.0  0.67565  0.34090  0.76326  1.0000
  C   C502      1.0  0.32435  0.34090  0.73674  1.0000
  C   C503      1.0  0.17565  0.84090  0.76326  1.0000
  C   C504      1.0  0.82435  0.84090  0.73674  1.0000
  H   H281      1.0  0.32460  0.70130  0.22170  1.0000
  H   H282      1.0  0.67540  0.70130  0.27830  1.0000
  H   H283      1.0  0.82460  0.20130  0.22170  1.0000
  H   H284      1.0  0.17540  0.20130  0.27830  1.0000
  H   H285      1.0  0.67540  0.29870  0.77830  1.0000
  H   H286      1.0  0.32460  0.29870  0.72170  1.0000
  H   H287      1.0  0.17540  0.79870  0.77830  1.0000
  H   H288      1.0  0.82460  0.79870  0.72170  1.0000
  C   C505      1.0  0.37703  0.50160  0.30238  1.0000
  C   C506      1.0  0.62297  0.50160  0.19762  1.0000
  C   C507      1.0  0.87703  0.00160  0.30238  1.0000
  C   C508      1.0  0.12297  0.00160  0.19762  1.0000
  C   C509      1.0  0.62297  0.49840  0.69762  1.0000
  C   C510      1.0  0.37703  0.49840  0.80238  1.0000
  C   C511      1.0  0.12297  0.99840  0.69762  1.0000
  C   C512      1.0  0.87703  0.99840  0.80238  1.0000
  C   C513      1.0  0.38252  0.47830  0.33309  1.0000
  C   C514      1.0  0.61748  0.47830  0.16691  1.0000
  C   C515      1.0  0.88252  0.97830  0.33309  1.0000
  C   C516      1.0  0.11748  0.97830  0.16691  1.0000
  C   C517      1.0  0.61748  0.52170  0.66691  1.0000
  C   C518      1.0  0.38252  0.52170  0.83309  1.0000
  C   C519      1.0  0.11748  0.02170  0.66691  1.0000
  C   C520      1.0  0.88252  0.02170  0.83309  1.0000
  H   H289      1.0  0.36920  0.49230  0.33990  1.0000
  H   H290      1.0  0.63080  0.49230  0.16010  1.0000
  H   H291      1.0  0.86920  0.99230  0.33990  1.0000
  H   H292      1.0  0.13080  0.99230  0.16010  1.0000
  H   H293      1.0  0.63080  0.50770  0.66010  1.0000
  H   H294      1.0  0.36920  0.50770  0.83990  1.0000
  H   H295      1.0  0.13080  0.00770  0.66010  1.0000
  H   H296      1.0  0.86920  0.00770  0.83990  1.0000
  C   C521      1.0  0.40840  0.43310  0.35438  1.0000
  C   C522      1.0  0.59160  0.43310  0.14562  1.0000
  C   C523      1.0  0.90840  0.93310  0.35438  1.0000
  C   C524      1.0  0.09160  0.93310  0.14562  1.0000
  C   C525      1.0  0.59160  0.56690  0.64562  1.0000
  C   C526      1.0  0.40840  0.56690  0.85438  1.0000
  C   C527      1.0  0.09160  0.06690  0.64562  1.0000
  C   C528      1.0  0.90840  0.06690  0.85438  1.0000
  H   H297      1.0  0.41150  0.41520  0.37470  1.0000
  H   H298      1.0  0.58850  0.41520  0.12530  1.0000
  H   H299      1.0  0.91150  0.91520  0.37470  1.0000
  H   H300      1.0  0.08850  0.91520  0.12530  1.0000
  H   H301      1.0  0.58850  0.58480  0.62530  1.0000
  H   H302      1.0  0.41150  0.58480  0.87470  1.0000
  H   H303      1.0  0.08850  0.08480  0.62530  1.0000
  H   H304      1.0  0.91150  0.08480  0.87470  1.0000
  C   C529      1.0  0.42861  0.41560  0.34582  1.0000
  C   C530      1.0  0.57139  0.41560  0.15418  1.0000
  C   C531      1.0  0.92861  0.91560  0.34582  1.0000
  C   C532      1.0  0.07139  0.91560  0.15418  1.0000
  C   C533      1.0  0.57139  0.58440  0.65418  1.0000
  C   C534      1.0  0.42861  0.58440  0.84582  1.0000
  C   C535      1.0  0.07139  0.08440  0.65418  1.0000
  C   C536      1.0  0.92861  0.08440  0.84582  1.0000
  C   C537      1.0  0.42310  0.43570  0.31488  1.0000
  C   C538      1.0  0.57690  0.43570  0.18512  1.0000
  C   C539      1.0  0.92310  0.93570  0.31488  1.0000
  C   C540      1.0  0.07690  0.93570  0.18512  1.0000
  C   C541      1.0  0.57690  0.56430  0.68512  1.0000
  C   C542      1.0  0.42310  0.56430  0.81488  1.0000
  C   C543      1.0  0.07690  0.06430  0.68512  1.0000
  C   C544      1.0  0.92310  0.06430  0.81488  1.0000
  H   H305      1.0  0.43640  0.42050  0.30820  1.0000
  H   H306      1.0  0.56360  0.42050  0.19180  1.0000
  H   H307      1.0  0.93640  0.92050  0.30820  1.0000
  H   H308      1.0  0.06360  0.92050  0.19180  1.0000
  H   H309      1.0  0.56360  0.57950  0.69180  1.0000
  H   H310      1.0  0.43640  0.57950  0.80820  1.0000
  H   H311      1.0  0.06360  0.07950  0.69180  1.0000
  H   H312      1.0  0.93640  0.07950  0.80820  1.0000
  C   C545      1.0  0.39768  0.47860  0.29368  1.0000
  C   C546      1.0  0.60232  0.47860  0.20632  1.0000
  C   C547      1.0  0.89768  0.97860  0.29368  1.0000
  C   C548      1.0  0.10232  0.97860  0.20632  1.0000
  C   C549      1.0  0.60232  0.52140  0.70632  1.0000
  C   C550      1.0  0.39768  0.52140  0.79368  1.0000
  C   C551      1.0  0.10232  0.02140  0.70632  1.0000
  C   C552      1.0  0.89768  0.02140  0.79368  1.0000
  H   H313      1.0  0.39440  0.49250  0.27300  1.0000
  H   H314      1.0  0.60560  0.49250  0.22700  1.0000
  H   H315      1.0  0.89440  0.99250  0.27300  1.0000
  H   H316      1.0  0.10560  0.99250  0.22700  1.0000
  H   H317      1.0  0.60560  0.50750  0.72700  1.0000
  H   H318      1.0  0.39440  0.50750  0.77300  1.0000
  H   H319      1.0  0.10560  0.00750  0.72700  1.0000
  H   H320      1.0  0.89440  0.00750  0.77300  1.0000
  C   C553      1.0  0.45631  0.37240  0.37022  1.0000
  C   C554      1.0  0.54369  0.37240  0.12978  1.0000
  C   C555      1.0  0.95631  0.87240  0.37022  1.0000
  C   C556      1.0  0.04369  0.87240  0.12978  1.0000
  C   C557      1.0  0.54369  0.62760  0.62978  1.0000
  C   C558      1.0  0.45631  0.62760  0.87022  1.0000
  C   C559      1.0  0.04369  0.12760  0.62978  1.0000
  C   C560      1.0  0.95631  0.12760  0.87022  1.0000
  C   C561      1.0  0.20837  0.66700  0.12245  1.0000
  C   C562      1.0  0.79163  0.66700  0.37755  1.0000
  C   C563      1.0  0.70837  0.16700  0.12245  1.0000
  C   C564      1.0  0.29163  0.16700  0.37755  1.0000
  C   C565      1.0  0.79163  0.33300  0.87755  1.0000
  C   C566      1.0  0.20837  0.33300  0.62245  1.0000
  C   C567      1.0  0.29163  0.83300  0.87755  1.0000
  C   C568      1.0  0.70837  0.83300  0.62245  1.0000
  C   C569      1.0  0.19061  0.60160  0.09456  1.0000
  C   C570      1.0  0.80939  0.60160  0.40544  1.0000
  C   C571      1.0  0.69061  0.10160  0.09456  1.0000
  C   C572      1.0  0.30939  0.10160  0.40544  1.0000
  C   C573      1.0  0.80939  0.39840  0.90544  1.0000
  C   C574      1.0  0.19061  0.39840  0.59456  1.0000
  C   C575      1.0  0.30939  0.89840  0.90544  1.0000
  C   C576      1.0  0.69061  0.89840  0.59456  1.0000
  C   C577      1.0  0.19645  0.59360  0.06986  1.0000
  C   C578      1.0  0.80355  0.59360  0.43014  1.0000
  C   C579      1.0  0.69645  0.09360  0.06986  1.0000
  C   C580      1.0  0.30355  0.09360  0.43014  1.0000
  C   C581      1.0  0.80355  0.40640  0.93014  1.0000
  C   C582      1.0  0.19645  0.40640  0.56986  1.0000
  C   C583      1.0  0.30355  0.90640  0.93014  1.0000
  C   C584      1.0  0.69645  0.90640  0.56986  1.0000
  H   H321      1.0  0.21160  0.62720  0.07030  1.0000
  H   H322      1.0  0.78840  0.62720  0.42970  1.0000
  H   H323      1.0  0.71160  0.12720  0.07030  1.0000
  H   H324      1.0  0.28840  0.12720  0.42970  1.0000
  H   H325      1.0  0.78840  0.37280  0.92970  1.0000
  H   H326      1.0  0.21160  0.37280  0.57030  1.0000
  H   H327      1.0  0.28840  0.87280  0.92970  1.0000
  H   H328      1.0  0.71160  0.87280  0.57030  1.0000
  C   C585      1.0  0.18003  0.53580  0.04389  1.0000
  C   C586      1.0  0.81997  0.53580  0.45611  1.0000
  C   C587      1.0  0.68003  0.03580  0.04389  1.0000
  C   C588      1.0  0.31997  0.03580  0.45611  1.0000
  C   C589      1.0  0.81997  0.46420  0.95611  1.0000
  C   C590      1.0  0.18003  0.46420  0.54389  1.0000
  C   C591      1.0  0.31997  0.96420  0.95611  1.0000
  C   C592      1.0  0.68003  0.96420  0.54389  1.0000
  H   H329      1.0  0.18470  0.53030  0.02740  1.0000
  H   H330      1.0  0.81530  0.53030  0.47260  1.0000
  H   H331      1.0  0.68470  0.03030  0.02740  1.0000
  H   H332      1.0  0.31530  0.03030  0.47260  1.0000
  H   H333      1.0  0.81530  0.46970  0.97260  1.0000
  H   H334      1.0  0.18470  0.46970  0.52740  1.0000
  H   H335      1.0  0.31530  0.96970  0.97260  1.0000
  H   H336      1.0  0.68470  0.96970  0.52740  1.0000
  C   C593      1.0  0.15667  0.48530  0.04166  1.0000
  C   C594      1.0  0.84333  0.48530  0.45834  1.0000
  C   C595      1.0  0.65667  0.98530  0.04166  1.0000
  C   C596      1.0  0.34333  0.98530  0.45834  1.0000
  C   C597      1.0  0.84333  0.51470  0.95834  1.0000
  C   C598      1.0  0.15667  0.51470  0.54166  1.0000
  C   C599      1.0  0.34333  0.01470  0.95834  1.0000
  C   C600      1.0  0.65667  0.01470  0.54166  1.0000
  C   C601      1.0  0.15107  0.49480  0.06727  1.0000
  C   C602      1.0  0.84893  0.49480  0.43273  1.0000
  C   C603      1.0  0.65107  0.99480  0.06727  1.0000
  C   C604      1.0  0.34893  0.99480  0.43273  1.0000
  C   C605      1.0  0.84893  0.50520  0.93273  1.0000
  C   C606      1.0  0.15107  0.50520  0.56727  1.0000
  C   C607      1.0  0.34893  0.00520  0.93273  1.0000
  C   C608      1.0  0.65107  0.00520  0.56727  1.0000
  H   H337      1.0  0.13570  0.46260  0.06670  1.0000
  H   H338      1.0  0.86430  0.46260  0.43330  1.0000
  H   H339      1.0  0.63570  0.96260  0.06670  1.0000
  H   H340      1.0  0.36430  0.96260  0.43330  1.0000
  H   H341      1.0  0.86430  0.53740  0.93330  1.0000
  H   H342      1.0  0.13570  0.53740  0.56670  1.0000
  H   H343      1.0  0.36430  0.03740  0.93330  1.0000
  H   H344      1.0  0.63570  0.03740  0.56670  1.0000
  C   C609      1.0  0.16770  0.55060  0.09345  1.0000
  C   C610      1.0  0.83230  0.55060  0.40655  1.0000
  C   C611      1.0  0.66770  0.05060  0.09345  1.0000
  C   C612      1.0  0.33230  0.05060  0.40655  1.0000
  C   C613      1.0  0.83230  0.44940  0.90655  1.0000
  C   C614      1.0  0.16770  0.44940  0.59345  1.0000
  C   C615      1.0  0.33230  0.94940  0.90655  1.0000
  C   C616      1.0  0.66770  0.94940  0.59345  1.0000
  H   H345      1.0  0.16370  0.55450  0.11050  1.0000
  H   H346      1.0  0.83630  0.55450  0.38950  1.0000
  H   H347      1.0  0.66370  0.05450  0.11050  1.0000
  H   H348      1.0  0.33630  0.05450  0.38950  1.0000
  H   H349      1.0  0.83630  0.44550  0.88950  1.0000
  H   H350      1.0  0.16370  0.44550  0.61050  1.0000
  H   H351      1.0  0.33630  0.94550  0.88950  1.0000
  H   H352      1.0  0.66370  0.94550  0.61050  1.0000
  C   C617      1.0  0.13783  0.43240  0.01218  1.0000
  C   C618      1.0  0.86217  0.43240  0.48782  1.0000
  C   C619      1.0  0.63783  0.93240  0.01218  1.0000
  C   C620      1.0  0.36217  0.93240  0.48782  1.0000
  C   C621      1.0  0.86217  0.56760  0.98782  1.0000
  C   C622      1.0  0.13783  0.56760  0.51218  1.0000
  C   C623      1.0  0.36217  0.06760  0.98782  1.0000
  C   C624      1.0  0.63783  0.06760  0.51218  1.0000
  C   C625      1.0  0.14732  0.39680  0.99151  1.0000
  C   C626      1.0  0.85268  0.39680  0.50849  1.0000
  C   C627      1.0  0.64732  0.89680  0.99151  1.0000
  C   C628      1.0  0.35268  0.89680  0.50849  1.0000
  C   C629      1.0  0.85268  0.60320  0.00849  1.0000
  C   C630      1.0  0.14732  0.60320  0.49151  1.0000
  C   C631      1.0  0.35268  0.10320  0.00849  1.0000
  C   C632      1.0  0.64732  0.10320  0.49151  1.0000
  H   H353      1.0  0.16650  0.40190  0.99730  1.0000
  H   H354      1.0  0.83350  0.40190  0.50270  1.0000
  H   H355      1.0  0.66650  0.90190  0.99730  1.0000
  H   H356      1.0  0.33350  0.90190  0.50270  1.0000
  H   H357      1.0  0.83350  0.59810  0.00270  1.0000
  H   H358      1.0  0.16650  0.59810  0.49730  1.0000
  H   H359      1.0  0.33350  0.09810  0.00270  1.0000
  H   H360      1.0  0.66650  0.09810  0.49730  1.0000
  C   C633      1.0  0.12888  0.35340  0.96206  1.0000
  C   C634      1.0  0.87112  0.35340  0.53794  1.0000
  C   C635      1.0  0.62888  0.85340  0.96206  1.0000
  C   C636      1.0  0.37112  0.85340  0.53794  1.0000
  C   C637      1.0  0.87112  0.64660  0.03794  1.0000
  C   C638      1.0  0.12888  0.64660  0.46206  1.0000
  C   C639      1.0  0.37112  0.14660  0.03794  1.0000
  C   C640      1.0  0.62888  0.14660  0.46206  1.0000
  H   H361      1.0  0.13560  0.33350  0.94820  1.0000
  H   H362      1.0  0.86440  0.33350  0.55180  1.0000
  H   H363      1.0  0.63560  0.83350  0.94820  1.0000
  H   H364      1.0  0.36440  0.83350  0.55180  1.0000
  H   H365      1.0  0.86440  0.66650  0.05180  1.0000
  H   H366      1.0  0.13560  0.66650  0.44820  1.0000
  H   H367      1.0  0.36440  0.16650  0.05180  1.0000
  H   H368      1.0  0.63560  0.16650  0.44820  1.0000
  C   C641      1.0  0.10025  0.34050  0.95381  1.0000
  C   C642      1.0  0.89975  0.34050  0.54619  1.0000
  C   C643      1.0  0.60025  0.84050  0.95381  1.0000
  C   C644      1.0  0.39975  0.84050  0.54619  1.0000
  C   C645      1.0  0.89975  0.65950  0.04619  1.0000
  C   C646      1.0  0.10025  0.65950  0.45381  1.0000
  C   C647      1.0  0.39975  0.15950  0.04619  1.0000
  C   C648      1.0  0.60025  0.15950  0.45381  1.0000
  C   C649      1.0  0.09151  0.37270  0.97469  1.0000
  C   C650      1.0  0.90849  0.37270  0.52531  1.0000
  C   C651      1.0  0.59151  0.87270  0.97469  1.0000
  C   C652      1.0  0.40849  0.87270  0.52531  1.0000
  C   C653      1.0  0.90849  0.62730  0.02531  1.0000
  C   C654      1.0  0.09151  0.62730  0.47469  1.0000
  C   C655      1.0  0.40849  0.12730  0.02531  1.0000
  C   C656      1.0  0.59151  0.12730  0.47469  1.0000
  H   H369      1.0  0.07260  0.36420  0.96960  1.0000
  H   H370      1.0  0.92740  0.36420  0.53040  1.0000
  H   H371      1.0  0.57260  0.86420  0.96960  1.0000
  H   H372      1.0  0.42740  0.86420  0.53040  1.0000
  H   H373      1.0  0.92740  0.63580  0.03040  1.0000
  H   H374      1.0  0.07260  0.63580  0.46960  1.0000
  H   H375      1.0  0.42740  0.13580  0.03040  1.0000
  H   H376      1.0  0.57260  0.13580  0.46960  1.0000
  C   C657      1.0  0.10916  0.41690  0.00284  1.0000
  C   C658      1.0  0.89084  0.41690  0.49716  1.0000
  C   C659      1.0  0.60916  0.91690  0.00284  1.0000
  C   C660      1.0  0.39084  0.91690  0.49716  1.0000
  C   C661      1.0  0.89084  0.58310  0.99716  1.0000
  C   C662      1.0  0.10916  0.58310  0.50284  1.0000
  C   C663      1.0  0.39084  0.08310  0.99716  1.0000
  C   C664      1.0  0.60916  0.08310  0.50284  1.0000
  H   H377      1.0  0.10190  0.43730  0.01620  1.0000
  H   H378      1.0  0.89810  0.43730  0.48380  1.0000
  H   H379      1.0  0.60190  0.93730  0.01620  1.0000
  H   H380      1.0  0.39810  0.93730  0.48380  1.0000
  H   H381      1.0  0.89810  0.56270  0.98380  1.0000
  H   H382      1.0  0.10190  0.56270  0.51620  1.0000
  H   H383      1.0  0.39810  0.06270  0.98380  1.0000
  H   H384      1.0  0.60190  0.06270  0.51620  1.0000
  C   C665      1.0  0.08064  0.29650  0.92244  1.0000
  C   C666      1.0  0.91936  0.29650  0.57756  1.0000
  C   C667      1.0  0.58064  0.79650  0.92244  1.0000
  C   C668      1.0  0.41936  0.79650  0.57756  1.0000
  C   C669      1.0  0.91936  0.70350  0.07756  1.0000
  C   C670      1.0  0.08064  0.70350  0.42244  1.0000
  C   C671      1.0  0.41936  0.20350  0.07756  1.0000
  C   C672      1.0  0.58064  0.20350  0.42244  1.0000
  C   C673      1.0  0.20760  0.73550  0.24210  1.0000
  C   C674      1.0  0.79240  0.73550  0.25790  1.0000
  C   C675      1.0  0.70760  0.23550  0.24210  1.0000
  C   C676      1.0  0.29240  0.23550  0.25790  1.0000
  C   C677      1.0  0.79240  0.26450  0.75790  1.0000
  C   C678      1.0  0.20760  0.26450  0.74210  1.0000
  C   C679      1.0  0.29240  0.76450  0.75790  1.0000
  C   C680      1.0  0.70760  0.76450  0.74210  1.0000
  H   H385      1.0  0.22640  0.71680  0.24980  1.0000
  H   H386      1.0  0.77360  0.71680  0.25020  1.0000
  H   H387      1.0  0.72640  0.21680  0.24980  1.0000
  H   H388      1.0  0.27360  0.21680  0.25020  1.0000
  H   H389      1.0  0.77360  0.28320  0.75020  1.0000
  H   H390      1.0  0.22640  0.28320  0.74980  1.0000
  H   H391      1.0  0.27360  0.78320  0.75020  1.0000
  H   H392      1.0  0.72640  0.78320  0.74980  1.0000
  C   C681      1.0  0.19680  0.73460  0.26350  1.0000
  C   C682      1.0  0.80320  0.73460  0.23650  1.0000
  C   C683      1.0  0.69680  0.23460  0.26350  1.0000
  C   C684      1.0  0.30320  0.23460  0.23650  1.0000
  C   C685      1.0  0.80320  0.26540  0.73650  1.0000
  C   C686      1.0  0.19680  0.26540  0.76350  1.0000
  C   C687      1.0  0.30320  0.76540  0.73650  1.0000
  C   C688      1.0  0.69680  0.76540  0.76350  1.0000
  H   H393      1.0  0.20810  0.71880  0.28500  1.0000
  H   H394      1.0  0.79190  0.71880  0.21500  1.0000
  H   H395      1.0  0.70810  0.21880  0.28500  1.0000
  H   H396      1.0  0.29190  0.21880  0.21500  1.0000
  H   H397      1.0  0.79190  0.28120  0.71500  1.0000
  H   H398      1.0  0.20810  0.28120  0.78500  1.0000
  H   H399      1.0  0.29190  0.78120  0.71500  1.0000
  H   H400      1.0  0.70810  0.78120  0.78500  1.0000
  C   C689      1.0  0.16890  0.75780  0.25210  1.0000
  C   C690      1.0  0.83110  0.75780  0.24790  1.0000
  C   C691      1.0  0.66890  0.25780  0.25210  1.0000
  C   C692      1.0  0.33110  0.25780  0.24790  1.0000
  C   C693      1.0  0.83110  0.24220  0.74790  1.0000
  C   C694      1.0  0.16890  0.24220  0.75210  1.0000
  C   C695      1.0  0.33110  0.74220  0.74790  1.0000
  C   C696      1.0  0.66890  0.74220  0.75210  1.0000
  C   C697      1.0  0.15280  0.77510  0.22010  1.0000
  C   C698      1.0  0.84720  0.77510  0.27990  1.0000
  C   C699      1.0  0.65280  0.27510  0.22010  1.0000
  C   C700      1.0  0.34720  0.27510  0.27990  1.0000
  C   C701      1.0  0.84720  0.22490  0.77990  1.0000
  C   C702      1.0  0.15280  0.22490  0.72010  1.0000
  C   C703      1.0  0.34720  0.72490  0.77990  1.0000
  C   C704      1.0  0.65280  0.72490  0.72010  1.0000
  H   H401      1.0  0.13340  0.78550  0.21130  1.0000
  H   H402      1.0  0.86660  0.78550  0.28870  1.0000
  H   H403      1.0  0.63340  0.28550  0.21130  1.0000
  H   H404      1.0  0.36660  0.28550  0.28870  1.0000
  H   H405      1.0  0.86660  0.21450  0.78870  1.0000
  H   H406      1.0  0.13340  0.21450  0.71130  1.0000
  H   H407      1.0  0.36660  0.71450  0.78870  1.0000
  H   H408      1.0  0.63340  0.71450  0.71130  1.0000
  C   C705      1.0  0.16610  0.77710  0.20060  1.0000
  C   C706      1.0  0.83390  0.77710  0.29940  1.0000
  C   C707      1.0  0.66610  0.27710  0.20060  1.0000
  C   C708      1.0  0.33390  0.27710  0.29940  1.0000
  C   C709      1.0  0.83390  0.22290  0.79940  1.0000
  C   C710      1.0  0.16610  0.22290  0.70060  1.0000
  C   C711      1.0  0.33390  0.72290  0.79940  1.0000
  C   C712      1.0  0.66610  0.72290  0.70060  1.0000
  H   H409      1.0  0.15510  0.79030  0.17900  1.0000
  H   H410      1.0  0.84490  0.79030  0.32100  1.0000
  H   H411      1.0  0.65510  0.29030  0.17900  1.0000
  H   H412      1.0  0.34490  0.29030  0.32100  1.0000
  H   H413      1.0  0.84490  0.20970  0.82100  1.0000
  H   H414      1.0  0.15510  0.20970  0.67900  1.0000
  H   H415      1.0  0.34490  0.70970  0.82100  1.0000
  H   H416      1.0  0.65510  0.70970  0.67900  1.0000
  C   C713      1.0  0.15660  0.76770  0.27630  1.0000
  C   C714      1.0  0.84340  0.76770  0.22370  1.0000
  C   C715      1.0  0.65660  0.26770  0.27630  1.0000
  C   C716      1.0  0.34340  0.26770  0.22370  1.0000
  C   C717      1.0  0.84340  0.23230  0.72370  1.0000
  C   C718      1.0  0.15660  0.23230  0.77630  1.0000
  C   C719      1.0  0.34340  0.73230  0.72370  1.0000
  C   C720      1.0  0.65660  0.73230  0.77630  1.0000
  H   H417      1.0  0.13620  0.75990  0.26490  1.0000
  H   H418      1.0  0.86380  0.75990  0.23510  1.0000
  H   H419      1.0  0.63620  0.25990  0.26490  1.0000
  H   H420      1.0  0.36380  0.25990  0.23510  1.0000
  H   H421      1.0  0.86380  0.24010  0.73510  1.0000
  H   H422      1.0  0.13620  0.24010  0.76490  1.0000
  H   H423      1.0  0.36380  0.74010  0.73510  1.0000
  H   H424      1.0  0.63620  0.74010  0.76490  1.0000
  H   H425      1.0  0.16440  0.71800  0.29240  1.0000
  H   H426      1.0  0.83560  0.71800  0.20760  1.0000
  H   H427      1.0  0.66440  0.21800  0.29240  1.0000
  H   H428      1.0  0.33560  0.21800  0.20760  1.0000
  H   H429      1.0  0.83560  0.28200  0.70760  1.0000
  H   H430      1.0  0.16440  0.28200  0.79240  1.0000
  H   H431      1.0  0.33560  0.78200  0.70760  1.0000
  H   H432      1.0  0.66440  0.78200  0.79240  1.0000
  C   C721      1.0  0.16350  0.85980  0.29140  1.0000
  C   C722      1.0  0.83650  0.85980  0.20860  1.0000
  C   C723      1.0  0.66350  0.35980  0.29140  1.0000
  C   C724      1.0  0.33650  0.35980  0.20860  1.0000
  C   C725      1.0  0.83650  0.14020  0.70860  1.0000
  C   C726      1.0  0.16350  0.14020  0.79140  1.0000
  C   C727      1.0  0.33650  0.64020  0.70860  1.0000
  C   C728      1.0  0.66350  0.64020  0.79140  1.0000
  H   H433      1.0  0.14870  0.90450  0.27820  1.0000
  H   H434      1.0  0.85130  0.90450  0.22180  1.0000
  H   H435      1.0  0.64870  0.40450  0.27820  1.0000
  H   H436      1.0  0.35130  0.40450  0.22180  1.0000
  H   H437      1.0  0.85130  0.09550  0.72180  1.0000
  H   H438      1.0  0.14870  0.09550  0.77820  1.0000
  H   H439      1.0  0.35130  0.59550  0.72180  1.0000
  H   H440      1.0  0.64870  0.59550  0.77820  1.0000
  H   H441      1.0  0.18090  0.88170  0.29210  1.0000
  H   H442      1.0  0.81910  0.88170  0.20790  1.0000
  H   H443      1.0  0.68090  0.38170  0.29210  1.0000
  H   H444      1.0  0.31910  0.38170  0.20790  1.0000
  H   H445      1.0  0.81910  0.11830  0.70790  1.0000
  H   H446      1.0  0.18090  0.11830  0.79210  1.0000
  H   H447      1.0  0.31910  0.61830  0.70790  1.0000
  H   H448      1.0  0.68090  0.61830  0.79210  1.0000
  C   C729      1.0  0.16700  0.86330  0.32410  1.0000
  C   C730      1.0  0.83300  0.86330  0.17590  1.0000
  C   C731      1.0  0.66700  0.36330  0.32410  1.0000
  C   C732      1.0  0.33300  0.36330  0.17590  1.0000
  C   C733      1.0  0.83300  0.13670  0.67590  1.0000
  C   C734      1.0  0.16700  0.13670  0.82410  1.0000
  C   C735      1.0  0.33300  0.63670  0.67590  1.0000
  C   C736      1.0  0.66700  0.63670  0.82410  1.0000
  H   H449      1.0  0.17210  0.92810  0.33200  1.0000
  H   H450      1.0  0.82790  0.92810  0.16800  1.0000
  H   H451      1.0  0.67210  0.42810  0.33200  1.0000
  H   H452      1.0  0.32790  0.42810  0.16800  1.0000
  H   H453      1.0  0.82790  0.07190  0.66800  1.0000
  H   H454      1.0  0.17210  0.07190  0.83200  1.0000
  H   H455      1.0  0.32790  0.57190  0.66800  1.0000
  H   H456      1.0  0.67210  0.57190  0.83200  1.0000
  H   H457      1.0  0.18280  0.82230  0.33750  1.0000
  H   H458      1.0  0.81720  0.82230  0.16250  1.0000
  H   H459      1.0  0.68280  0.32230  0.33750  1.0000
  H   H460      1.0  0.31720  0.32230  0.16250  1.0000
  H   H461      1.0  0.81720  0.17770  0.66250  1.0000
  H   H462      1.0  0.18280  0.17770  0.83750  1.0000
  H   H463      1.0  0.31720  0.67770  0.66250  1.0000
  H   H464      1.0  0.68280  0.67770  0.83750  1.0000
  C   C737      1.0  0.14160  0.83390  0.32800  1.0000
  C   C738      1.0  0.85840  0.83390  0.17200  1.0000
  C   C739      1.0  0.64160  0.33390  0.32800  1.0000
  C   C740      1.0  0.35840  0.33390  0.17200  1.0000
  C   C741      1.0  0.85840  0.16610  0.67200  1.0000
  C   C742      1.0  0.14160  0.16610  0.82800  1.0000
  C   C743      1.0  0.35840  0.66610  0.67200  1.0000
  C   C744      1.0  0.64160  0.66610  0.82800  1.0000
  C   C745      1.0  0.14350  0.77580  0.34980  1.0000
  C   C746      1.0  0.85650  0.77580  0.15020  1.0000
  C   C747      1.0  0.64350  0.27580  0.34980  1.0000
  C   C748      1.0  0.35650  0.27580  0.15020  1.0000
  C   C749      1.0  0.85650  0.22420  0.65020  1.0000
  C   C750      1.0  0.14350  0.22420  0.84980  1.0000
  C   C751      1.0  0.35650  0.72420  0.65020  1.0000
  C   C752      1.0  0.64350  0.72420  0.84980  1.0000
  H   H465      1.0  0.16090  0.74710  0.36250  1.0000
  H   H466      1.0  0.83910  0.74710  0.13750  1.0000
  H   H467      1.0  0.66090  0.24710  0.36250  1.0000
  H   H468      1.0  0.33910  0.24710  0.13750  1.0000
  H   H469      1.0  0.83910  0.25290  0.63750  1.0000
  H   H470      1.0  0.16090  0.25290  0.86250  1.0000
  H   H471      1.0  0.33910  0.75290  0.63750  1.0000
  H   H472      1.0  0.66090  0.75290  0.86250  1.0000
  C   C753      1.0  0.12170  0.75320  0.35550  1.0000
  C   C754      1.0  0.87830  0.75320  0.14450  1.0000
  C   C755      1.0  0.62170  0.25320  0.35550  1.0000
  C   C756      1.0  0.37830  0.25320  0.14450  1.0000
  C   C757      1.0  0.87830  0.24680  0.64450  1.0000
  C   C758      1.0  0.12170  0.24680  0.85550  1.0000
  C   C759      1.0  0.37830  0.74680  0.64450  1.0000
  C   C760      1.0  0.62170  0.74680  0.85550  1.0000
  H   H473      1.0  0.12460  0.70960  0.37160  1.0000
  H   H474      1.0  0.87540  0.70960  0.12840  1.0000
  H   H475      1.0  0.62460  0.20960  0.37160  1.0000
  H   H476      1.0  0.37540  0.20960  0.12840  1.0000
  H   H477      1.0  0.87540  0.29040  0.62840  1.0000
  H   H478      1.0  0.12460  0.29040  0.87160  1.0000
  H   H479      1.0  0.37540  0.79040  0.62840  1.0000
  H   H480      1.0  0.62460  0.79040  0.87160  1.0000
  C   C761      1.0  0.09320  0.84440  0.31550  1.0000
  C   C762      1.0  0.90680  0.84440  0.18450  1.0000
  C   C763      1.0  0.59320  0.34440  0.31550  1.0000
  C   C764      1.0  0.40680  0.34440  0.18450  1.0000
  C   C765      1.0  0.90680  0.15560  0.68450  1.0000
  C   C766      1.0  0.09320  0.15560  0.81550  1.0000
  C   C767      1.0  0.40680  0.65560  0.68450  1.0000
  C   C768      1.0  0.59320  0.65560  0.81550  1.0000
  H   H481      1.0  0.07550  0.87040  0.30180  1.0000
  H   H482      1.0  0.92450  0.87040  0.19820  1.0000
  H   H483      1.0  0.57550  0.37040  0.30180  1.0000
  H   H484      1.0  0.42450  0.37040  0.19820  1.0000
  H   H485      1.0  0.92450  0.12960  0.69820  1.0000
  H   H486      1.0  0.07550  0.12960  0.80180  1.0000
  H   H487      1.0  0.42450  0.62960  0.69820  1.0000
  H   H488      1.0  0.57550  0.62960  0.80180  1.0000
  C   C769      1.0  0.11560  0.86360  0.31000  1.0000
  C   C770      1.0  0.88440  0.86360  0.19000  1.0000
  C   C771      1.0  0.61560  0.36360  0.31000  1.0000
  C   C772      1.0  0.38440  0.36360  0.19000  1.0000
  C   C773      1.0  0.88440  0.13640  0.69000  1.0000
  C   C774      1.0  0.11560  0.13640  0.81000  1.0000
  C   C775      1.0  0.38440  0.63640  0.69000  1.0000
  C   C776      1.0  0.61560  0.63640  0.81000  1.0000
  H   H489      1.0  0.11200  0.90050  0.29220  1.0000
  H   H490      1.0  0.88800  0.90050  0.20780  1.0000
  H   H491      1.0  0.61200  0.40050  0.29220  1.0000
  H   H492      1.0  0.38800  0.40050  0.20780  1.0000
  H   H493      1.0  0.88800  0.09950  0.70780  1.0000
  H   H494      1.0  0.11200  0.09950  0.79220  1.0000
  H   H495      1.0  0.38800  0.59950  0.70780  1.0000
  H   H496      1.0  0.61200  0.59950  0.79220  1.0000
  C   C777      1.0  0.04442  0.04360  0.85769  1.0000
  C   C778      1.0  0.95558  0.04360  0.64231  1.0000
  C   C779      1.0  0.54442  0.54360  0.85769  1.0000
  C   C780      1.0  0.45558  0.54360  0.64231  1.0000
  C   C781      1.0  0.95558  0.95640  0.14231  1.0000
  C   C782      1.0  0.04442  0.95640  0.35769  1.0000
  C   C783      1.0  0.45558  0.45640  0.14231  1.0000
  C   C784      1.0  0.54442  0.45640  0.35769  1.0000
  C   C785      1.0  0.03683  0.94810  0.86616  1.0000
  C   C786      1.0  0.96317  0.94810  0.63384  1.0000
  C   C787      1.0  0.53683  0.44810  0.86616  1.0000
  C   C788      1.0  0.46317  0.44810  0.63384  1.0000
  C   C789      1.0  0.96317  0.05190  0.13384  1.0000
  C   C790      1.0  0.03683  0.05190  0.36616  1.0000
  C   C791      1.0  0.46317  0.55190  0.13384  1.0000
  C   C792      1.0  0.53683  0.55190  0.36616  1.0000
  C   C793      1.0  0.03906  0.86520  0.85089  1.0000
  C   C794      1.0  0.96094  0.86520  0.64911  1.0000
  C   C795      1.0  0.53906  0.36520  0.85089  1.0000
  C   C796      1.0  0.46094  0.36520  0.64911  1.0000
  C   C797      1.0  0.96094  0.13480  0.14911  1.0000
  C   C798      1.0  0.03906  0.13480  0.35089  1.0000
  C   C799      1.0  0.46094  0.63480  0.14911  1.0000
  C   C800      1.0  0.53906  0.63480  0.35089  1.0000
  H   H497      1.0  0.04480  0.87000  0.83520  1.0000
  H   H498      1.0  0.95520  0.87000  0.66480  1.0000
  H   H499      1.0  0.54480  0.37000  0.83520  1.0000
  H   H500      1.0  0.45520  0.37000  0.66480  1.0000
  H   H501      1.0  0.95520  0.13000  0.16480  1.0000
  H   H502      1.0  0.04480  0.13000  0.33520  1.0000
  H   H503      1.0  0.45520  0.63000  0.16480  1.0000
  H   H504      1.0  0.54480  0.63000  0.33520  1.0000
  C   C801      1.0  0.03283  0.77570  0.85890  1.0000
  C   C802      1.0  0.96717  0.77570  0.64110  1.0000
  C   C803      1.0  0.53283  0.27570  0.85890  1.0000
  C   C804      1.0  0.46717  0.27570  0.64110  1.0000
  C   C805      1.0  0.96717  0.22430  0.14110  1.0000
  C   C806      1.0  0.03283  0.22430  0.35890  1.0000
  C   C807      1.0  0.46717  0.72430  0.14110  1.0000
  C   C808      1.0  0.53283  0.72430  0.35890  1.0000
  H   H505      1.0  0.03490  0.72110  0.84900  1.0000
  H   H506      1.0  0.96510  0.72110  0.65100  1.0000
  H   H507      1.0  0.53490  0.22110  0.84900  1.0000
  H   H508      1.0  0.46510  0.22110  0.65100  1.0000
  H   H509      1.0  0.96510  0.27890  0.15100  1.0000
  H   H510      1.0  0.03490  0.27890  0.34900  1.0000
  H   H511      1.0  0.46510  0.77890  0.15100  1.0000
  H   H512      1.0  0.53490  0.77890  0.34900  1.0000
  C   C809      1.0  0.02350  0.76740  0.88168  1.0000
  C   C810      1.0  0.97650  0.76740  0.61832  1.0000
  C   C811      1.0  0.52350  0.26740  0.88168  1.0000
  C   C812      1.0  0.47650  0.26740  0.61832  1.0000
  C   C813      1.0  0.97650  0.23260  0.11832  1.0000
  C   C814      1.0  0.02350  0.23260  0.38168  1.0000
  C   C815      1.0  0.47650  0.73260  0.11832  1.0000
  C   C816      1.0  0.52350  0.73260  0.38168  1.0000
  C   C817      1.0  0.02110  0.85100  0.89639  1.0000
  C   C818      1.0  0.97890  0.85100  0.60361  1.0000
  C   C819      1.0  0.52110  0.35100  0.89639  1.0000
  C   C820      1.0  0.47890  0.35100  0.60361  1.0000
  C   C821      1.0  0.97890  0.14900  0.10361  1.0000
  C   C822      1.0  0.02110  0.14900  0.39639  1.0000
  C   C823      1.0  0.47890  0.64900  0.10361  1.0000
  C   C824      1.0  0.52110  0.64900  0.39639  1.0000
  H   H513      1.0  0.01490  0.84690  0.91160  1.0000
  H   H514      1.0  0.98510  0.84690  0.58840  1.0000
  H   H515      1.0  0.51490  0.34690  0.91160  1.0000
  H   H516      1.0  0.48510  0.34690  0.58840  1.0000
  H   H517      1.0  0.98510  0.15310  0.08840  1.0000
  H   H518      1.0  0.01490  0.15310  0.41160  1.0000
  H   H519      1.0  0.48510  0.65310  0.08840  1.0000
  H   H520      1.0  0.51490  0.65310  0.41160  1.0000
  C   C825      1.0  0.02766  0.93790  0.88900  1.0000
  C   C826      1.0  0.97234  0.93790  0.61100  1.0000
  C   C827      1.0  0.52766  0.43790  0.88900  1.0000
  C   C828      1.0  0.47234  0.43790  0.61100  1.0000
  C   C829      1.0  0.97234  0.06210  0.11100  1.0000
  C   C830      1.0  0.02766  0.06210  0.38900  1.0000
  C   C831      1.0  0.47234  0.56210  0.11100  1.0000
  C   C832      1.0  0.52766  0.56210  0.38900  1.0000
  H   H521      1.0  0.02600  0.99190  0.89940  1.0000
  H   H522      1.0  0.97400  0.99190  0.60060  1.0000
  H   H523      1.0  0.52600  0.49190  0.89940  1.0000
  H   H524      1.0  0.47400  0.49190  0.60060  1.0000
  H   H525      1.0  0.97400  0.00810  0.10060  1.0000
  H   H526      1.0  0.02600  0.00810  0.39940  1.0000
  H   H527      1.0  0.47400  0.50810  0.10060  1.0000
  H   H528      1.0  0.52600  0.50810  0.39940  1.0000
  C   C833      1.0  0.01764  0.67250  0.89119  1.0000
  C   C834      1.0  0.98236  0.67250  0.60881  1.0000
  C   C835      1.0  0.51764  0.17250  0.89119  1.0000
  C   C836      1.0  0.48236  0.17250  0.60881  1.0000
  C   C837      1.0  0.98236  0.32750  0.10881  1.0000
  C   C838      1.0  0.01764  0.32750  0.39119  1.0000
  C   C839      1.0  0.48236  0.82750  0.10881  1.0000
  C   C840      1.0  0.51764  0.82750  0.39119  1.0000
  C   C841      1.0  0.00639  0.59750  0.86877  1.0000
  C   C842      1.0  0.99361  0.59750  0.63123  1.0000
  C   C843      1.0  0.50639  0.09750  0.86877  1.0000
  C   C844      1.0  0.49361  0.09750  0.63123  1.0000
  C   C845      1.0  0.99361  0.40250  0.13123  1.0000
  C   C846      1.0  0.00639  0.40250  0.36877  1.0000
  C   C847      1.0  0.49361  0.90250  0.13123  1.0000
  C   C848      1.0  0.50639  0.90250  0.36877  1.0000
  H   H529      1.0  0.00240  0.60750  0.84760  1.0000
  H   H530      1.0  0.99760  0.60750  0.65240  1.0000
  H   H531      1.0  0.50240  0.10750  0.84760  1.0000
  H   H532      1.0  0.49760  0.10750  0.65240  1.0000
  H   H533      1.0  0.99760  0.39250  0.15240  1.0000
  H   H534      1.0  0.00240  0.39250  0.34760  1.0000
  H   H535      1.0  0.49760  0.89250  0.15240  1.0000
  H   H536      1.0  0.50240  0.89250  0.34760  1.0000
  C   C849      1.0  0.00139  0.51070  0.87780  1.0000
  C   C850      1.0  0.99861  0.51070  0.62220  1.0000
  C   C851      1.0  0.50139  0.01070  0.87780  1.0000
  C   C852      1.0  0.49861  0.01070  0.62220  1.0000
  C   C853      1.0  0.99861  0.48930  0.12220  1.0000
  C   C854      1.0  0.00139  0.48930  0.37780  1.0000
  C   C855      1.0  0.49861  0.98930  0.12220  1.0000
  C   C856      1.0  0.50139  0.98930  0.37780  1.0000
  H   H537      1.0  0.99300  0.46310  0.86250  1.0000
  H   H538      1.0  0.00700  0.46310  0.63750  1.0000
  H   H539      1.0  0.49300  0.96310  0.86250  1.0000
  H   H540      1.0  0.50700  0.96310  0.63750  1.0000
  H   H541      1.0  0.00700  0.53690  0.13750  1.0000
  H   H542      1.0  0.99300  0.53690  0.36250  1.0000
  H   H543      1.0  0.50700  0.03690  0.13750  1.0000
  H   H544      1.0  0.49300  0.03690  0.36250  1.0000
  C   C857      1.0  0.00851  0.49070  0.90987  1.0000
  C   C858      1.0  0.99149  0.49070  0.59013  1.0000
  C   C859      1.0  0.50851  0.99070  0.90987  1.0000
  C   C860      1.0  0.49149  0.99070  0.59013  1.0000
  C   C861      1.0  0.99149  0.50930  0.09013  1.0000
  C   C862      1.0  0.00851  0.50930  0.40987  1.0000
  C   C863      1.0  0.49149  0.00930  0.09013  1.0000
  C   C864      1.0  0.50851  0.00930  0.40987  1.0000
  C   C865      1.0  0.02098  0.56330  0.93230  1.0000
  C   C866      1.0  0.97902  0.56330  0.56770  1.0000
  C   C867      1.0  0.52098  0.06330  0.93230  1.0000
  C   C868      1.0  0.47902  0.06330  0.56770  1.0000
  C   C869      1.0  0.97902  0.43670  0.06770  1.0000
  C   C870      1.0  0.02098  0.43670  0.43230  1.0000
  C   C871      1.0  0.47902  0.93670  0.06770  1.0000
  C   C872      1.0  0.52098  0.93670  0.43230  1.0000
  H   H545      1.0  0.02700  0.55120  0.95390  1.0000
  H   H546      1.0  0.97300  0.55120  0.54610  1.0000
  H   H547      1.0  0.52700  0.05120  0.95390  1.0000
  H   H548      1.0  0.47300  0.05120  0.54610  1.0000
  H   H549      1.0  0.97300  0.44880  0.04610  1.0000
  H   H550      1.0  0.02700  0.44880  0.45390  1.0000
  H   H551      1.0  0.47300  0.94880  0.04610  1.0000
  H   H552      1.0  0.52700  0.94880  0.45390  1.0000
  C   C873      1.0  0.02452  0.65430  0.92264  1.0000
  C   C874      1.0  0.97548  0.65430  0.57736  1.0000
  C   C875      1.0  0.52452  0.15430  0.92264  1.0000
  C   C876      1.0  0.47548  0.15430  0.57736  1.0000
  C   C877      1.0  0.97548  0.34570  0.07736  1.0000
  C   C878      1.0  0.02452  0.34570  0.42264  1.0000
  C   C879      1.0  0.47548  0.84570  0.07736  1.0000
  C   C880      1.0  0.52452  0.84570  0.42264  1.0000
  H   H553      1.0  0.03160  0.70350  0.93760  1.0000
  H   H554      1.0  0.96840  0.70350  0.56240  1.0000
  H   H555      1.0  0.53160  0.20350  0.93760  1.0000
  H   H556      1.0  0.46840  0.20350  0.56240  1.0000
  H   H557      1.0  0.96840  0.29650  0.06240  1.0000
  H   H558      1.0  0.03160  0.29650  0.43760  1.0000
  H   H559      1.0  0.46840  0.79650  0.06240  1.0000
  H   H560      1.0  0.53160  0.79650  0.43760  1.0000
  C   C881      1.0  0.00326  0.39640  0.92010  1.0000
  C   C882      1.0  0.99674  0.39640  0.57990  1.0000
  C   C883      1.0  0.50326  0.89640  0.92010  1.0000
  C   C884      1.0  0.49674  0.89640  0.57990  1.0000
  C   C885      1.0  0.99674  0.60360  0.07990  1.0000
  C   C886      1.0  0.00326  0.60360  0.42010  1.0000
  C   C887      1.0  0.49674  0.10360  0.07990  1.0000
  C   C888      1.0  0.50326  0.10360  0.42010  1.0000
  C   C889      1.0  0.16928  0.85470  0.11690  1.0000
  C   C890      1.0  0.83072  0.85470  0.38310  1.0000
  C   C891      1.0  0.66928  0.35470  0.11690  1.0000
  C   C892      1.0  0.33072  0.35470  0.38310  1.0000
  C   C893      1.0  0.83072  0.14530  0.88310  1.0000
  C   C894      1.0  0.16928  0.14530  0.61690  1.0000
  C   C895      1.0  0.33072  0.64530  0.88310  1.0000
  C   C896      1.0  0.66928  0.64530  0.61690  1.0000
  H   H561      1.0  0.18520  0.86890  0.11460  1.0000
  H   H562      1.0  0.81480  0.86890  0.38540  1.0000
  H   H563      1.0  0.68520  0.36890  0.11460  1.0000
  H   H564      1.0  0.31480  0.36890  0.38540  1.0000
  H   H565      1.0  0.81480  0.13110  0.88540  1.0000
  H   H566      1.0  0.18520  0.13110  0.61460  1.0000
  H   H567      1.0  0.31480  0.63110  0.88540  1.0000
  H   H568      1.0  0.68520  0.63110  0.61460  1.0000
  C   C897      1.0  0.14380  0.81650  0.05880  1.0000
  C   C898      1.0  0.85620  0.81650  0.44120  1.0000
  C   C899      1.0  0.64380  0.31650  0.05880  1.0000
  C   C900      1.0  0.35620  0.31650  0.44120  1.0000
  C   C901      1.0  0.85620  0.18350  0.94120  1.0000
  C   C902      1.0  0.14380  0.18350  0.55880  1.0000
  C   C903      1.0  0.35620  0.68350  0.94120  1.0000
  C   C904      1.0  0.64380  0.68350  0.55880  1.0000
  H   H569      1.0  0.16100  0.83800  0.05930  1.0000
  H   H570      1.0  0.83900  0.83800  0.44070  1.0000
  H   H571      1.0  0.66100  0.33800  0.05930  1.0000
  H   H572      1.0  0.33900  0.33800  0.44070  1.0000
  H   H573      1.0  0.83900  0.16200  0.94070  1.0000
  H   H574      1.0  0.16100  0.16200  0.55930  1.0000
  H   H575      1.0  0.33900  0.66200  0.94070  1.0000
  H   H576      1.0  0.66100  0.66200  0.55930  1.0000
  H   H577      1.0  0.12790  0.84930  0.04210  1.0000
  H   H578      1.0  0.87210  0.84930  0.45790  1.0000
  H   H579      1.0  0.62790  0.34930  0.04210  1.0000
  H   H580      1.0  0.37210  0.34930  0.45790  1.0000
  H   H581      1.0  0.87210  0.15070  0.95790  1.0000
  H   H582      1.0  0.12790  0.15070  0.54210  1.0000
  H   H583      1.0  0.37210  0.65070  0.95790  1.0000
  H   H584      1.0  0.62790  0.65070  0.54210  1.0000
  H   H585      1.0  0.14170  0.74890  0.05490  1.0000
  H   H586      1.0  0.85830  0.74890  0.44510  1.0000
  H   H587      1.0  0.64170  0.24890  0.05490  1.0000
  H   H588      1.0  0.35830  0.24890  0.44510  1.0000
  H   H589      1.0  0.85830  0.25110  0.94510  1.0000
  H   H590      1.0  0.14170  0.25110  0.55490  1.0000
  H   H591      1.0  0.35830  0.75110  0.94510  1.0000
  H   H592      1.0  0.64170  0.75110  0.55490  1.0000
  C   C905      1.0  0.11910  0.83420  0.09270  1.0000
  C   C906      1.0  0.88090  0.83420  0.40730  1.0000
  C   C907      1.0  0.61910  0.33420  0.09270  1.0000
  C   C908      1.0  0.38090  0.33420  0.40730  1.0000
  C   C909      1.0  0.88090  0.16580  0.90730  1.0000
  C   C910      1.0  0.11910  0.16580  0.59270  1.0000
  C   C911      1.0  0.38090  0.66580  0.90730  1.0000
  C   C912      1.0  0.61910  0.66580  0.59270  1.0000
  H   H593      1.0  0.10880  0.77690  0.08290  1.0000
  H   H594      1.0  0.89120  0.77690  0.41710  1.0000
  H   H595      1.0  0.60880  0.27690  0.08290  1.0000
  H   H596      1.0  0.39120  0.27690  0.41710  1.0000
  H   H597      1.0  0.89120  0.22310  0.91710  1.0000
  H   H598      1.0  0.10880  0.22310  0.58290  1.0000
  H   H599      1.0  0.39120  0.72310  0.91710  1.0000
  H   H600      1.0  0.60880  0.72310  0.58290  1.0000
  H   H601      1.0  0.10770  0.88900  0.08230  1.0000
  H   H602      1.0  0.89230  0.88900  0.41770  1.0000
  H   H603      1.0  0.60770  0.38900  0.08230  1.0000
  H   H604      1.0  0.39230  0.38900  0.41770  1.0000
  H   H605      1.0  0.89230  0.11100  0.91770  1.0000
  H   H606      1.0  0.10770  0.11100  0.58230  1.0000
  H   H607      1.0  0.39230  0.61100  0.91770  1.0000
  H   H608      1.0  0.60770  0.61100  0.58230  1.0000
  H   H609      1.0  0.12400  0.83490  0.11500  1.0000
  H   H610      1.0  0.87600  0.83490  0.38500  1.0000
  H   H611      1.0  0.62400  0.33490  0.11500  1.0000
  H   H612      1.0  0.37600  0.33490  0.38500  1.0000
  H   H613      1.0  0.87600  0.16510  0.88500  1.0000
  H   H614      1.0  0.12400  0.16510  0.61500  1.0000
  H   H615      1.0  0.37600  0.66510  0.88500  1.0000
  H   H616      1.0  0.62400  0.66510  0.61500  1.0000
  C   C913      1.0  0.06786  0.44930  0.86840  1.0000
  C   C914      1.0  0.93214  0.44930  0.63160  1.0000
  C   C915      1.0  0.56786  0.94930  0.86840  1.0000
  C   C916      1.0  0.43214  0.94930  0.63160  1.0000
  C   C917      1.0  0.93214  0.55070  0.13160  1.0000
  C   C918      1.0  0.06786  0.55070  0.36840  1.0000
  C   C919      1.0  0.43214  0.05070  0.13160  1.0000
  C   C920      1.0  0.56786  0.05070  0.36840  1.0000
  H   H617      1.0  0.05200  0.43890  0.87120  1.0000
  H   H618      1.0  0.94800  0.43890  0.62880  1.0000
  H   H619      1.0  0.55200  0.93890  0.87120  1.0000
  H   H620      1.0  0.44800  0.93890  0.62880  1.0000
  H   H621      1.0  0.94800  0.56110  0.12880  1.0000
  H   H622      1.0  0.05200  0.56110  0.37120  1.0000
  H   H623      1.0  0.44800  0.06110  0.12880  1.0000
  H   H624      1.0  0.55200  0.06110  0.37120  1.0000
  C   C921      1.0  0.11390  0.51540  0.88760  1.0000
  C   C922      1.0  0.88610  0.51540  0.61240  1.0000
  C   C923      1.0  0.61390  0.01540  0.88760  1.0000
  C   C924      1.0  0.38610  0.01540  0.61240  1.0000
  C   C925      1.0  0.88610  0.48460  0.11240  1.0000
  C   C926      1.0  0.11390  0.48460  0.38760  1.0000
  C   C927      1.0  0.38610  0.98460  0.11240  1.0000
  C   C928      1.0  0.61390  0.98460  0.38760  1.0000
  H   H625      1.0  0.12520  0.46270  0.90000  1.0000
  H   H626      1.0  0.87480  0.46270  0.60000  1.0000
  H   H627      1.0  0.62520  0.96270  0.90000  1.0000
  H   H628      1.0  0.37480  0.96270  0.60000  1.0000
  H   H629      1.0  0.87480  0.53730  0.10000  1.0000
  H   H630      1.0  0.12520  0.53730  0.40000  1.0000
  H   H631      1.0  0.37480  0.03730  0.10000  1.0000
  H   H632      1.0  0.62520  0.03730  0.40000  1.0000
  H   H633      1.0  0.12300  0.57450  0.89740  1.0000
  H   H634      1.0  0.87700  0.57450  0.60260  1.0000
  H   H635      1.0  0.62300  0.07450  0.89740  1.0000
  H   H636      1.0  0.37700  0.07450  0.60260  1.0000
  H   H637      1.0  0.87700  0.42550  0.10260  1.0000
  H   H638      1.0  0.12300  0.42550  0.39740  1.0000
  H   H639      1.0  0.37700  0.92550  0.10260  1.0000
  H   H640      1.0  0.62300  0.92550  0.39740  1.0000
  H   H641      1.0  0.11170  0.51190  0.86630  1.0000
  H   H642      1.0  0.88830  0.51190  0.63370  1.0000
  H   H643      1.0  0.61170  0.01190  0.86630  1.0000
  H   H644      1.0  0.38830  0.01190  0.63370  1.0000
  H   H645      1.0  0.88830  0.48810  0.13370  1.0000
  H   H646      1.0  0.11170  0.48810  0.36630  1.0000
  H   H647      1.0  0.38830  0.98810  0.13370  1.0000
  H   H648      1.0  0.61170  0.98810  0.36630  1.0000
  C   C929      1.0  0.08160  0.56220  0.91110  1.0000
  C   C930      1.0  0.91840  0.56220  0.58890  1.0000
  C   C931      1.0  0.58160  0.06220  0.91110  1.0000
  C   C932      1.0  0.41840  0.06220  0.58890  1.0000
  C   C933      1.0  0.91840  0.43780  0.08890  1.0000
  C   C934      1.0  0.08160  0.43780  0.41110  1.0000
  C   C935      1.0  0.41840  0.93780  0.08890  1.0000
  C   C936      1.0  0.58160  0.93780  0.41110  1.0000
  H   H649      1.0  0.06670  0.53260  0.91370  1.0000
  H   H650      1.0  0.93330  0.53260  0.58630  1.0000
  H   H651      1.0  0.56670  0.03260  0.91370  1.0000
  H   H652      1.0  0.43330  0.03260  0.58630  1.0000
  H   H653      1.0  0.93330  0.46740  0.08630  1.0000
  H   H654      1.0  0.06670  0.46740  0.41370  1.0000
  H   H655      1.0  0.43330  0.96740  0.08630  1.0000
  H   H656      1.0  0.56670  0.96740  0.41370  1.0000
  H   H657      1.0  0.07680  0.62780  0.90480  1.0000
  H   H658      1.0  0.92320  0.62780  0.59520  1.0000
  H   H659      1.0  0.57680  0.12780  0.90480  1.0000
  H   H660      1.0  0.42320  0.12780  0.59520  1.0000
  H   H661      1.0  0.92320  0.37220  0.09520  1.0000
  H   H662      1.0  0.07680  0.37220  0.40480  1.0000
  H   H663      1.0  0.42320  0.87220  0.09520  1.0000
  H   H664      1.0  0.57680  0.87220  0.40480  1.0000
  H   H665      1.0  0.09890  0.55950  0.93090  1.0000
  H   H666      1.0  0.90110  0.55950  0.56910  1.0000
  H   H667      1.0  0.59890  0.05950  0.93090  1.0000
  H   H668      1.0  0.40110  0.05950  0.56910  1.0000
  H   H669      1.0  0.90110  0.44050  0.06910  1.0000
  H   H670      1.0  0.09890  0.44050  0.43090  1.0000
  H   H671      1.0  0.40110  0.94050  0.06910  1.0000
  H   H672      1.0  0.59890  0.94050  0.43090  1.0000
  Cd  Cd1       1.0  0.29331  0.77986  0.09763  1.0000
  Cd  Cd2       1.0  0.70668  0.77986  0.40237  1.0000
  Cd  Cd3       1.0  0.79331  0.27986  0.09763  1.0000
  Cd  Cd4       1.0  0.20669  0.27986  0.40237  1.0000
  Cd  Cd5       1.0  0.70668  0.22014  0.90237  1.0000
  Cd  Cd6       1.0  0.29331  0.22014  0.59763  1.0000
  Cd  Cd7       1.0  0.20669  0.72014  0.90237  1.0000
  Cd  Cd8       1.0  0.79331  0.72014  0.59763  1.0000
  Cd  Cd9       1.0  0.26340  0.80358  0.14836  1.0000
  Cd  Cd10      1.0  0.73660  0.80358  0.35164  1.0000
  Cd  Cd11      1.0  0.76340  0.30358  0.14836  1.0000
  Cd  Cd12      1.0  0.23660  0.30358  0.35164  1.0000
  Cd  Cd13      1.0  0.73660  0.19642  0.85164  1.0000
  Cd  Cd14      1.0  0.26340  0.19642  0.64836  1.0000
  Cd  Cd15      1.0  0.23660  0.69642  0.85164  1.0000
  Cd  Cd16      1.0  0.76340  0.69642  0.64836  1.0000
  Cd  Cd17      1.0  0.21736  0.78457  0.18322  1.0000
  Cd  Cd18      1.0  0.78264  0.78457  0.31678  1.0000
  Cd  Cd19      1.0  0.71736  0.28457  0.18322  1.0000
  Cd  Cd20      1.0  0.28264  0.28457  0.31678  1.0000
  Cd  Cd21      1.0  0.78264  0.21543  0.81678  1.0000
  Cd  Cd22      1.0  0.21736  0.21543  0.68322  1.0000
  Cd  Cd23      1.0  0.28264  0.71543  0.81678  1.0000
  Cd  Cd24      1.0  0.71736  0.71543  0.68322  1.0000
  Cd  Cd25      1.0  0.98932  0.22735  0.94042  1.0000
  Cd  Cd26      1.0  0.01067  0.22735  0.55958  1.0000
  Cd  Cd27      1.0  0.48932  0.72735  0.94042  1.0000
  Cd  Cd28      1.0  0.51067  0.72735  0.55958  1.0000
  Cd  Cd29      1.0  0.01067  0.77265  0.05958  1.0000
  Cd  Cd30      1.0  0.98932  0.77265  0.44042  1.0000
  Cd  Cd31      1.0  0.51067  0.27265  0.05958  1.0000
  Cd  Cd32      1.0  0.48932  0.27265  0.44042  1.0000
  Cd  Cd33      1.0  0.01544  0.21596  0.88550  1.0000
  Cd  Cd34      1.0  0.98456  0.21596  0.61450  1.0000
  Cd  Cd35      1.0  0.51544  0.71596  0.88550  1.0000
  Cd  Cd36      1.0  0.48456  0.71596  0.61450  1.0000
  Cd  Cd37      1.0  0.98456  0.78404  0.11450  1.0000
  Cd  Cd38      1.0  0.01544  0.78404  0.38550  1.0000
  Cd  Cd39      1.0  0.48456  0.28404  0.11450  1.0000
  Cd  Cd40      1.0  0.51544  0.28404  0.38550  1.0000
  Cd  Cd41      1.0  0.06085  0.23108  0.85190  1.0000
  Cd  Cd42      1.0  0.93915  0.23108  0.64810  1.0000
  Cd  Cd43      1.0  0.56085  0.73108  0.85190  1.0000
  Cd  Cd44      1.0  0.43915  0.73108  0.64810  1.0000
  Cd  Cd45      1.0  0.93915  0.76892  0.14810  1.0000
  Cd  Cd46      1.0  0.06085  0.76892  0.35190  1.0000
  Cd  Cd47      1.0  0.43915  0.26892  0.14810  1.0000
  Cd  Cd48      1.0  0.56085  0.26892  0.35190  1.0000
  N   N1        1.0  0.19337  0.76090  0.21168  1.0000
  N   N2        1.0  0.80663  0.76090  0.28832  1.0000
  N   N3        1.0  0.69337  0.26090  0.21168  1.0000
  N   N4        1.0  0.30663  0.26090  0.28832  1.0000
  N   N5        1.0  0.80663  0.23910  0.78832  1.0000
  N   N6        1.0  0.19337  0.23910  0.71168  1.0000
  N   N7        1.0  0.30663  0.73910  0.78832  1.0000
  N   N8        1.0  0.69337  0.73910  0.71168  1.0000
  N   N9        1.0  0.09568  0.79350  0.33801  1.0000
  N   N10       1.0  0.90432  0.79350  0.16199  1.0000
  N   N11       1.0  0.59568  0.29350  0.33801  1.0000
  N   N12       1.0  0.40432  0.29350  0.16199  1.0000
  N   N13       1.0  0.90432  0.20650  0.66199  1.0000
  N   N14       1.0  0.09568  0.20650  0.83801  1.0000
  N   N15       1.0  0.40432  0.70650  0.66199  1.0000
  N   N16       1.0  0.59568  0.70650  0.83801  1.0000
  N   N17       1.0  0.14492  0.83700  0.08965  1.0000
  N   N18       1.0  0.85508  0.83700  0.41035  1.0000
  N   N19       1.0  0.64492  0.33700  0.08965  1.0000
  N   N20       1.0  0.35508  0.33700  0.41035  1.0000
  N   N21       1.0  0.85508  0.16300  0.91035  1.0000
  N   N22       1.0  0.14492  0.16300  0.58965  1.0000
  N   N23       1.0  0.35508  0.66300  0.91035  1.0000
  N   N24       1.0  0.64492  0.66300  0.58965  1.0000
  N   N25       1.0  0.08528  0.51100  0.88610  1.0000
  N   N26       1.0  0.91472  0.51100  0.61390  1.0000
  N   N27       1.0  0.58528  0.01100  0.88610  1.0000
  N   N28       1.0  0.41472  0.01100  0.61390  1.0000
  N   N29       1.0  0.91472  0.48900  0.11390  1.0000
  N   N30       1.0  0.08528  0.48900  0.38610  1.0000
  N   N31       1.0  0.41472  0.98900  0.11390  1.0000
  N   N32       1.0  0.58528  0.98900  0.38610  1.0000
  O   O1        1.0  0.30876  0.80270  0.06089  1.0000
  O   O2        1.0  0.69124  0.80270  0.43911  1.0000
  O   O3        1.0  0.80876  0.30270  0.06089  1.0000
  O   O4        1.0  0.19124  0.30270  0.43911  1.0000
  O   O5        1.0  0.69124  0.19730  0.93911  1.0000
  O   O6        1.0  0.30876  0.19730  0.56089  1.0000
  O   O7        1.0  0.19124  0.69730  0.93911  1.0000
  O   O8        1.0  0.80876  0.69730  0.56089  1.0000
  O   O9        1.0  0.33839  0.72040  0.10194  1.0000
  O   O10       1.0  0.66161  0.72040  0.39806  1.0000
  O   O11       1.0  0.83839  0.22040  0.10194  1.0000
  O   O12       1.0  0.16161  0.22040  0.39806  1.0000
  O   O13       1.0  0.66161  0.27960  0.89806  1.0000
  O   O14       1.0  0.33839  0.27960  0.60194  1.0000
  O   O15       1.0  0.16161  0.77960  0.89806  1.0000
  O   O16       1.0  0.83839  0.77960  0.60194  1.0000
  O   O17       1.0  0.45661  0.80000  0.95329  1.0000
  O   O18       1.0  0.54339  0.80000  0.54671  1.0000
  O   O19       1.0  0.95661  0.30000  0.95329  1.0000
  O   O20       1.0  0.04339  0.30000  0.54671  1.0000
  O   O21       1.0  0.54339  0.20000  0.04671  1.0000
  O   O22       1.0  0.45661  0.20000  0.45329  1.0000
  O   O23       1.0  0.04339  0.70000  0.04671  1.0000
  O   O24       1.0  0.95661  0.70000  0.45329  1.0000
  O   O25       1.0  0.47061  0.66070  0.97195  1.0000
  O   O26       1.0  0.52939  0.66070  0.52805  1.0000
  O   O27       1.0  0.97061  0.16070  0.97195  1.0000
  O   O28       1.0  0.02939  0.16070  0.52805  1.0000
  O   O29       1.0  0.52939  0.33930  0.02805  1.0000
  O   O30       1.0  0.47061  0.33930  0.47195  1.0000
  O   O31       1.0  0.02939  0.83930  0.02805  1.0000
  O   O32       1.0  0.97061  0.83930  0.47195  1.0000
  O   O33       1.0  0.25326  0.88870  0.10255  1.0000
  O   O34       1.0  0.74674  0.88870  0.39745  1.0000
  O   O35       1.0  0.75326  0.38870  0.10255  1.0000
  O   O36       1.0  0.24674  0.38870  0.39745  1.0000
  O   O37       1.0  0.74674  0.11130  0.89745  1.0000
  O   O38       1.0  0.25326  0.11130  0.60255  1.0000
  O   O39       1.0  0.24674  0.61130  0.89745  1.0000
  O   O40       1.0  0.75326  0.61130  0.60255  1.0000
  O   O41       1.0  0.24937  0.82840  0.05850  1.0000
  O   O42       1.0  0.75063  0.82840  0.44150  1.0000
  O   O43       1.0  0.74937  0.32840  0.05850  1.0000
  O   O44       1.0  0.25063  0.32840  0.44150  1.0000
  O   O45       1.0  0.75063  0.17160  0.94150  1.0000
  O   O46       1.0  0.24937  0.17160  0.55850  1.0000
  O   O47       1.0  0.25063  0.67160  0.94150  1.0000
  O   O48       1.0  0.74937  0.67160  0.55850  1.0000
  O   O49       1.0  0.03337  0.18010  0.97981  1.0000
  O   O50       1.0  0.96663  0.18010  0.52019  1.0000
  O   O51       1.0  0.53337  0.68010  0.97981  1.0000
  O   O52       1.0  0.46663  0.68010  0.52019  1.0000
  O   O53       1.0  0.96663  0.81990  0.02019  1.0000
  O   O54       1.0  0.03337  0.81990  0.47981  1.0000
  O   O55       1.0  0.46663  0.31990  0.02019  1.0000
  O   O56       1.0  0.53337  0.31990  0.47981  1.0000
  O   O57       1.0  0.02685  0.13710  0.93261  1.0000
  O   O58       1.0  0.97315  0.13710  0.56739  1.0000
  O   O59       1.0  0.52685  0.63710  0.93261  1.0000
  O   O60       1.0  0.47315  0.63710  0.56739  1.0000
  O   O61       1.0  0.97315  0.86290  0.06739  1.0000
  O   O62       1.0  0.02685  0.86290  0.43261  1.0000
  O   O63       1.0  0.47315  0.36290  0.06739  1.0000
  O   O64       1.0  0.52685  0.36290  0.43261  1.0000
  O   O65       1.0  0.28613  0.68310  0.13524  1.0000
  O   O66       1.0  0.71387  0.68310  0.36476  1.0000
  O   O67       1.0  0.78613  0.18310  0.13524  1.0000
  O   O68       1.0  0.21387  0.18310  0.36476  1.0000
  O   O69       1.0  0.71387  0.31690  0.86476  1.0000
  O   O70       1.0  0.28613  0.31690  0.63524  1.0000
  O   O71       1.0  0.21387  0.81690  0.86476  1.0000
  O   O72       1.0  0.78613  0.81690  0.63524  1.0000
  O   O73       1.0  0.27518  0.62340  0.08808  1.0000
  O   O74       1.0  0.72482  0.62340  0.41192  1.0000
  O   O75       1.0  0.77518  0.12340  0.08808  1.0000
  O   O76       1.0  0.22482  0.12340  0.41192  1.0000
  O   O77       1.0  0.72482  0.37660  0.91192  1.0000
  O   O78       1.0  0.27518  0.37660  0.58808  1.0000
  O   O79       1.0  0.22482  0.87660  0.91192  1.0000
  O   O80       1.0  0.77518  0.87660  0.58808  1.0000
  O   O81       1.0  0.23449  0.89970  0.16012  1.0000
  O   O82       1.0  0.76551  0.89970  0.33988  1.0000
  O   O83       1.0  0.73449  0.39970  0.16012  1.0000
  O   O84       1.0  0.26551  0.39970  0.33988  1.0000
  O   O85       1.0  0.76551  0.10030  0.83988  1.0000
  O   O86       1.0  0.23449  0.10030  0.66012  1.0000
  O   O87       1.0  0.26551  0.60030  0.83988  1.0000
  O   O88       1.0  0.73449  0.60030  0.66012  1.0000
  O   O89       1.0  0.22705  0.95580  0.19805  1.0000
  O   O90       1.0  0.77295  0.95580  0.30195  1.0000
  O   O91       1.0  0.72705  0.45580  0.19805  1.0000
  O   O92       1.0  0.27295  0.45580  0.30195  1.0000
  O   O93       1.0  0.77295  0.04420  0.80195  1.0000
  O   O94       1.0  0.22705  0.04420  0.69805  1.0000
  O   O95       1.0  0.27295  0.54420  0.80195  1.0000
  O   O96       1.0  0.72705  0.54420  0.69805  1.0000
  O   O97       1.0  0.30350  0.88510  0.17195  1.0000
  O   O98       1.0  0.69650  0.88510  0.32805  1.0000
  O   O99       1.0  0.80350  0.38510  0.17195  1.0000
  O   O100      1.0  0.19650  0.38510  0.32805  1.0000
  O   O101      1.0  0.69650  0.11490  0.82805  1.0000
  O   O102      1.0  0.30350  0.11490  0.67195  1.0000
  O   O103      1.0  0.19650  0.61490  0.82805  1.0000
  O   O104      1.0  0.80350  0.61490  0.67195  1.0000
  O   O105      1.0  0.31850  0.88320  0.13513  1.0000
  O   O106      1.0  0.68150  0.88320  0.36487  1.0000
  O   O107      1.0  0.81850  0.38320  0.13513  1.0000
  O   O108      1.0  0.18150  0.38320  0.36487  1.0000
  O   O109      1.0  0.68150  0.11680  0.86487  1.0000
  O   O110      1.0  0.31850  0.11680  0.63513  1.0000
  O   O111      1.0  0.18150  0.61680  0.86487  1.0000
  O   O112      1.0  0.81850  0.61680  0.63513  1.0000
  O   O113      1.0  0.51427  0.20290  0.34318  1.0000
  O   O114      1.0  0.48573  0.20290  0.15682  1.0000
  O   O115      1.0  0.01427  0.70290  0.34318  1.0000
  O   O116      1.0  0.98573  0.70290  0.15682  1.0000
  O   O117      1.0  0.48573  0.79710  0.65682  1.0000
  O   O118      1.0  0.51427  0.79710  0.84318  1.0000
  O   O119      1.0  0.98573  0.29710  0.65682  1.0000
  O   O120      1.0  0.01427  0.29710  0.84318  1.0000
  O   O121      1.0  0.52008  0.25160  0.30227  1.0000
  O   O122      1.0  0.47992  0.25160  0.19773  1.0000
  O   O123      1.0  0.02008  0.75160  0.30227  1.0000
  O   O124      1.0  0.97992  0.75160  0.19773  1.0000
  O   O125      1.0  0.47992  0.74840  0.69773  1.0000
  O   O126      1.0  0.52008  0.74840  0.80227  1.0000
  O   O127      1.0  0.97992  0.24840  0.69773  1.0000
  O   O128      1.0  0.02008  0.24840  0.80227  1.0000
  O   O129      1.0  0.27251  0.73920  0.19495  1.0000
  O   O130      1.0  0.72749  0.73920  0.30505  1.0000
  O   O131      1.0  0.77251  0.23920  0.19495  1.0000
  O   O132      1.0  0.22749  0.23920  0.30505  1.0000
  O   O133      1.0  0.72749  0.26080  0.80505  1.0000
  O   O134      1.0  0.27251  0.26080  0.69495  1.0000
  O   O135      1.0  0.22749  0.76080  0.80505  1.0000
  O   O136      1.0  0.77251  0.76080  0.69495  1.0000
  O   O137      1.0  0.25324  0.69760  0.22307  1.0000
  O   O138      1.0  0.74676  0.69760  0.27693  1.0000
  O   O139      1.0  0.75324  0.19760  0.22307  1.0000
  O   O140      1.0  0.24676  0.19760  0.27693  1.0000
  O   O141      1.0  0.74676  0.30240  0.77693  1.0000
  O   O142      1.0  0.25324  0.30240  0.72307  1.0000
  O   O143      1.0  0.24676  0.80240  0.77693  1.0000
  O   O144      1.0  0.75324  0.80240  0.72307  1.0000
  O   O145      1.0  0.47452  0.35900  0.36068  1.0000
  O   O146      1.0  0.52548  0.35900  0.13932  1.0000
  O   O147      1.0  0.97452  0.85900  0.36068  1.0000
  O   O148      1.0  0.02548  0.85900  0.13932  1.0000
  O   O149      1.0  0.52548  0.64100  0.63932  1.0000
  O   O150      1.0  0.47452  0.64100  0.86068  1.0000
  O   O151      1.0  0.02548  0.14100  0.63932  1.0000
  O   O152      1.0  0.97452  0.14100  0.86068  1.0000
  O   O153      1.0  0.45880  0.35290  0.39702  1.0000
  O   O154      1.0  0.54120  0.35290  0.10298  1.0000
  O   O155      1.0  0.95880  0.85290  0.39702  1.0000
  O   O156      1.0  0.04120  0.85290  0.10298  1.0000
  O   O157      1.0  0.54120  0.64710  0.60298  1.0000
  O   O158      1.0  0.45880  0.64710  0.89702  1.0000
  O   O159      1.0  0.04120  0.14710  0.60298  1.0000
  O   O160      1.0  0.95880  0.14710  0.89702  1.0000
  O   O161      1.0  0.20363  0.66790  0.14611  1.0000
  O   O162      1.0  0.79637  0.66790  0.35389  1.0000
  O   O163      1.0  0.70363  0.16790  0.14611  1.0000
  O   O164      1.0  0.29637  0.16790  0.35389  1.0000
  O   O165      1.0  0.79637  0.33210  0.85389  1.0000
  O   O166      1.0  0.20363  0.33210  0.64611  1.0000
  O   O167      1.0  0.29637  0.83210  0.85389  1.0000
  O   O168      1.0  0.70363  0.83210  0.64611  1.0000
  O   O169      1.0  0.22560  0.71870  0.11863  1.0000
  O   O170      1.0  0.77440  0.71870  0.38137  1.0000
  O   O171      1.0  0.72560  0.21870  0.11863  1.0000
  O   O172      1.0  0.27440  0.21870  0.38137  1.0000
  O   O173      1.0  0.77440  0.28130  0.88137  1.0000
  O   O174      1.0  0.22560  0.28130  0.61863  1.0000
  O   O175      1.0  0.27440  0.78130  0.88137  1.0000
  O   O176      1.0  0.72560  0.78130  0.61863  1.0000
  O   O177      1.0  0.05505  0.29970  0.91541  1.0000
  O   O178      1.0  0.94495  0.29970  0.58459  1.0000
  O   O179      1.0  0.55505  0.79970  0.91541  1.0000
  O   O180      1.0  0.44495  0.79970  0.58459  1.0000
  O   O181      1.0  0.94495  0.70030  0.08459  1.0000
  O   O182      1.0  0.05505  0.70030  0.41541  1.0000
  O   O183      1.0  0.44495  0.20030  0.08459  1.0000
  O   O184      1.0  0.55505  0.20030  0.41541  1.0000
  O   O185      1.0  0.09012  0.26630  0.90459  1.0000
  O   O186      1.0  0.90988  0.26630  0.59541  1.0000
  O   O187      1.0  0.59012  0.76630  0.90459  1.0000
  O   O188      1.0  0.40988  0.76630  0.59541  1.0000
  O   O189      1.0  0.90988  0.73370  0.09541  1.0000
  O   O190      1.0  0.09012  0.73370  0.40459  1.0000
  O   O191      1.0  0.40988  0.23370  0.09541  1.0000
  O   O192      1.0  0.59012  0.23370  0.40459  1.0000
  O   O193      1.0  0.05402  0.04950  0.83911  1.0000
  O   O194      1.0  0.94598  0.04950  0.66089  1.0000
  O   O195      1.0  0.55402  0.54950  0.83911  1.0000
  O   O196      1.0  0.44598  0.54950  0.66089  1.0000
  O   O197      1.0  0.94598  0.95050  0.16089  1.0000
  O   O198      1.0  0.05402  0.95050  0.33911  1.0000
  O   O199      1.0  0.44598  0.45050  0.16089  1.0000
  O   O200      1.0  0.55402  0.45050  0.33911  1.0000
  O   O201      1.0  0.04258  0.11590  0.87287  1.0000
  O   O202      1.0  0.95742  0.11590  0.62713  1.0000
  O   O203      1.0  0.54258  0.61590  0.87287  1.0000
  O   O204      1.0  0.45742  0.61590  0.62713  1.0000
  O   O205      1.0  0.95742  0.88410  0.12713  1.0000
  O   O206      1.0  0.04258  0.88410  0.37287  1.0000
  O   O207      1.0  0.45742  0.38410  0.12713  1.0000
  O   O208      1.0  0.54258  0.38410  0.37287  1.0000
  O   O209      1.0  0.99210  0.33010  0.89834  1.0000
  O   O210      1.0  0.00790  0.33010  0.60166  1.0000
  O   O211      1.0  0.49210  0.83010  0.89834  1.0000
  O   O212      1.0  0.50790  0.83010  0.60166  1.0000
  O   O213      1.0  0.00790  0.66990  0.10166  1.0000
  O   O214      1.0  0.99210  0.66990  0.39834  1.0000
  O   O215      1.0  0.50790  0.16990  0.10166  1.0000
  O   O216      1.0  0.49210  0.16990  0.39834  1.0000
  O   O217      1.0  0.00889  0.38280  0.94843  1.0000
  O   O218      1.0  0.99111  0.38280  0.55157  1.0000
  O   O219      1.0  0.50889  0.88280  0.94843  1.0000
  O   O220      1.0  0.49111  0.88280  0.55157  1.0000
  O   O221      1.0  0.99111  0.61720  0.05157  1.0000
  O   O222      1.0  0.00889  0.61720  0.44843  1.0000
  O   O223      1.0  0.49111  0.11720  0.05157  1.0000
  O   O224      1.0  0.50889  0.11720  0.44843  1.0000
  O   O225      1.0  0.17246  0.85400  0.14406  1.0000
  O   O226      1.0  0.82754  0.85400  0.35594  1.0000
  O   O227      1.0  0.67246  0.35400  0.14406  1.0000
  O   O228      1.0  0.32754  0.35400  0.35594  1.0000
  O   O229      1.0  0.82754  0.14600  0.85594  1.0000
  O   O230      1.0  0.17246  0.14600  0.64406  1.0000
  O   O231      1.0  0.32754  0.64600  0.85594  1.0000
  O   O232      1.0  0.67246  0.64600  0.64406  1.0000
  O   O233      1.0  0.06993  0.39950  0.84697  1.0000
  O   O234      1.0  0.93007  0.39950  0.65303  1.0000
  O   O235      1.0  0.56993  0.89950  0.84697  1.0000
  O   O236      1.0  0.43007  0.89950  0.65303  1.0000
  O   O237      1.0  0.93007  0.60050  0.15303  1.0000
  O   O238      1.0  0.06993  0.60050  0.34697  1.0000
  O   O239      1.0  0.43007  0.10050  0.15303  1.0000
  O   O240      1.0  0.56993  0.10050  0.34697  1.0000
