data_image0
_chemical_formula_structural       Zn2Cr2O24C12H12
_chemical_formula_sum              "Zn2 Cr2 O24 C12 H12"
_cell_length_a       8.1831
_cell_length_b       8.1831
_cell_length_c       13.567
_cell_angle_alpha    90
_cell_angle_beta     90
_cell_angle_gamma    120

_space_group_name_H-M_alt    "P 1"
_space_group_IT_number       1

loop_
  _space_group_symop_operation_xyz
  'x, y, z'

loop_
  _atom_site_type_symbol
  _atom_site_label
  _atom_site_symmetry_multiplicity
  _atom_site_fract_x
  _atom_site_fract_y
  _atom_site_fract_z
  _atom_site_occupancy
  Zn  Zn1       1.0  0.33330  0.66670  0.25000  1.0000
  Zn  Zn2       1.0  0.66670  0.33330  0.75000  1.0000
  Cr  Cr1       1.0  0.00000  0.00000  0.00000  1.0000
  Cr  Cr2       1.0  0.00000  0.00000  0.50000  1.0000
  O   O1        1.0  0.11527  0.65862  0.16666  1.0000
  O   O2        1.0  0.34138  0.45665  0.16666  1.0000
  O   O3        1.0  0.54335  0.88473  0.16666  1.0000
  O   O4        1.0  0.34138  0.88473  0.33334  1.0000
  O   O5        1.0  0.54335  0.65862  0.33334  1.0000
  O   O6        1.0  0.11527  0.45665  0.33334  1.0000
  O   O7        1.0  0.88473  0.34138  0.83334  1.0000
  O   O8        1.0  0.65862  0.54335  0.83334  1.0000
  O   O9        1.0  0.45665  0.11527  0.83334  1.0000
  O   O10       1.0  0.65862  0.11527  0.66666  1.0000
  O   O11       1.0  0.45665  0.34138  0.66666  1.0000
  O   O12       1.0  0.88473  0.54335  0.66666  1.0000
  O   O13       1.0  0.98926  0.79607  0.08156  1.0000
  O   O14       1.0  0.20393  0.19319  0.08156  1.0000
  O   O15       1.0  0.80681  0.01074  0.08156  1.0000
  O   O16       1.0  0.20393  0.01074  0.41844  1.0000
  O   O17       1.0  0.80681  0.79607  0.41844  1.0000
  O   O18       1.0  0.98926  0.19319  0.41844  1.0000
  O   O19       1.0  0.01074  0.20393  0.91844  1.0000
  O   O20       1.0  0.79607  0.80681  0.91844  1.0000
  O   O21       1.0  0.19319  0.98926  0.91844  1.0000
  O   O22       1.0  0.79607  0.98926  0.58156  1.0000
  O   O23       1.0  0.19319  0.20393  0.58156  1.0000
  O   O24       1.0  0.01074  0.80681  0.58156  1.0000
  C   C1        1.0  0.12580  0.79030  0.11893  1.0000
  C   C2        1.0  0.20970  0.33550  0.11893  1.0000
  C   C3        1.0  0.66450  0.87420  0.11893  1.0000
  C   C4        1.0  0.20970  0.87420  0.38107  1.0000
  C   C5        1.0  0.66450  0.79030  0.38107  1.0000
  C   C6        1.0  0.12580  0.33550  0.38107  1.0000
  C   C7        1.0  0.87420  0.20970  0.88107  1.0000
  C   C8        1.0  0.79030  0.66450  0.88107  1.0000
  C   C9        1.0  0.33550  0.12580  0.88107  1.0000
  C   C10       1.0  0.79030  0.12580  0.61893  1.0000
  C   C11       1.0  0.33550  0.20970  0.61893  1.0000
  C   C12       1.0  0.87420  0.66450  0.61893  1.0000
  H   H1        1.0  0.24100  0.89500  0.10700  1.0000
  H   H2        1.0  0.10500  0.34600  0.10700  1.0000
  H   H3        1.0  0.65400  0.75900  0.10700  1.0000
  H   H4        1.0  0.10500  0.75900  0.39300  1.0000
  H   H5        1.0  0.65400  0.89500  0.39300  1.0000
  H   H6        1.0  0.24100  0.34600  0.39300  1.0000
  H   H7        1.0  0.75900  0.10500  0.89300  1.0000
  H   H8        1.0  0.89500  0.65400  0.89300  1.0000
  H   H9        1.0  0.34600  0.24100  0.89300  1.0000
  H   H10       1.0  0.89500  0.24100  0.60700  1.0000
  H   H11       1.0  0.34600  0.10500  0.60700  1.0000
  H   H12       1.0  0.75900  0.65400  0.60700  1.0000
