data_image0
_chemical_formula_structural       Nd4C8H4C8H4C8H4C4H8C8H4C8H4C8H4C16O36H8
_chemical_formula_sum              "Nd4 C68 H40 O36"
_cell_length_a       9.2307
_cell_length_b       13.6222
_cell_length_c       14.7072
_cell_angle_alpha    90
_cell_angle_beta     90.271
_cell_angle_gamma    90

_space_group_name_H-M_alt    "P 1"
_space_group_IT_number       1

loop_
  _space_group_symop_operation_xyz
  'x, y, z'

loop_
  _atom_site_type_symbol
  _atom_site_label
  _atom_site_symmetry_multiplicity
  _atom_site_fract_x
  _atom_site_fract_y
  _atom_site_fract_z
  _atom_site_occupancy
  Nd  Nd1       1.0  0.25085  0.50245  0.09312  1.0000
  Nd  Nd2       1.0  0.24915  0.00245  0.40687  1.0000
  Nd  Nd3       1.0  0.74915  0.49755  0.90687  1.0000
  Nd  Nd4       1.0  0.75085  0.99755  0.59313  1.0000
  C   C1        1.0  0.00240  0.61040  0.32950  1.0000
  C   C2        1.0  0.49760  0.11040  0.17050  1.0000
  C   C3        1.0  0.99760  0.38960  0.67050  1.0000
  C   C4        1.0  0.50240  0.88960  0.82950  1.0000
  C   C5        1.0  0.02660  0.70400  0.36580  1.0000
  C   C6        1.0  0.47340  0.20400  0.13420  1.0000
  C   C7        1.0  0.97340  0.29600  0.63420  1.0000
  C   C8        1.0  0.52660  0.79600  0.86580  1.0000
  H   H1        1.0  0.09160  0.74790  0.33670  1.0000
  H   H2        1.0  0.40840  0.24790  0.16330  1.0000
  H   H3        1.0  0.90840  0.25210  0.66330  1.0000
  H   H4        1.0  0.59160  0.75210  0.83670  1.0000
  C   C9        1.0  0.95460  0.73270  0.44510  1.0000
  C   C10       1.0  0.54540  0.23270  0.05490  1.0000
  C   C11       1.0  0.04540  0.26730  0.55490  1.0000
  C   C12       1.0  0.45460  0.76730  0.94510  1.0000
  C   C13       1.0  0.86430  0.66600  0.48830  1.0000
  C   C14       1.0  0.63570  0.16600  0.01170  1.0000
  C   C15       1.0  0.13570  0.33400  0.51170  1.0000
  C   C16       1.0  0.36430  0.83400  0.98830  1.0000
  H   H5        1.0  0.81500  0.68560  0.54180  1.0000
  H   H6        1.0  0.68500  0.18560  0.95820  1.0000
  H   H7        1.0  0.18500  0.31440  0.45820  1.0000
  H   H8        1.0  0.31500  0.81440  0.04180  1.0000
  C   C17       1.0  0.84390  0.57090  0.45510  1.0000
  C   C18       1.0  0.65610  0.07090  0.04490  1.0000
  C   C19       1.0  0.15610  0.42910  0.54490  1.0000
  C   C20       1.0  0.34390  0.92910  0.95510  1.0000
  C   C21       1.0  0.91090  0.54590  0.37420  1.0000
  C   C22       1.0  0.58910  0.04590  0.12580  1.0000
  C   C23       1.0  0.08910  0.45410  0.62580  1.0000
  C   C24       1.0  0.41090  0.95410  0.87420  1.0000
  H   H9        1.0  0.89380  0.48280  0.34870  1.0000
  H   H10       1.0  0.60620  0.98280  0.15130  1.0000
  H   H11       1.0  0.10620  0.51720  0.65130  1.0000
  H   H12       1.0  0.39380  0.01720  0.84870  1.0000
  C   C25       1.0  0.75840  0.49760  0.50970  1.0000
  C   C26       1.0  0.74160  0.99760  0.99030  1.0000
  C   C27       1.0  0.24160  0.50240  0.49030  1.0000
  C   C28       1.0  0.25840  0.00240  0.00970  1.0000
  H   H13       1.0  0.82750  0.45860  0.54660  1.0000
  H   H14       1.0  0.67250  0.95860  0.95340  1.0000
  H   H15       1.0  0.17250  0.54140  0.45340  1.0000
  H   H16       1.0  0.32750  0.04140  0.04660  1.0000
  H   H17       1.0  0.69620  0.53440  0.55250  1.0000
  H   H18       1.0  0.80380  0.03440  0.94750  1.0000
  H   H19       1.0  0.30380  0.46560  0.44750  1.0000
  H   H20       1.0  0.19620  0.96560  0.05250  1.0000
  C   C29       1.0  0.66420  0.42780  0.45720  1.0000
  C   C30       1.0  0.83580  0.92780  0.04280  1.0000
  C   C31       1.0  0.33580  0.57220  0.54280  1.0000
  C   C32       1.0  0.16420  0.07220  0.95720  1.0000
  C   C33       1.0  0.64340  0.33300  0.48960  1.0000
  C   C34       1.0  0.85660  0.83300  0.01040  1.0000
  C   C35       1.0  0.35660  0.66700  0.51040  1.0000
  C   C36       1.0  0.14340  0.16700  0.98960  1.0000
  H   H21       1.0  0.69690  0.31120  0.54110  1.0000
  H   H22       1.0  0.80310  0.81120  0.95890  1.0000
  H   H23       1.0  0.30310  0.68880  0.45890  1.0000
  H   H24       1.0  0.19690  0.18880  0.04110  1.0000
  C   C37       1.0  0.54510  0.26930  0.44760  1.0000
  C   C38       1.0  0.95490  0.76930  0.05240  1.0000
  C   C39       1.0  0.45490  0.73070  0.55240  1.0000
  C   C40       1.0  0.04510  0.23070  0.94760  1.0000
  C   C41       1.0  0.46800  0.30070  0.37160  1.0000
  C   C42       1.0  0.03200  0.80070  0.12840  1.0000
  C   C43       1.0  0.53200  0.69930  0.62840  1.0000
  C   C44       1.0  0.96800  0.19930  0.87160  1.0000
  H   H25       1.0  0.39830  0.25890  0.34390  1.0000
  H   H26       1.0  0.10170  0.75890  0.15610  1.0000
  H   H27       1.0  0.60170  0.74110  0.65610  1.0000
  H   H28       1.0  0.89830  0.24110  0.84390  1.0000
  C   C45       1.0  0.49370  0.39420  0.33630  1.0000
  C   C46       1.0  0.00630  0.89420  0.16370  1.0000
  C   C47       1.0  0.50630  0.60580  0.66370  1.0000
  C   C48       1.0  0.99370  0.10580  0.83630  1.0000
  C   C49       1.0  0.59080  0.45680  0.37930  1.0000
  C   C50       1.0  0.90920  0.95680  0.12070  1.0000
  C   C51       1.0  0.40920  0.54320  0.62070  1.0000
  C   C52       1.0  0.09080  0.04320  0.87930  1.0000
  H   H29       1.0  0.60720  0.52050  0.35510  1.0000
  H   H30       1.0  0.89280  0.02050  0.14490  1.0000
  H   H31       1.0  0.39280  0.47950  0.64490  1.0000
  H   H32       1.0  0.10720  0.97950  0.85510  1.0000
  C   C53       1.0  0.08090  0.57520  0.24610  1.0000
  C   C54       1.0  0.41910  0.07520  0.25390  1.0000
  C   C55       1.0  0.91910  0.42480  0.75390  1.0000
  C   C56       1.0  0.58090  0.92480  0.74610  1.0000
  C   C57       1.0  0.97390  0.83330  0.48500  1.0000
  C   C58       1.0  0.52610  0.33330  0.01500  1.0000
  C   C59       1.0  0.02610  0.16670  0.51500  1.0000
  C   C60       1.0  0.47390  0.66670  0.98500  1.0000
  C   C61       1.0  0.52570  0.16670  0.48670  1.0000
  C   C62       1.0  0.97430  0.66670  0.01330  1.0000
  C   C63       1.0  0.47430  0.83330  0.51330  1.0000
  C   C64       1.0  0.02570  0.33330  0.98670  1.0000
  C   C65       1.0  0.41420  0.43200  0.25340  1.0000
  C   C66       1.0  0.08580  0.93200  0.24660  1.0000
  C   C67       1.0  0.58580  0.56800  0.74660  1.0000
  C   C68       1.0  0.91420  0.06800  0.75340  1.0000
  O   O1        1.0  0.02490  0.50770  0.19940  1.0000
  O   O2        1.0  0.47510  0.00770  0.30060  1.0000
  O   O3        1.0  0.97510  0.49230  0.80060  1.0000
  O   O4        1.0  0.52490  0.99230  0.69940  1.0000
  O   O5        1.0  0.20270  0.61250  0.22810  1.0000
  O   O6        1.0  0.29730  0.11250  0.27190  1.0000
  O   O7        1.0  0.79730  0.38750  0.77190  1.0000
  O   O8        1.0  0.70270  0.88750  0.72810  1.0000
  O   O9        1.0  0.06120  0.89040  0.44870  1.0000
  O   O10       1.0  0.43880  0.39040  0.05130  1.0000
  O   O11       1.0  0.93880  0.10960  0.55130  1.0000
  O   O12       1.0  0.56120  0.60960  0.94870  1.0000
  O   O13       1.0  0.89960  0.85520  0.55380  1.0000
  O   O14       1.0  0.60040  0.35520  0.94620  1.0000
  O   O15       1.0  0.10040  0.14480  0.44620  1.0000
  O   O16       1.0  0.39960  0.64480  0.05380  1.0000
  O   O17       1.0  0.61780  0.13890  0.54380  1.0000
  O   O18       1.0  0.88220  0.63890  0.95620  1.0000
  O   O19       1.0  0.38220  0.86110  0.45620  1.0000
  O   O20       1.0  0.11780  0.36110  0.04380  1.0000
  O   O21       1.0  0.42220  0.11830  0.45940  1.0000
  O   O22       1.0  0.07780  0.61830  0.04060  1.0000
  O   O23       1.0  0.57780  0.88170  0.54060  1.0000
  O   O24       1.0  0.92220  0.38170  0.95940  1.0000
  O   O25       1.0  0.29490  0.39430  0.23240  1.0000
  O   O26       1.0  0.20510  0.89430  0.26760  1.0000
  O   O27       1.0  0.70510  0.60570  0.76760  1.0000
  O   O28       1.0  0.79490  0.10570  0.73240  1.0000
  O   O29       1.0  0.47130  0.50160  0.20770  1.0000
  O   O30       1.0  0.02870  0.00160  0.29230  1.0000
  O   O31       1.0  0.52870  0.49840  0.79230  1.0000
  O   O32       1.0  0.97130  0.99840  0.70770  1.0000
  O   O33       1.0  0.25770  0.50500  0.91440  1.0000
  O   O34       1.0  0.24230  0.00500  0.58560  1.0000
  O   O35       1.0  0.74230  0.49500  0.08560  1.0000
  O   O36       1.0  0.75770  0.99500  0.41440  1.0000
  H   H33       1.0  0.33600  0.49400  0.88100  1.0000
  H   H34       1.0  0.16400  0.99400  0.61900  1.0000
  H   H35       1.0  0.66400  0.50600  0.11900  1.0000
  H   H36       1.0  0.83600  0.00600  0.38100  1.0000
  H   H37       1.0  0.17500  0.49400  0.88500  1.0000
  H   H38       1.0  0.32500  0.99400  0.61500  1.0000
  H   H39       1.0  0.82500  0.50600  0.11500  1.0000
  H   H40       1.0  0.67500  0.00600  0.38500  1.0000
