data_image0
_chemical_formula_structural       Eu4C8H4C8H4C8H4C12H4C8H4C8H4C16O36H16
_chemical_formula_sum              "Eu4 C68 H40 O36"
_cell_length_a       9.239
_cell_length_b       13.5278
_cell_length_c       14.6379
_cell_angle_alpha    90
_cell_angle_beta     90.354
_cell_angle_gamma    90

_space_group_name_H-M_alt    "P 1"
_space_group_IT_number       1

loop_
  _space_group_symop_operation_xyz
  'x, y, z'

loop_
  _atom_site_type_symbol
  _atom_site_label
  _atom_site_symmetry_multiplicity
  _atom_site_fract_x
  _atom_site_fract_y
  _atom_site_fract_z
  _atom_site_occupancy
  Eu  Eu1       1.0  0.75117  0.50309  0.59265  1.0000
  Eu  Eu2       1.0  0.74883  0.00310  0.90735  1.0000
  Eu  Eu3       1.0  0.24883  0.49691  0.40735  1.0000
  Eu  Eu4       1.0  0.25117  0.99691  0.09265  1.0000
  C   C1        1.0  0.99170  0.39460  0.83610  1.0000
  C   C2        1.0  0.50830  0.89460  0.66390  1.0000
  C   C3        1.0  0.00830  0.60540  0.16390  1.0000
  C   C4        1.0  0.49170  0.10540  0.33610  1.0000
  C   C5        1.0  0.96400  0.30060  0.87150  1.0000
  C   C6        1.0  0.53600  0.80060  0.62850  1.0000
  C   C7        1.0  0.03600  0.69940  0.12850  1.0000
  C   C8        1.0  0.46400  0.19940  0.37150  1.0000
  H   H1        1.0  0.89230  0.25940  0.84440  1.0000
  H   H2        1.0  0.60770  0.75940  0.65560  1.0000
  H   H3        1.0  0.10770  0.74060  0.15560  1.0000
  H   H4        1.0  0.39230  0.24060  0.34440  1.0000
  C   C9        1.0  0.04360  0.26780  0.94780  1.0000
  C   C10       1.0  0.45640  0.76780  0.55220  1.0000
  C   C11       1.0  0.95640  0.73220  0.05220  1.0000
  C   C12       1.0  0.54360  0.23220  0.44780  1.0000
  C   C13       1.0  0.14400  0.33210  0.98900  1.0000
  C   C14       1.0  0.35600  0.83210  0.51100  1.0000
  C   C15       1.0  0.85600  0.66790  0.01100  1.0000
  C   C16       1.0  0.64400  0.16790  0.48900  1.0000
  H   H5        1.0  0.19920  0.30960  0.03990  1.0000
  H   H6        1.0  0.30080  0.80960  0.46010  1.0000
  H   H7        1.0  0.80080  0.69040  0.96010  1.0000
  H   H8        1.0  0.69920  0.19040  0.53990  1.0000
  C   C17       1.0  0.16450  0.42770  0.95730  1.0000
  C   C18       1.0  0.33550  0.92770  0.54270  1.0000
  C   C19       1.0  0.83550  0.57230  0.04270  1.0000
  C   C20       1.0  0.66450  0.07230  0.45730  1.0000
  C   C21       1.0  0.09110  0.45680  0.87890  1.0000
  C   C22       1.0  0.40890  0.95680  0.62110  1.0000
  C   C23       1.0  0.90890  0.54320  0.12110  1.0000
  C   C24       1.0  0.59110  0.04320  0.37890  1.0000
  H   H9        1.0  0.10910  0.52040  0.85390  1.0000
  H   H10       1.0  0.39090  0.02040  0.64610  1.0000
  H   H11       1.0  0.89090  0.47960  0.14610  1.0000
  H   H12       1.0  0.60910  0.97960  0.35390  1.0000
  C   C25       1.0  0.26180  0.49680  0.00870  1.0000
  C   C26       1.0  0.23820  0.99680  0.49130  1.0000
  C   C27       1.0  0.73820  0.50320  0.99130  1.0000
  C   C28       1.0  0.76180  0.00320  0.50870  1.0000
  C   C29       1.0  0.34550  0.57140  0.95430  1.0000
  C   C30       1.0  0.15450  0.07140  0.54570  1.0000
  C   C31       1.0  0.65450  0.42860  0.04570  1.0000
  C   C32       1.0  0.84550  0.92860  0.45430  1.0000
  C   C33       1.0  0.36580  0.66650  0.98750  1.0000
  C   C34       1.0  0.13420  0.16650  0.51250  1.0000
  C   C35       1.0  0.63420  0.33350  0.01250  1.0000
  C   C36       1.0  0.86580  0.83350  0.48750  1.0000
  H   H13       1.0  0.31690  0.68610  0.04140  1.0000
  H   H14       1.0  0.18310  0.18610  0.45860  1.0000
  H   H15       1.0  0.68310  0.31390  0.95860  1.0000
  H   H16       1.0  0.81690  0.81390  0.54140  1.0000
  C   C37       1.0  0.45570  0.73380  0.94410  1.0000
  C   C38       1.0  0.04430  0.23380  0.55590  1.0000
  C   C39       1.0  0.54430  0.26620  0.05590  1.0000
  C   C40       1.0  0.95570  0.76620  0.44410  1.0000
  C   C41       1.0  0.52710  0.70470  0.86460  1.0000
  C   C42       1.0  0.97290  0.20470  0.63540  1.0000
  C   C43       1.0  0.47290  0.29530  0.13540  1.0000
  C   C44       1.0  0.02710  0.79530  0.36460  1.0000
  H   H17       1.0  0.59220  0.74890  0.83560  1.0000
  H   H18       1.0  0.90780  0.24890  0.66440  1.0000
  H   H19       1.0  0.40780  0.25110  0.16440  1.0000
  H   H20       1.0  0.09220  0.75110  0.33560  1.0000
  C   C45       1.0  0.50330  0.61090  0.82780  1.0000
  C   C46       1.0  0.99670  0.11090  0.67220  1.0000
  C   C47       1.0  0.49670  0.38910  0.17220  1.0000
  C   C48       1.0  0.00330  0.88910  0.32780  1.0000
  C   C49       1.0  0.41090  0.54560  0.87260  1.0000
  C   C50       1.0  0.08910  0.04560  0.62740  1.0000
  C   C51       1.0  0.58910  0.45440  0.12740  1.0000
  C   C52       1.0  0.91090  0.95440  0.37260  1.0000
  H   H21       1.0  0.39240  0.48240  0.84670  1.0000
  H   H22       1.0  0.10760  0.98240  0.65330  1.0000
  H   H23       1.0  0.60760  0.51760  0.15330  1.0000
  H   H24       1.0  0.89240  0.01760  0.34670  1.0000
  C   C53       1.0  0.91280  0.43250  0.75260  1.0000
  C   C54       1.0  0.58720  0.93250  0.74740  1.0000
  C   C55       1.0  0.08720  0.56750  0.24740  1.0000
  C   C56       1.0  0.41280  0.06750  0.25260  1.0000
  C   C57       1.0  0.02350  0.16530  0.98620  1.0000
  C   C58       1.0  0.47650  0.66530  0.51380  1.0000
  C   C59       1.0  0.97650  0.83470  0.01380  1.0000
  C   C60       1.0  0.52350  0.33470  0.48620  1.0000
  C   C61       1.0  0.47520  0.83460  0.98420  1.0000
  C   C62       1.0  0.02480  0.33460  0.51580  1.0000
  C   C63       1.0  0.52480  0.16540  0.01580  1.0000
  C   C64       1.0  0.97520  0.66540  0.48420  1.0000
  C   C65       1.0  0.58290  0.57480  0.74450  1.0000
  C   C66       1.0  0.91710  0.07480  0.75550  1.0000
  C   C67       1.0  0.41710  0.42520  0.25550  1.0000
  C   C68       1.0  0.08290  0.92520  0.24450  1.0000
  O   O1        1.0  0.97060  0.50240  0.70730  1.0000
  O   O2        1.0  0.52940  0.00240  0.79270  1.0000
  O   O3        1.0  0.02940  0.49760  0.29270  1.0000
  O   O4        1.0  0.47060  0.99760  0.20730  1.0000
  O   O5        1.0  0.79310  0.39560  0.73060  1.0000
  O   O6        1.0  0.70690  0.89560  0.76940  1.0000
  O   O7        1.0  0.20690  0.60440  0.26940  1.0000
  O   O8        1.0  0.29310  0.10440  0.23060  1.0000
  O   O9        1.0  0.91650  0.11710  0.96210  1.0000
  O   O10       1.0  0.58350  0.61710  0.53790  1.0000
  O   O11       1.0  0.08350  0.88290  0.03790  1.0000
  O   O12       1.0  0.41650  0.38290  0.46210  1.0000
  O   O13       1.0  0.11910  0.13480  0.04020  1.0000
  O   O14       1.0  0.38090  0.63480  0.45980  1.0000
  O   O15       1.0  0.88090  0.86520  0.95980  1.0000
  O   O16       1.0  0.61910  0.36520  0.54020  1.0000
  O   O17       1.0  0.40060  0.85710  0.05390  1.0000
  O   O18       1.0  0.09940  0.35710  0.44610  1.0000
  O   O19       1.0  0.59940  0.14290  0.94610  1.0000
  O   O20       1.0  0.90060  0.64290  0.55390  1.0000
  O   O21       1.0  0.56400  0.89230  0.94880  1.0000
  O   O22       1.0  0.93600  0.39230  0.55120  1.0000
  O   O23       1.0  0.43600  0.10770  0.05120  1.0000
  O   O24       1.0  0.06400  0.60770  0.44880  1.0000
  O   O25       1.0  0.70510  0.61270  0.72630  1.0000
  O   O26       1.0  0.79490  0.11270  0.77370  1.0000
  O   O27       1.0  0.29490  0.38730  0.27370  1.0000
  O   O28       1.0  0.20510  0.88730  0.22630  1.0000
  O   O29       1.0  0.52560  0.50800  0.69590  1.0000
  O   O30       1.0  0.97440  0.00800  0.80410  1.0000
  O   O31       1.0  0.47440  0.49200  0.30410  1.0000
  O   O32       1.0  0.02560  0.99200  0.19590  1.0000
  O   O33       1.0  0.76090  0.50610  0.41560  1.0000
  O   O34       1.0  0.73910  0.00610  0.08440  1.0000
  O   O35       1.0  0.23910  0.49390  0.58440  1.0000
  O   O36       1.0  0.26090  0.99390  0.91560  1.0000
  H   H25       1.0  0.67500  0.50200  0.38700  1.0000
  H   H26       1.0  0.82500  0.00200  0.11300  1.0000
  H   H27       1.0  0.32500  0.49800  0.61300  1.0000
  H   H28       1.0  0.17500  0.99800  0.88700  1.0000
  H   H29       1.0  0.83000  0.51500  0.37500  1.0000
  H   H30       1.0  0.67000  0.01500  0.12500  1.0000
  H   H31       1.0  0.17000  0.48500  0.62500  1.0000
  H   H32       1.0  0.33000  0.98500  0.87500  1.0000
  H   H33       1.0  0.21000  0.53300  0.05500  1.0000
  H   H34       1.0  0.29000  0.03300  0.44500  1.0000
  H   H35       1.0  0.79000  0.46700  0.94500  1.0000
  H   H36       1.0  0.71000  0.96700  0.55500  1.0000
  H   H37       1.0  0.32600  0.45600  0.04500  1.0000
  H   H38       1.0  0.17400  0.95600  0.45500  1.0000
  H   H39       1.0  0.67400  0.54400  0.95500  1.0000
  H   H40       1.0  0.82600  0.04400  0.54500  1.0000
