data_image0
_chemical_formula_structural       Tb4C8H4C8H4C8H4C4H8C8H4C8H4C8H4C16O36H8
_chemical_formula_sum              "Tb4 C68 H40 O36"
_cell_length_a       9.2141
_cell_length_b       13.4695
_cell_length_c       14.5918
_cell_angle_alpha    90
_cell_angle_beta     90.356
_cell_angle_gamma    90

_space_group_name_H-M_alt    "P 1"
_space_group_IT_number       1

loop_
  _space_group_symop_operation_xyz
  'x, y, z'

loop_
  _atom_site_type_symbol
  _atom_site_label
  _atom_site_symmetry_multiplicity
  _atom_site_fract_x
  _atom_site_fract_y
  _atom_site_fract_z
  _atom_site_occupancy
  Tb  Tb1       1.0  0.25110  0.00298  0.09237  1.0000
  Tb  Tb2       1.0  0.24890  0.50298  0.40763  1.0000
  Tb  Tb3       1.0  0.74890  0.99702  0.90763  1.0000
  Tb  Tb4       1.0  0.75110  0.49702  0.59237  1.0000
  C   C1        1.0  0.00430  0.11130  0.32740  1.0000
  C   C2        1.0  0.49570  0.61130  0.17260  1.0000
  C   C3        1.0  0.99570  0.88870  0.67260  1.0000
  C   C4        1.0  0.50430  0.38870  0.82740  1.0000
  C   C5        1.0  0.02920  0.20500  0.36460  1.0000
  C   C6        1.0  0.47080  0.70500  0.13540  1.0000
  C   C7        1.0  0.97080  0.79500  0.63540  1.0000
  C   C8        1.0  0.52920  0.29500  0.86460  1.0000
  H   H1        1.0  0.09550  0.24910  0.33610  1.0000
  H   H2        1.0  0.40450  0.74910  0.16390  1.0000
  H   H3        1.0  0.90450  0.75090  0.66390  1.0000
  H   H4        1.0  0.59550  0.25090  0.83610  1.0000
  C   C9        1.0  0.95680  0.23410  0.44390  1.0000
  C   C10       1.0  0.54320  0.73410  0.05610  1.0000
  C   C11       1.0  0.04320  0.76590  0.55610  1.0000
  C   C12       1.0  0.45680  0.26590  0.94390  1.0000
  C   C13       1.0  0.86520  0.16710  0.48750  1.0000
  C   C14       1.0  0.63480  0.66710  0.01250  1.0000
  C   C15       1.0  0.13480  0.83290  0.51250  1.0000
  C   C16       1.0  0.36520  0.33290  0.98750  1.0000
  H   H5        1.0  0.81550  0.18700  0.54130  1.0000
  H   H6        1.0  0.68450  0.68700  0.95870  1.0000
  H   H7        1.0  0.18450  0.81300  0.45870  1.0000
  H   H8        1.0  0.31550  0.31300  0.04130  1.0000
  C   C17       1.0  0.84520  0.07140  0.45380  1.0000
  C   C18       1.0  0.65480  0.57140  0.04620  1.0000
  C   C19       1.0  0.15480  0.92860  0.54620  1.0000
  C   C20       1.0  0.34520  0.42860  0.95380  1.0000
  C   C21       1.0  0.91200  0.04540  0.37200  1.0000
  C   C22       1.0  0.58800  0.54540  0.12800  1.0000
  C   C23       1.0  0.08800  0.95460  0.62800  1.0000
  C   C24       1.0  0.41200  0.45460  0.87200  1.0000
  H   H9        1.0  0.89450  0.98180  0.34620  1.0000
  H   H10       1.0  0.60550  0.48180  0.15380  1.0000
  H   H11       1.0  0.10550  0.01820  0.65380  1.0000
  H   H12       1.0  0.39450  0.51820  0.84620  1.0000
  C   C25       1.0  0.76110  0.99710  0.50960  1.0000
  C   C26       1.0  0.73890  0.49710  0.99040  1.0000
  C   C27       1.0  0.23890  0.00290  0.49040  1.0000
  C   C28       1.0  0.26110  0.50290  0.00960  1.0000
  H   H13       1.0  0.70300  0.03100  0.55600  1.0000
  H   H14       1.0  0.79700  0.53100  0.94400  1.0000
  H   H15       1.0  0.29700  0.96900  0.44400  1.0000
  H   H16       1.0  0.20300  0.46900  0.05600  1.0000
  H   H17       1.0  0.82900  0.95300  0.54600  1.0000
  H   H18       1.0  0.67100  0.45300  0.95400  1.0000
  H   H19       1.0  0.17100  0.04700  0.45400  1.0000
  H   H20       1.0  0.32900  0.54700  0.04600  1.0000
  C   C29       1.0  0.66380  0.92730  0.45720  1.0000
  C   C30       1.0  0.83620  0.42730  0.04280  1.0000
  C   C31       1.0  0.33620  0.07270  0.54280  1.0000
  C   C32       1.0  0.16380  0.57270  0.95720  1.0000
  C   C33       1.0  0.58970  0.95660  0.37860  1.0000
  C   C34       1.0  0.91030  0.45660  0.12140  1.0000
  C   C35       1.0  0.41030  0.04340  0.62140  1.0000
  C   C36       1.0  0.08970  0.54340  0.87860  1.0000
  H   H21       1.0  0.60700  0.02080  0.35390  1.0000
  H   H22       1.0  0.89300  0.52080  0.14610  1.0000
  H   H23       1.0  0.39300  0.97920  0.64610  1.0000
  H   H24       1.0  0.10700  0.47920  0.85390  1.0000
  C   C37       1.0  0.49090  0.89430  0.33540  1.0000
  C   C38       1.0  0.00910  0.39430  0.16460  1.0000
  C   C39       1.0  0.50910  0.10570  0.66460  1.0000
  C   C40       1.0  0.99090  0.60570  0.83540  1.0000
  C   C41       1.0  0.46380  0.80020  0.37150  1.0000
  C   C42       1.0  0.03620  0.30020  0.12850  1.0000
  C   C43       1.0  0.53620  0.19980  0.62850  1.0000
  C   C44       1.0  0.96380  0.69980  0.87150  1.0000
  H   H25       1.0  0.39210  0.75870  0.34440  1.0000
  H   H26       1.0  0.10790  0.25870  0.15560  1.0000
  H   H27       1.0  0.60790  0.24130  0.65560  1.0000
  H   H28       1.0  0.89210  0.74130  0.84440  1.0000
  C   C45       1.0  0.54270  0.76740  0.44770  1.0000
  C   C46       1.0  0.95730  0.26740  0.05230  1.0000
  C   C47       1.0  0.45730  0.23260  0.55230  1.0000
  C   C48       1.0  0.04270  0.73260  0.94770  1.0000
  C   C49       1.0  0.64260  0.83130  0.48900  1.0000
  C   C50       1.0  0.85740  0.33130  0.01100  1.0000
  C   C51       1.0  0.35740  0.16870  0.51100  1.0000
  C   C52       1.0  0.14260  0.66870  0.98900  1.0000
  H   H29       1.0  0.69750  0.80860  0.54020  1.0000
  H   H30       1.0  0.80250  0.30860  0.95980  1.0000
  H   H31       1.0  0.30250  0.19140  0.45980  1.0000
  H   H32       1.0  0.19750  0.69140  0.04020  1.0000
  C   C53       1.0  0.08360  0.07480  0.24370  1.0000
  C   C54       1.0  0.41640  0.57480  0.25630  1.0000
  C   C55       1.0  0.91640  0.92520  0.75630  1.0000
  C   C56       1.0  0.58360  0.42520  0.74370  1.0000
  C   C57       1.0  0.97630  0.33650  0.48410  1.0000
  C   C58       1.0  0.52370  0.83650  0.01590  1.0000
  C   C59       1.0  0.02370  0.66350  0.51590  1.0000
  C   C60       1.0  0.47630  0.16350  0.98410  1.0000
  C   C61       1.0  0.41190  0.93240  0.25210  1.0000
  C   C62       1.0  0.08810  0.43240  0.24790  1.0000
  C   C63       1.0  0.58810  0.06760  0.74790  1.0000
  C   C64       1.0  0.91190  0.56760  0.75210  1.0000
  C   C65       1.0  0.52380  0.66400  0.48620  1.0000
  C   C66       1.0  0.97620  0.16400  0.01380  1.0000
  C   C67       1.0  0.47620  0.33600  0.51380  1.0000
  C   C68       1.0  0.02380  0.83600  0.98620  1.0000
  O   O1        1.0  0.02670  0.00737  0.19556  1.0000
  O   O2        1.0  0.47330  0.50737  0.30444  1.0000
  O   O3        1.0  0.97330  0.99263  0.80444  1.0000
  O   O4        1.0  0.52670  0.49263  0.69556  1.0000
  O   O5        1.0  0.20580  0.11211  0.22516  1.0000
  O   O6        1.0  0.29420  0.61211  0.27484  1.0000
  O   O7        1.0  0.79420  0.88789  0.77484  1.0000
  O   O8        1.0  0.70580  0.38789  0.72516  1.0000
  O   O9        1.0  0.06700  0.39286  0.44940  1.0000
  O   O10       1.0  0.43300  0.89286  0.05060  1.0000
  O   O11       1.0  0.93300  0.60714  0.55060  1.0000
  O   O12       1.0  0.56700  0.10714  0.94940  1.0000
  O   O13       1.0  0.89930  0.35902  0.55300  1.0000
  O   O14       1.0  0.60070  0.85902  0.94700  1.0000
  O   O15       1.0  0.10070  0.64098  0.44700  1.0000
  O   O16       1.0  0.39930  0.14098  0.05300  1.0000
  O   O17       1.0  0.47030  0.00236  0.20602  1.0000
  O   O18       1.0  0.02970  0.50236  0.29398  1.0000
  O   O19       1.0  0.52970  0.99764  0.79398  1.0000
  O   O20       1.0  0.97030  0.49764  0.70602  1.0000
  O   O21       1.0  0.29210  0.89564  0.22957  1.0000
  O   O22       1.0  0.20790  0.39564  0.27043  1.0000
  O   O23       1.0  0.70790  0.10436  0.77043  1.0000
  O   O24       1.0  0.79210  0.60436  0.72957  1.0000
  O   O25       1.0  0.41540  0.61569  0.46185  1.0000
  O   O26       1.0  0.08460  0.11569  0.03815  1.0000
  O   O27       1.0  0.58460  0.38431  0.53815  1.0000
  O   O28       1.0  0.91540  0.88431  0.96185  1.0000
  O   O29       1.0  0.61980  0.63330  0.54071  1.0000
  O   O30       1.0  0.88020  0.13330  0.95929  1.0000
  O   O31       1.0  0.38020  0.36670  0.45929  1.0000
  O   O32       1.0  0.11980  0.86670  0.04071  1.0000
  O   O33       1.0  0.26100  0.00580  0.91617  1.0000
  O   O34       1.0  0.23900  0.50580  0.58383  1.0000
  O   O35       1.0  0.73900  0.99420  0.08383  1.0000
  O   O36       1.0  0.76100  0.49420  0.41617  1.0000
  H   H33       1.0  0.18700  0.00400  0.88400  1.0000
  H   H34       1.0  0.31300  0.50400  0.61600  1.0000
  H   H35       1.0  0.81300  0.99600  0.11600  1.0000
  H   H36       1.0  0.68700  0.49600  0.38400  1.0000
  H   H37       1.0  0.32700  0.01300  0.88000  1.0000
  H   H38       1.0  0.17300  0.51300  0.62000  1.0000
  H   H39       1.0  0.67300  0.98700  0.12000  1.0000
  H   H40       1.0  0.82700  0.48700  0.38000  1.0000
