data_image0
_chemical_formula_structural       Yb8C16H8C16H8C16H8C8H16C16H8C16H8C16H8C32O72H16
_chemical_formula_sum              "Yb8 C136 H80 O72"
_cell_length_a       15.6733
_cell_length_b       10.7028
_cell_length_c       23.2631
_cell_angle_alpha    90
_cell_angle_beta     90
_cell_angle_gamma    90

_space_group_name_H-M_alt    "P 1"
_space_group_IT_number       1

loop_
  _space_group_symop_operation_xyz
  'x, y, z'

loop_
  _atom_site_type_symbol
  _atom_site_label
  _atom_site_symmetry_multiplicity
  _atom_site_fract_x
  _atom_site_fract_y
  _atom_site_fract_z
  _atom_site_occupancy
  Yb  Yb1       1.0  0.95189  0.03048  0.08434  1.0000
  Yb  Yb2       1.0  0.54811  0.46952  0.58434  1.0000
  Yb  Yb3       1.0  0.04811  0.03048  0.41566  1.0000
  Yb  Yb4       1.0  0.45189  0.46952  0.91566  1.0000
  Yb  Yb5       1.0  0.04811  0.96952  0.91566  1.0000
  Yb  Yb6       1.0  0.45189  0.53048  0.41566  1.0000
  Yb  Yb7       1.0  0.95189  0.96952  0.58434  1.0000
  Yb  Yb8       1.0  0.54811  0.53048  0.08434  1.0000
  C   C1        1.0  0.09356  0.24980  0.20281  1.0000
  C   C2        1.0  0.40644  0.25020  0.70281  1.0000
  C   C3        1.0  0.90644  0.24980  0.29719  1.0000
  C   C4        1.0  0.59356  0.25020  0.79719  1.0000
  C   C5        1.0  0.90644  0.75020  0.79719  1.0000
  C   C6        1.0  0.59356  0.74980  0.29719  1.0000
  C   C7        1.0  0.09356  0.75020  0.70281  1.0000
  C   C8        1.0  0.40644  0.74980  0.20281  1.0000
  C   C9        1.0  0.11692  0.20220  0.25598  1.0000
  C   C10       1.0  0.38308  0.29780  0.75598  1.0000
  C   C11       1.0  0.88308  0.20220  0.24402  1.0000
  C   C12       1.0  0.61692  0.29780  0.74402  1.0000
  C   C13       1.0  0.88308  0.79780  0.74402  1.0000
  C   C14       1.0  0.61692  0.70220  0.24402  1.0000
  C   C15       1.0  0.11692  0.79780  0.75598  1.0000
  C   C16       1.0  0.38308  0.70220  0.25598  1.0000
  H   H1        1.0  0.09940  0.12060  0.26700  1.0000
  H   H2        1.0  0.40060  0.37940  0.76700  1.0000
  H   H3        1.0  0.90060  0.12060  0.23300  1.0000
  H   H4        1.0  0.59940  0.37940  0.73300  1.0000
  H   H5        1.0  0.90060  0.87940  0.73300  1.0000
  H   H6        1.0  0.59940  0.62060  0.23300  1.0000
  H   H7        1.0  0.09940  0.87940  0.76700  1.0000
  H   H8        1.0  0.40060  0.62060  0.26700  1.0000
  C   C17       1.0  0.16623  0.27440  0.29340  1.0000
  C   C18       1.0  0.33377  0.22560  0.79340  1.0000
  C   C19       1.0  0.83377  0.27440  0.20660  1.0000
  C   C20       1.0  0.66623  0.22560  0.70660  1.0000
  C   C21       1.0  0.83377  0.72560  0.70660  1.0000
  C   C22       1.0  0.66623  0.77440  0.20660  1.0000
  C   C23       1.0  0.16623  0.72560  0.79340  1.0000
  C   C24       1.0  0.33377  0.77440  0.29340  1.0000
  C   C25       1.0  0.19227  0.39370  0.27624  1.0000
  C   C26       1.0  0.30773  0.10630  0.77624  1.0000
  C   C27       1.0  0.80773  0.39370  0.22376  1.0000
  C   C28       1.0  0.69227  0.10630  0.72376  1.0000
  C   C29       1.0  0.80773  0.60630  0.72376  1.0000
  C   C30       1.0  0.69227  0.89370  0.22376  1.0000
  C   C31       1.0  0.19227  0.60630  0.77624  1.0000
  C   C32       1.0  0.30773  0.89370  0.27624  1.0000
  H   H9        1.0  0.22810  0.44130  0.30080  1.0000
  H   H10       1.0  0.27190  0.05870  0.80080  1.0000
  H   H11       1.0  0.77190  0.44130  0.19920  1.0000
  H   H12       1.0  0.72810  0.05870  0.69920  1.0000
  H   H13       1.0  0.77190  0.55870  0.69920  1.0000
  H   H14       1.0  0.72810  0.94130  0.19920  1.0000
  H   H15       1.0  0.22810  0.55870  0.80080  1.0000
  H   H16       1.0  0.27190  0.94130  0.30080  1.0000
  C   C33       1.0  0.16660  0.44400  0.22374  1.0000
  C   C34       1.0  0.33340  0.05600  0.72374  1.0000
  C   C35       1.0  0.83340  0.44400  0.27626  1.0000
  C   C36       1.0  0.66660  0.05600  0.77626  1.0000
  C   C37       1.0  0.83340  0.55600  0.77626  1.0000
  C   C38       1.0  0.66660  0.94400  0.27626  1.0000
  C   C39       1.0  0.16660  0.55600  0.72374  1.0000
  C   C40       1.0  0.33340  0.94400  0.22374  1.0000
  C   C41       1.0  0.11707  0.37130  0.18740  1.0000
  C   C42       1.0  0.38293  0.12870  0.68740  1.0000
  C   C43       1.0  0.88293  0.37130  0.31260  1.0000
  C   C44       1.0  0.61707  0.12870  0.81260  1.0000
  C   C45       1.0  0.88293  0.62870  0.81260  1.0000
  C   C46       1.0  0.61707  0.87130  0.31260  1.0000
  C   C47       1.0  0.11707  0.62870  0.68740  1.0000
  C   C48       1.0  0.38293  0.87130  0.18740  1.0000
  H   H17       1.0  0.09890  0.40440  0.15160  1.0000
  H   H18       1.0  0.40110  0.09560  0.65160  1.0000
  H   H19       1.0  0.90110  0.40440  0.34840  1.0000
  H   H20       1.0  0.59890  0.09560  0.84840  1.0000
  H   H21       1.0  0.90110  0.59560  0.84840  1.0000
  H   H22       1.0  0.59890  0.90440  0.34840  1.0000
  H   H23       1.0  0.09890  0.59560  0.65160  1.0000
  H   H24       1.0  0.40110  0.90440  0.15160  1.0000
  C   C49       1.0  0.18960  0.57810  0.20925  1.0000
  C   C50       1.0  0.31040  0.92190  0.70925  1.0000
  C   C51       1.0  0.81040  0.57810  0.29075  1.0000
  C   C52       1.0  0.68960  0.92190  0.79075  1.0000
  C   C53       1.0  0.81040  0.42190  0.79075  1.0000
  C   C54       1.0  0.68960  0.07810  0.29075  1.0000
  C   C55       1.0  0.18960  0.42190  0.70925  1.0000
  C   C56       1.0  0.31040  0.07810  0.20925  1.0000
  H   H25       1.0  0.14730  0.63380  0.22770  1.0000
  H   H26       1.0  0.35270  0.86620  0.72770  1.0000
  H   H27       1.0  0.85270  0.63380  0.27230  1.0000
  H   H28       1.0  0.64730  0.86620  0.77230  1.0000
  H   H29       1.0  0.85270  0.36620  0.77230  1.0000
  H   H30       1.0  0.64730  0.13380  0.27230  1.0000
  H   H31       1.0  0.14730  0.36620  0.72770  1.0000
  H   H32       1.0  0.35270  0.13380  0.22770  1.0000
  H   H33       1.0  0.24590  0.59690  0.22660  1.0000
  H   H34       1.0  0.25410  0.90310  0.72660  1.0000
  H   H35       1.0  0.75410  0.59690  0.27340  1.0000
  H   H36       1.0  0.74590  0.90310  0.77340  1.0000
  H   H37       1.0  0.75410  0.40310  0.77340  1.0000
  H   H38       1.0  0.74590  0.09690  0.27340  1.0000
  H   H39       1.0  0.24590  0.40310  0.72660  1.0000
  H   H40       1.0  0.25410  0.09690  0.22660  1.0000
  C   C57       1.0  0.19361  0.61000  0.14593  1.0000
  C   C58       1.0  0.30639  0.89000  0.64593  1.0000
  C   C59       1.0  0.80639  0.61000  0.35407  1.0000
  C   C60       1.0  0.69361  0.89000  0.85407  1.0000
  C   C61       1.0  0.80639  0.39000  0.85407  1.0000
  C   C62       1.0  0.69361  0.11000  0.35407  1.0000
  C   C63       1.0  0.19361  0.39000  0.64593  1.0000
  C   C64       1.0  0.30639  0.11000  0.14593  1.0000
  C   C65       1.0  0.26393  0.57320  0.11280  1.0000
  C   C66       1.0  0.23607  0.92680  0.61280  1.0000
  C   C67       1.0  0.73607  0.57320  0.38720  1.0000
  C   C68       1.0  0.76393  0.92680  0.88720  1.0000
  C   C69       1.0  0.73607  0.42680  0.88720  1.0000
  C   C70       1.0  0.76393  0.07320  0.38720  1.0000
  C   C71       1.0  0.26393  0.42680  0.61280  1.0000
  C   C72       1.0  0.23607  0.07320  0.11280  1.0000
  H   H41       1.0  0.30870  0.52690  0.13020  1.0000
  H   H42       1.0  0.19130  0.97310  0.63020  1.0000
  H   H43       1.0  0.69130  0.52690  0.36980  1.0000
  H   H44       1.0  0.80870  0.97310  0.86980  1.0000
  H   H45       1.0  0.69130  0.47310  0.86980  1.0000
  H   H46       1.0  0.80870  0.02690  0.36980  1.0000
  H   H47       1.0  0.30870  0.47310  0.63020  1.0000
  H   H48       1.0  0.19130  0.02690  0.13020  1.0000
  C   C73       1.0  0.26902  0.60330  0.05481  1.0000
  C   C74       1.0  0.23098  0.89670  0.55481  1.0000
  C   C75       1.0  0.73098  0.60330  0.44519  1.0000
  C   C76       1.0  0.76902  0.89670  0.94519  1.0000
  C   C77       1.0  0.73098  0.39670  0.94519  1.0000
  C   C78       1.0  0.76902  0.10330  0.44519  1.0000
  C   C79       1.0  0.26902  0.39670  0.55481  1.0000
  C   C80       1.0  0.23098  0.10330  0.05481  1.0000
  C   C81       1.0  0.20360  0.67130  0.02914  1.0000
  C   C82       1.0  0.29640  0.82870  0.52914  1.0000
  C   C83       1.0  0.79640  0.67130  0.47086  1.0000
  C   C84       1.0  0.70360  0.82870  0.97086  1.0000
  C   C85       1.0  0.79640  0.32870  0.97086  1.0000
  C   C86       1.0  0.70360  0.17130  0.47086  1.0000
  C   C87       1.0  0.20360  0.32870  0.52914  1.0000
  C   C88       1.0  0.29640  0.17130  0.02914  1.0000
  H   H49       1.0  0.20600  0.68980  0.98920  1.0000
  H   H50       1.0  0.29400  0.81020  0.48920  1.0000
  H   H51       1.0  0.79400  0.68980  0.51080  1.0000
  H   H52       1.0  0.70600  0.81020  0.01080  1.0000
  H   H53       1.0  0.79400  0.31020  0.01080  1.0000
  H   H54       1.0  0.70600  0.18980  0.51080  1.0000
  H   H55       1.0  0.20600  0.31020  0.48920  1.0000
  H   H56       1.0  0.29400  0.18980  0.98920  1.0000
  C   C89       1.0  0.13464  0.71240  0.06186  1.0000
  C   C90       1.0  0.36536  0.78760  0.56186  1.0000
  C   C91       1.0  0.86536  0.71240  0.43814  1.0000
  C   C92       1.0  0.63464  0.78760  0.93814  1.0000
  C   C93       1.0  0.86536  0.28760  0.93814  1.0000
  C   C94       1.0  0.63464  0.21240  0.43814  1.0000
  C   C95       1.0  0.13464  0.28760  0.56186  1.0000
  C   C96       1.0  0.36536  0.21240  0.06186  1.0000
  C   C97       1.0  0.13053  0.68090  0.11979  1.0000
  C   C98       1.0  0.36947  0.81910  0.61979  1.0000
  C   C99       1.0  0.86947  0.68090  0.38021  1.0000
  C   C100      1.0  0.63053  0.81910  0.88021  1.0000
  C   C101      1.0  0.86947  0.31910  0.88021  1.0000
  C   C102      1.0  0.63053  0.18090  0.38021  1.0000
  C   C103      1.0  0.13053  0.31910  0.61979  1.0000
  C   C104      1.0  0.36947  0.18090  0.11979  1.0000
  H   H57       1.0  0.08330  0.70860  0.14200  1.0000
  H   H58       1.0  0.41670  0.79140  0.64200  1.0000
  H   H59       1.0  0.91670  0.70860  0.35800  1.0000
  H   H60       1.0  0.58330  0.79140  0.85800  1.0000
  H   H61       1.0  0.91670  0.29140  0.85800  1.0000
  H   H62       1.0  0.58330  0.20860  0.35800  1.0000
  H   H63       1.0  0.08330  0.29140  0.64200  1.0000
  H   H64       1.0  0.41670  0.20860  0.14200  1.0000
  C   C105      1.0  0.04249  0.17410  0.16149  1.0000
  C   C106      1.0  0.45751  0.32590  0.66149  1.0000
  C   C107      1.0  0.95751  0.17410  0.33851  1.0000
  C   C108      1.0  0.54249  0.32590  0.83851  1.0000
  C   C109      1.0  0.95751  0.82590  0.83851  1.0000
  C   C110      1.0  0.54249  0.67410  0.33851  1.0000
  C   C111      1.0  0.04249  0.82590  0.66149  1.0000
  C   C112      1.0  0.45751  0.67410  0.16149  1.0000
  C   C113      1.0  0.19254  0.22170  0.35098  1.0000
  C   C114      1.0  0.30746  0.27830  0.85098  1.0000
  C   C115      1.0  0.80746  0.22170  0.14902  1.0000
  C   C116      1.0  0.69254  0.27830  0.64902  1.0000
  C   C117      1.0  0.80746  0.77830  0.64902  1.0000
  C   C118      1.0  0.69254  0.72170  0.14902  1.0000
  C   C119      1.0  0.19254  0.77830  0.85098  1.0000
  C   C120      1.0  0.30746  0.72170  0.35098  1.0000
  C   C121      1.0  0.34528  0.56750  0.01936  1.0000
  C   C122      1.0  0.15472  0.93250  0.51936  1.0000
  C   C123      1.0  0.65472  0.56750  0.48064  1.0000
  C   C124      1.0  0.84528  0.93250  0.98064  1.0000
  C   C125      1.0  0.65472  0.43250  0.98064  1.0000
  C   C126      1.0  0.84528  0.06750  0.48064  1.0000
  C   C127      1.0  0.34528  0.43250  0.51936  1.0000
  C   C128      1.0  0.15472  0.06750  0.01936  1.0000
  C   C129      1.0  0.06924  0.79630  0.03468  1.0000
  C   C130      1.0  0.43076  0.70370  0.53468  1.0000
  C   C131      1.0  0.93076  0.79630  0.46532  1.0000
  C   C132      1.0  0.56924  0.70370  0.96532  1.0000
  C   C133      1.0  0.93076  0.20370  0.96532  1.0000
  C   C134      1.0  0.56924  0.29630  0.46532  1.0000
  C   C135      1.0  0.06924  0.20370  0.53468  1.0000
  C   C136      1.0  0.43076  0.29630  0.03468  1.0000
  O   O1        1.0  0.00803  0.22655  0.11944  1.0000
  O   O2        1.0  0.49197  0.27345  0.61944  1.0000
  O   O3        1.0  0.99197  0.22655  0.38056  1.0000
  O   O4        1.0  0.50803  0.27345  0.88056  1.0000
  O   O5        1.0  0.99197  0.77345  0.88056  1.0000
  O   O6        1.0  0.50803  0.72655  0.38056  1.0000
  O   O7        1.0  0.00803  0.77345  0.61944  1.0000
  O   O8        1.0  0.49197  0.72655  0.11944  1.0000
  O   O9        1.0  0.03422  0.05608  0.16900  1.0000
  O   O10       1.0  0.46578  0.44392  0.66900  1.0000
  O   O11       1.0  0.96578  0.05608  0.33100  1.0000
  O   O12       1.0  0.53422  0.44392  0.83100  1.0000
  O   O13       1.0  0.96578  0.94392  0.83100  1.0000
  O   O14       1.0  0.53422  0.55608  0.33100  1.0000
  O   O15       1.0  0.03422  0.94392  0.66900  1.0000
  O   O16       1.0  0.46578  0.55608  0.16900  1.0000
  O   O17       1.0  0.15772  0.12210  0.36745  1.0000
  O   O18       1.0  0.34228  0.37790  0.86745  1.0000
  O   O19       1.0  0.84228  0.12210  0.13255  1.0000
  O   O20       1.0  0.65772  0.37790  0.63255  1.0000
  O   O21       1.0  0.84228  0.87790  0.63255  1.0000
  O   O22       1.0  0.65772  0.62210  0.13255  1.0000
  O   O23       1.0  0.15772  0.87790  0.86745  1.0000
  O   O24       1.0  0.34228  0.62210  0.36745  1.0000
  O   O25       1.0  0.24835  0.27710  0.37966  1.0000
  O   O26       1.0  0.25165  0.22290  0.87966  1.0000
  O   O27       1.0  0.75165  0.27710  0.12034  1.0000
  O   O28       1.0  0.74835  0.22290  0.62034  1.0000
  O   O29       1.0  0.75165  0.72290  0.62034  1.0000
  O   O30       1.0  0.74835  0.77710  0.12034  1.0000
  O   O31       1.0  0.24835  0.72290  0.87966  1.0000
  O   O32       1.0  0.25165  0.77710  0.37966  1.0000
  O   O33       1.0  0.41612  0.55481  0.04336  1.0000
  O   O34       1.0  0.08388  0.94519  0.54336  1.0000
  O   O35       1.0  0.58388  0.55481  0.45664  1.0000
  O   O36       1.0  0.91612  0.94519  0.95664  1.0000
  O   O37       1.0  0.58388  0.44519  0.95664  1.0000
  O   O38       1.0  0.91612  0.05481  0.45664  1.0000
  O   O39       1.0  0.41612  0.44519  0.54336  1.0000
  O   O40       1.0  0.08388  0.05481  0.04336  1.0000
  O   O41       1.0  0.33394  0.55204  0.96576  1.0000
  O   O42       1.0  0.16606  0.94796  0.46576  1.0000
  O   O43       1.0  0.66606  0.55204  0.53424  1.0000
  O   O44       1.0  0.83394  0.94796  0.03424  1.0000
  O   O45       1.0  0.66606  0.44796  0.03424  1.0000
  O   O46       1.0  0.83394  0.05204  0.53424  1.0000
  O   O47       1.0  0.33394  0.44796  0.46576  1.0000
  O   O48       1.0  0.16606  0.05204  0.96576  1.0000
  O   O49       1.0  0.08014  0.82205  0.98244  1.0000
  O   O50       1.0  0.41986  0.67795  0.48244  1.0000
  O   O51       1.0  0.91986  0.82205  0.51756  1.0000
  O   O52       1.0  0.58014  0.67795  0.01756  1.0000
  O   O53       1.0  0.91986  0.17795  0.01756  1.0000
  O   O54       1.0  0.58014  0.32205  0.51756  1.0000
  O   O55       1.0  0.08014  0.17795  0.48244  1.0000
  O   O56       1.0  0.41986  0.32205  0.98244  1.0000
  O   O57       1.0  0.00914  0.83522  0.06570  1.0000
  O   O58       1.0  0.49086  0.66478  0.56570  1.0000
  O   O59       1.0  0.99086  0.83522  0.43430  1.0000
  O   O60       1.0  0.50914  0.66478  0.93430  1.0000
  O   O61       1.0  0.99086  0.16478  0.93430  1.0000
  O   O62       1.0  0.50914  0.33522  0.43430  1.0000
  O   O63       1.0  0.00914  0.16478  0.56570  1.0000
  O   O64       1.0  0.49086  0.33522  0.06570  1.0000
  O   O65       1.0  0.89533  0.88270  0.14920  1.0000
  O   O66       1.0  0.60467  0.61730  0.64920  1.0000
  O   O67       1.0  0.10467  0.88270  0.35080  1.0000
  O   O68       1.0  0.39533  0.61730  0.85080  1.0000
  O   O69       1.0  0.10467  0.11730  0.85080  1.0000
  O   O70       1.0  0.39533  0.38270  0.35080  1.0000
  O   O71       1.0  0.89533  0.11730  0.64920  1.0000
  O   O72       1.0  0.60467  0.38270  0.14920  1.0000
  H   H65       1.0  0.90950  0.87200  0.18520  1.0000
  H   H66       1.0  0.59050  0.62800  0.68520  1.0000
  H   H67       1.0  0.09050  0.87200  0.31480  1.0000
  H   H68       1.0  0.40950  0.62800  0.81480  1.0000
  H   H69       1.0  0.09050  0.12800  0.81480  1.0000
  H   H70       1.0  0.40950  0.37200  0.31480  1.0000
  H   H71       1.0  0.90950  0.12800  0.68520  1.0000
  H   H72       1.0  0.59050  0.37200  0.18520  1.0000
  H   H73       1.0  0.84330  0.85400  0.14420  1.0000
  H   H74       1.0  0.65670  0.64600  0.64420  1.0000
  H   H75       1.0  0.15670  0.85400  0.35580  1.0000
  H   H76       1.0  0.34330  0.64600  0.85580  1.0000
  H   H77       1.0  0.15670  0.14600  0.85580  1.0000
  H   H78       1.0  0.34330  0.35400  0.35580  1.0000
  H   H79       1.0  0.84330  0.14600  0.64420  1.0000
  H   H80       1.0  0.65670  0.35400  0.14420  1.0000
