data_image0
_chemical_formula_structural       Tm8C16H8C16H8C16H8C8H16C16H8C16H8C16H8C32O72H16
_chemical_formula_sum              "Tm8 C136 H80 O72"
_cell_length_a       15.6958
_cell_length_b       10.6984
_cell_length_c       23.2644
_cell_angle_alpha    90
_cell_angle_beta     90
_cell_angle_gamma    90

_space_group_name_H-M_alt    "P 1"
_space_group_IT_number       1

loop_
  _space_group_symop_operation_xyz
  'x, y, z'

loop_
  _atom_site_type_symbol
  _atom_site_label
  _atom_site_symmetry_multiplicity
  _atom_site_fract_x
  _atom_site_fract_y
  _atom_site_fract_z
  _atom_site_occupancy
  Tm  Tm1       1.0  0.54784  0.03063  0.08413  1.0000
  Tm  Tm2       1.0  0.95216  0.46937  0.58413  1.0000
  Tm  Tm3       1.0  0.45216  0.03063  0.41587  1.0000
  Tm  Tm4       1.0  0.04784  0.46937  0.91587  1.0000
  Tm  Tm5       1.0  0.45216  0.96937  0.91587  1.0000
  Tm  Tm6       1.0  0.04784  0.53063  0.41587  1.0000
  Tm  Tm7       1.0  0.54784  0.96937  0.58413  1.0000
  Tm  Tm8       1.0  0.95216  0.53063  0.08413  1.0000
  C   C1        1.0  0.40597  0.25010  0.20308  1.0000
  C   C2        1.0  0.09403  0.24990  0.70308  1.0000
  C   C3        1.0  0.59403  0.25010  0.29692  1.0000
  C   C4        1.0  0.90597  0.24990  0.79692  1.0000
  C   C5        1.0  0.59403  0.74990  0.79692  1.0000
  C   C6        1.0  0.90597  0.75010  0.29692  1.0000
  C   C7        1.0  0.40597  0.74990  0.70308  1.0000
  C   C8        1.0  0.09403  0.75010  0.20308  1.0000
  C   C9        1.0  0.38275  0.20290  0.25600  1.0000
  C   C10       1.0  0.11725  0.29710  0.75600  1.0000
  C   C11       1.0  0.61725  0.20290  0.24400  1.0000
  C   C12       1.0  0.88275  0.29710  0.74400  1.0000
  C   C13       1.0  0.61725  0.79710  0.74400  1.0000
  C   C14       1.0  0.88275  0.70290  0.24400  1.0000
  C   C15       1.0  0.38275  0.79710  0.75600  1.0000
  C   C16       1.0  0.11725  0.70290  0.25600  1.0000
  H   H1        1.0  0.40030  0.12140  0.26700  1.0000
  H   H2        1.0  0.09970  0.37860  0.76700  1.0000
  H   H3        1.0  0.59970  0.12140  0.23300  1.0000
  H   H4        1.0  0.90030  0.37860  0.73300  1.0000
  H   H5        1.0  0.59970  0.87860  0.73300  1.0000
  H   H6        1.0  0.90030  0.62140  0.23300  1.0000
  H   H7        1.0  0.40030  0.87860  0.76700  1.0000
  H   H8        1.0  0.09970  0.62140  0.26700  1.0000
  C   C17       1.0  0.33362  0.27490  0.29325  1.0000
  C   C18       1.0  0.16638  0.22510  0.79325  1.0000
  C   C19       1.0  0.66638  0.27490  0.20675  1.0000
  C   C20       1.0  0.83362  0.22510  0.70675  1.0000
  C   C21       1.0  0.66638  0.72510  0.70675  1.0000
  C   C22       1.0  0.83362  0.77490  0.20675  1.0000
  C   C23       1.0  0.33362  0.72510  0.79325  1.0000
  C   C24       1.0  0.16638  0.77490  0.29325  1.0000
  C   C25       1.0  0.30754  0.39290  0.27620  1.0000
  C   C26       1.0  0.19246  0.10710  0.77620  1.0000
  C   C27       1.0  0.69246  0.39290  0.22380  1.0000
  C   C28       1.0  0.80754  0.10710  0.72380  1.0000
  C   C29       1.0  0.69246  0.60710  0.72380  1.0000
  C   C30       1.0  0.80754  0.89290  0.22380  1.0000
  C   C31       1.0  0.30754  0.60710  0.77620  1.0000
  C   C32       1.0  0.19246  0.89290  0.27620  1.0000
  H   H9        1.0  0.27150  0.44020  0.30080  1.0000
  H   H10       1.0  0.22850  0.05980  0.80080  1.0000
  H   H11       1.0  0.72850  0.44020  0.19920  1.0000
  H   H12       1.0  0.77150  0.05980  0.69920  1.0000
  H   H13       1.0  0.72850  0.55980  0.69920  1.0000
  H   H14       1.0  0.77150  0.94020  0.19920  1.0000
  H   H15       1.0  0.27150  0.55980  0.80080  1.0000
  H   H16       1.0  0.22850  0.94020  0.30080  1.0000
  C   C33       1.0  0.33299  0.44380  0.22371  1.0000
  C   C34       1.0  0.16701  0.05620  0.72371  1.0000
  C   C35       1.0  0.66701  0.44380  0.27629  1.0000
  C   C36       1.0  0.83299  0.05620  0.77629  1.0000
  C   C37       1.0  0.66701  0.55620  0.77629  1.0000
  C   C38       1.0  0.83299  0.94380  0.27629  1.0000
  C   C39       1.0  0.33299  0.55620  0.72371  1.0000
  C   C40       1.0  0.16701  0.94380  0.22371  1.0000
  C   C41       1.0  0.38220  0.37130  0.18731  1.0000
  C   C42       1.0  0.11780  0.12870  0.68731  1.0000
  C   C43       1.0  0.61780  0.37130  0.31269  1.0000
  C   C44       1.0  0.88220  0.12870  0.81269  1.0000
  C   C45       1.0  0.61780  0.62870  0.81269  1.0000
  C   C46       1.0  0.88220  0.87130  0.31269  1.0000
  C   C47       1.0  0.38220  0.62870  0.68731  1.0000
  C   C48       1.0  0.11780  0.87130  0.18731  1.0000
  H   H17       1.0  0.40000  0.40410  0.15130  1.0000
  H   H18       1.0  0.10000  0.09590  0.65130  1.0000
  H   H19       1.0  0.60000  0.40410  0.34870  1.0000
  H   H20       1.0  0.90000  0.09590  0.84870  1.0000
  H   H21       1.0  0.60000  0.59590  0.84870  1.0000
  H   H22       1.0  0.90000  0.90410  0.34870  1.0000
  H   H23       1.0  0.40000  0.59590  0.65130  1.0000
  H   H24       1.0  0.10000  0.90410  0.15130  1.0000
  C   C49       1.0  0.30960  0.57790  0.20910  1.0000
  C   C50       1.0  0.19040  0.92210  0.70910  1.0000
  C   C51       1.0  0.69040  0.57790  0.29090  1.0000
  C   C52       1.0  0.80960  0.92210  0.79090  1.0000
  C   C53       1.0  0.69040  0.42210  0.79090  1.0000
  C   C54       1.0  0.80960  0.07790  0.29090  1.0000
  C   C55       1.0  0.30960  0.42210  0.70910  1.0000
  C   C56       1.0  0.19040  0.07790  0.20910  1.0000
  H   H25       1.0  0.25340  0.59650  0.22650  1.0000
  H   H26       1.0  0.24660  0.90350  0.72650  1.0000
  H   H27       1.0  0.74660  0.59650  0.27350  1.0000
  H   H28       1.0  0.75340  0.90350  0.77350  1.0000
  H   H29       1.0  0.74660  0.40350  0.77350  1.0000
  H   H30       1.0  0.75340  0.09650  0.27350  1.0000
  H   H31       1.0  0.25340  0.40350  0.72650  1.0000
  H   H32       1.0  0.24660  0.09650  0.22650  1.0000
  H   H33       1.0  0.35180  0.63390  0.22740  1.0000
  H   H34       1.0  0.14820  0.86610  0.72740  1.0000
  H   H35       1.0  0.64820  0.63390  0.27260  1.0000
  H   H36       1.0  0.85180  0.86610  0.77260  1.0000
  H   H37       1.0  0.64820  0.36610  0.77260  1.0000
  H   H38       1.0  0.85180  0.13390  0.27260  1.0000
  H   H39       1.0  0.35180  0.36610  0.72740  1.0000
  H   H40       1.0  0.14820  0.13390  0.22740  1.0000
  C   C57       1.0  0.30529  0.60980  0.14590  1.0000
  C   C58       1.0  0.19471  0.89020  0.64590  1.0000
  C   C59       1.0  0.69471  0.60980  0.35410  1.0000
  C   C60       1.0  0.80529  0.89020  0.85410  1.0000
  C   C61       1.0  0.69471  0.39020  0.85410  1.0000
  C   C62       1.0  0.80529  0.10980  0.35410  1.0000
  C   C63       1.0  0.30529  0.39020  0.64590  1.0000
  C   C64       1.0  0.19471  0.10980  0.14590  1.0000
  C   C65       1.0  0.23550  0.57290  0.11281  1.0000
  C   C66       1.0  0.26450  0.92710  0.61281  1.0000
  C   C67       1.0  0.76450  0.57290  0.38719  1.0000
  C   C68       1.0  0.73550  0.92710  0.88719  1.0000
  C   C69       1.0  0.76450  0.42710  0.88719  1.0000
  C   C70       1.0  0.73550  0.07290  0.38719  1.0000
  C   C71       1.0  0.23550  0.42710  0.61281  1.0000
  C   C72       1.0  0.26450  0.07290  0.11281  1.0000
  H   H41       1.0  0.19080  0.52640  0.13020  1.0000
  H   H42       1.0  0.30920  0.97360  0.63020  1.0000
  H   H43       1.0  0.80920  0.52640  0.36980  1.0000
  H   H44       1.0  0.69080  0.97360  0.86980  1.0000
  H   H45       1.0  0.80920  0.47360  0.86980  1.0000
  H   H46       1.0  0.69080  0.02640  0.36980  1.0000
  H   H47       1.0  0.19080  0.47360  0.63020  1.0000
  H   H48       1.0  0.30920  0.02640  0.13020  1.0000
  C   C73       1.0  0.23047  0.60310  0.05457  1.0000
  C   C74       1.0  0.26953  0.89690  0.55457  1.0000
  C   C75       1.0  0.76953  0.60310  0.44543  1.0000
  C   C76       1.0  0.73047  0.89690  0.94543  1.0000
  C   C77       1.0  0.76953  0.39690  0.94543  1.0000
  C   C78       1.0  0.73047  0.10310  0.44543  1.0000
  C   C79       1.0  0.23047  0.39690  0.55457  1.0000
  C   C80       1.0  0.26953  0.10310  0.05457  1.0000
  C   C81       1.0  0.29650  0.67130  0.02919  1.0000
  C   C82       1.0  0.20350  0.82870  0.52919  1.0000
  C   C83       1.0  0.70350  0.67130  0.47081  1.0000
  C   C84       1.0  0.79650  0.82870  0.97081  1.0000
  C   C85       1.0  0.70350  0.32870  0.97081  1.0000
  C   C86       1.0  0.79650  0.17130  0.47081  1.0000
  C   C87       1.0  0.29650  0.32870  0.52919  1.0000
  C   C88       1.0  0.20350  0.17130  0.02919  1.0000
  H   H49       1.0  0.29450  0.68990  0.98930  1.0000
  H   H50       1.0  0.20550  0.81010  0.48930  1.0000
  H   H51       1.0  0.70550  0.68990  0.51070  1.0000
  H   H52       1.0  0.79450  0.81010  0.01070  1.0000
  H   H53       1.0  0.70550  0.31010  0.01070  1.0000
  H   H54       1.0  0.79450  0.18990  0.51070  1.0000
  H   H55       1.0  0.29450  0.31010  0.48930  1.0000
  H   H56       1.0  0.20550  0.18990  0.98930  1.0000
  C   C89       1.0  0.36495  0.71170  0.06201  1.0000
  C   C90       1.0  0.13505  0.78830  0.56201  1.0000
  C   C91       1.0  0.63505  0.71170  0.43799  1.0000
  C   C92       1.0  0.86495  0.78830  0.93799  1.0000
  C   C93       1.0  0.63505  0.28830  0.93799  1.0000
  C   C94       1.0  0.86495  0.21170  0.43799  1.0000
  C   C95       1.0  0.36495  0.28830  0.56201  1.0000
  C   C96       1.0  0.13505  0.21170  0.06201  1.0000
  C   C97       1.0  0.36922  0.68060  0.12003  1.0000
  C   C98       1.0  0.13078  0.81940  0.62003  1.0000
  C   C99       1.0  0.63078  0.68060  0.37997  1.0000
  C   C100      1.0  0.86922  0.81940  0.87997  1.0000
  C   C101      1.0  0.63078  0.31940  0.87997  1.0000
  C   C102      1.0  0.86922  0.18060  0.37997  1.0000
  C   C103      1.0  0.36922  0.31940  0.62003  1.0000
  C   C104      1.0  0.13078  0.18060  0.12003  1.0000
  H   H57       1.0  0.41640  0.70790  0.14230  1.0000
  H   H58       1.0  0.08360  0.79210  0.64230  1.0000
  H   H59       1.0  0.58360  0.70790  0.35770  1.0000
  H   H60       1.0  0.91640  0.79210  0.85770  1.0000
  H   H61       1.0  0.58360  0.29210  0.85770  1.0000
  H   H62       1.0  0.91640  0.20790  0.35770  1.0000
  H   H63       1.0  0.41640  0.29210  0.64230  1.0000
  H   H64       1.0  0.08360  0.20790  0.14230  1.0000
  C   C105      1.0  0.45715  0.17420  0.16140  1.0000
  C   C106      1.0  0.04285  0.32580  0.66140  1.0000
  C   C107      1.0  0.54285  0.17420  0.33860  1.0000
  C   C108      1.0  0.95715  0.32580  0.83860  1.0000
  C   C109      1.0  0.54285  0.82580  0.83860  1.0000
  C   C110      1.0  0.95715  0.67420  0.33860  1.0000
  C   C111      1.0  0.45715  0.82580  0.66140  1.0000
  C   C112      1.0  0.04285  0.67420  0.16140  1.0000
  C   C113      1.0  0.30770  0.22190  0.35073  1.0000
  C   C114      1.0  0.19230  0.27810  0.85073  1.0000
  C   C115      1.0  0.69230  0.22190  0.14927  1.0000
  C   C116      1.0  0.80770  0.27810  0.64927  1.0000
  C   C117      1.0  0.69230  0.77810  0.64927  1.0000
  C   C118      1.0  0.80770  0.72190  0.14927  1.0000
  C   C119      1.0  0.30770  0.77810  0.85073  1.0000
  C   C120      1.0  0.19230  0.72190  0.35073  1.0000
  C   C121      1.0  0.15502  0.56670  0.01886  1.0000
  C   C122      1.0  0.34498  0.93330  0.51886  1.0000
  C   C123      1.0  0.84498  0.56670  0.48114  1.0000
  C   C124      1.0  0.65502  0.93330  0.98114  1.0000
  C   C125      1.0  0.84498  0.43330  0.98114  1.0000
  C   C126      1.0  0.65502  0.06670  0.48114  1.0000
  C   C127      1.0  0.15502  0.43330  0.51886  1.0000
  C   C128      1.0  0.34498  0.06670  0.01886  1.0000
  C   C129      1.0  0.43058  0.79530  0.03476  1.0000
  C   C130      1.0  0.06942  0.70470  0.53476  1.0000
  C   C131      1.0  0.56942  0.79530  0.46524  1.0000
  C   C132      1.0  0.93058  0.70470  0.96524  1.0000
  C   C133      1.0  0.56942  0.20470  0.96524  1.0000
  C   C134      1.0  0.93058  0.29530  0.46524  1.0000
  C   C135      1.0  0.43058  0.20470  0.53476  1.0000
  C   C136      1.0  0.06942  0.29530  0.03476  1.0000
  O   O1        1.0  0.49112  0.22620  0.11940  1.0000
  O   O2        1.0  0.00888  0.27380  0.61940  1.0000
  O   O3        1.0  0.50888  0.22620  0.38060  1.0000
  O   O4        1.0  0.99112  0.27380  0.88060  1.0000
  O   O5        1.0  0.50888  0.77380  0.88060  1.0000
  O   O6        1.0  0.99112  0.72620  0.38060  1.0000
  O   O7        1.0  0.49112  0.77380  0.61940  1.0000
  O   O8        1.0  0.00888  0.72620  0.11940  1.0000
  O   O9        1.0  0.46495  0.05630  0.16900  1.0000
  O   O10       1.0  0.03505  0.44370  0.66900  1.0000
  O   O11       1.0  0.53505  0.05630  0.33100  1.0000
  O   O12       1.0  0.96495  0.44370  0.83100  1.0000
  O   O13       1.0  0.53505  0.94370  0.83100  1.0000
  O   O14       1.0  0.96495  0.55630  0.33100  1.0000
  O   O15       1.0  0.46495  0.94370  0.66900  1.0000
  O   O16       1.0  0.03505  0.55630  0.16900  1.0000
  O   O17       1.0  0.65783  0.12270  0.13257  1.0000
  O   O18       1.0  0.84217  0.37730  0.63257  1.0000
  O   O19       1.0  0.34217  0.12270  0.36743  1.0000
  O   O20       1.0  0.15783  0.37730  0.86743  1.0000
  O   O21       1.0  0.34217  0.87730  0.86743  1.0000
  O   O22       1.0  0.15783  0.62270  0.36743  1.0000
  O   O23       1.0  0.65783  0.87730  0.63257  1.0000
  O   O24       1.0  0.84217  0.62270  0.13257  1.0000
  O   O25       1.0  0.25138  0.27700  0.37920  1.0000
  O   O26       1.0  0.24862  0.22300  0.87920  1.0000
  O   O27       1.0  0.74862  0.27700  0.12080  1.0000
  O   O28       1.0  0.75138  0.22300  0.62080  1.0000
  O   O29       1.0  0.74862  0.72300  0.62080  1.0000
  O   O30       1.0  0.75138  0.77700  0.12080  1.0000
  O   O31       1.0  0.25138  0.72300  0.87920  1.0000
  O   O32       1.0  0.24862  0.77700  0.37920  1.0000
  O   O33       1.0  0.41593  0.05420  0.04274  1.0000
  O   O34       1.0  0.08407  0.44580  0.54274  1.0000
  O   O35       1.0  0.58407  0.05420  0.45726  1.0000
  O   O36       1.0  0.91593  0.44580  0.95726  1.0000
  O   O37       1.0  0.58407  0.94580  0.95726  1.0000
  O   O38       1.0  0.91593  0.55420  0.45726  1.0000
  O   O39       1.0  0.41593  0.94580  0.54274  1.0000
  O   O40       1.0  0.08407  0.55420  0.04274  1.0000
  O   O41       1.0  0.66683  0.94860  0.03448  1.0000
  O   O42       1.0  0.83317  0.55140  0.53448  1.0000
  O   O43       1.0  0.33317  0.94860  0.46552  1.0000
  O   O44       1.0  0.16683  0.55140  0.96552  1.0000
  O   O45       1.0  0.33317  0.05140  0.96552  1.0000
  O   O46       1.0  0.16683  0.44860  0.46552  1.0000
  O   O47       1.0  0.66683  0.05140  0.53448  1.0000
  O   O48       1.0  0.83317  0.44860  0.03448  1.0000
  O   O49       1.0  0.57971  0.17900  0.01735  1.0000
  O   O50       1.0  0.92029  0.32100  0.51735  1.0000
  O   O51       1.0  0.42029  0.17900  0.48265  1.0000
  O   O52       1.0  0.07971  0.32100  0.98265  1.0000
  O   O53       1.0  0.42029  0.82100  0.98265  1.0000
  O   O54       1.0  0.07971  0.67900  0.48265  1.0000
  O   O55       1.0  0.57971  0.82100  0.51735  1.0000
  O   O56       1.0  0.92029  0.67900  0.01735  1.0000
  O   O57       1.0  0.49058  0.83430  0.06598  1.0000
  O   O58       1.0  0.00942  0.66570  0.56598  1.0000
  O   O59       1.0  0.50942  0.83430  0.43402  1.0000
  O   O60       1.0  0.99058  0.66570  0.93402  1.0000
  O   O61       1.0  0.50942  0.16570  0.93402  1.0000
  O   O62       1.0  0.99058  0.33430  0.43402  1.0000
  O   O63       1.0  0.49058  0.16570  0.56598  1.0000
  O   O64       1.0  0.00942  0.33430  0.06598  1.0000
  O   O65       1.0  0.60484  0.88270  0.14948  1.0000
  O   O66       1.0  0.89516  0.61730  0.64948  1.0000
  O   O67       1.0  0.39516  0.88270  0.35052  1.0000
  O   O68       1.0  0.10484  0.61730  0.85052  1.0000
  O   O69       1.0  0.39516  0.11730  0.85052  1.0000
  O   O70       1.0  0.10484  0.38270  0.35052  1.0000
  O   O71       1.0  0.60484  0.11730  0.64948  1.0000
  O   O72       1.0  0.89516  0.38270  0.14948  1.0000
  H   H65       1.0  0.59300  0.87600  0.18620  1.0000
  H   H66       1.0  0.90700  0.62400  0.68620  1.0000
  H   H67       1.0  0.40700  0.87600  0.31380  1.0000
  H   H68       1.0  0.09300  0.62400  0.81380  1.0000
  H   H69       1.0  0.40700  0.12400  0.81380  1.0000
  H   H70       1.0  0.09300  0.37600  0.31380  1.0000
  H   H71       1.0  0.59300  0.12400  0.68620  1.0000
  H   H72       1.0  0.90700  0.37600  0.18620  1.0000
  H   H73       1.0  0.65500  0.84700  0.14400  1.0000
  H   H74       1.0  0.84500  0.65300  0.64400  1.0000
  H   H75       1.0  0.34500  0.84700  0.35600  1.0000
  H   H76       1.0  0.15500  0.65300  0.85600  1.0000
  H   H77       1.0  0.34500  0.15300  0.85600  1.0000
  H   H78       1.0  0.15500  0.34700  0.35600  1.0000
  H   H79       1.0  0.65500  0.15300  0.64400  1.0000
  H   H80       1.0  0.84500  0.34700  0.14400  1.0000
