data_image0
_chemical_formula_structural       Zn8P8O40C16H8C8H8C16H8C8H8C8
_chemical_formula_sum              "Zn8 P8 O40 C56 H32"
_cell_length_a       18.372
_cell_length_b       19.143
_cell_length_c       10.534
_cell_angle_alpha    90
_cell_angle_beta     124.353
_cell_angle_gamma    90

_space_group_name_H-M_alt    "P 1"
_space_group_IT_number       1

loop_
  _space_group_symop_operation_xyz
  'x, y, z'

loop_
  _atom_site_type_symbol
  _atom_site_label
  _atom_site_symmetry_multiplicity
  _atom_site_fract_x
  _atom_site_fract_y
  _atom_site_fract_z
  _atom_site_occupancy
  Zn  Zn1       1.0  0.39269  0.55123  0.00695  1.0000
  Zn  Zn2       1.0  0.60731  0.55123  0.49305  1.0000
  Zn  Zn3       1.0  0.89269  0.05123  0.00695  1.0000
  Zn  Zn4       1.0  0.10731  0.05123  0.49305  1.0000
  Zn  Zn5       1.0  0.60731  0.44877  0.99305  1.0000
  Zn  Zn6       1.0  0.39269  0.44877  0.50695  1.0000
  Zn  Zn7       1.0  0.10731  0.94877  0.99305  1.0000
  Zn  Zn8       1.0  0.89269  0.94877  0.50695  1.0000
  P   P1        1.0  0.60676  0.56333  0.19605  1.0000
  P   P2        1.0  0.39324  0.56333  0.30395  1.0000
  P   P3        1.0  0.10676  0.06333  0.19605  1.0000
  P   P4        1.0  0.89324  0.06333  0.30395  1.0000
  P   P5        1.0  0.39324  0.43667  0.80395  1.0000
  P   P6        1.0  0.60676  0.43667  0.69605  1.0000
  P   P7        1.0  0.89324  0.93667  0.80395  1.0000
  P   P8        1.0  0.10676  0.93667  0.69605  1.0000
  O   O1        1.0  0.51036  0.57263  0.08390  1.0000
  O   O2        1.0  0.48964  0.57263  0.41610  1.0000
  O   O3        1.0  0.01036  0.07263  0.08390  1.0000
  O   O4        1.0  0.98964  0.07263  0.41610  1.0000
  O   O5        1.0  0.48964  0.42737  0.91610  1.0000
  O   O6        1.0  0.51036  0.42737  0.58390  1.0000
  O   O7        1.0  0.98964  0.92737  0.91610  1.0000
  O   O8        1.0  0.01036  0.92737  0.58390  1.0000
  O   O9        1.0  0.63035  0.52680  0.34170  1.0000
  O   O10       1.0  0.36965  0.52680  0.15830  1.0000
  O   O11       1.0  0.13035  0.02680  0.34170  1.0000
  O   O12       1.0  0.86965  0.02680  0.15830  1.0000
  O   O13       1.0  0.36965  0.47320  0.65830  1.0000
  O   O14       1.0  0.63035  0.47320  0.84170  1.0000
  O   O15       1.0  0.86965  0.97320  0.65830  1.0000
  O   O16       1.0  0.13035  0.97320  0.84170  1.0000
  O   O17       1.0  0.65060  0.52721  0.12940  1.0000
  O   O18       1.0  0.34940  0.52721  0.37060  1.0000
  O   O19       1.0  0.15060  0.02721  0.12940  1.0000
  O   O20       1.0  0.84940  0.02721  0.37060  1.0000
  O   O21       1.0  0.34940  0.47279  0.87060  1.0000
  O   O22       1.0  0.65060  0.47279  0.62940  1.0000
  O   O23       1.0  0.84940  0.97279  0.87060  1.0000
  O   O24       1.0  0.15060  0.97279  0.62940  1.0000
  O   O25       1.0  0.70586  0.90542  0.33690  1.0000
  O   O26       1.0  0.29414  0.90542  0.16310  1.0000
  O   O27       1.0  0.20586  0.40542  0.33690  1.0000
  O   O28       1.0  0.79414  0.40542  0.16310  1.0000
  O   O29       1.0  0.29414  0.09458  0.66310  1.0000
  O   O30       1.0  0.70586  0.09458  0.83690  1.0000
  O   O31       1.0  0.79414  0.59458  0.66310  1.0000
  O   O32       1.0  0.20586  0.59458  0.83690  1.0000
  O   O33       1.0  0.83358  0.86179  0.40950  1.0000
  O   O34       1.0  0.16642  0.86179  0.09050  1.0000
  O   O35       1.0  0.33358  0.36179  0.40950  1.0000
  O   O36       1.0  0.66642  0.36179  0.09050  1.0000
  O   O37       1.0  0.16642  0.13821  0.59050  1.0000
  O   O38       1.0  0.83358  0.13821  0.90950  1.0000
  O   O39       1.0  0.66642  0.63821  0.59050  1.0000
  O   O40       1.0  0.33358  0.63821  0.90950  1.0000
  C   C1        1.0  0.65140  0.64982  0.24410  1.0000
  C   C2        1.0  0.34860  0.64982  0.25590  1.0000
  C   C3        1.0  0.15140  0.14982  0.24410  1.0000
  C   C4        1.0  0.84860  0.14982  0.25590  1.0000
  C   C5        1.0  0.34860  0.35018  0.75590  1.0000
  C   C6        1.0  0.65140  0.35018  0.74410  1.0000
  C   C7        1.0  0.84860  0.85018  0.75590  1.0000
  C   C8        1.0  0.15140  0.85018  0.74410  1.0000
  C   C9        1.0  0.59670  0.70590  0.21210  1.0000
  C   C10       1.0  0.40330  0.70590  0.28790  1.0000
  C   C11       1.0  0.09670  0.20590  0.21210  1.0000
  C   C12       1.0  0.90330  0.20590  0.28790  1.0000
  C   C13       1.0  0.40330  0.29410  0.78790  1.0000
  C   C14       1.0  0.59670  0.29410  0.71210  1.0000
  C   C15       1.0  0.90330  0.79410  0.78790  1.0000
  C   C16       1.0  0.09670  0.79410  0.71210  1.0000
  H   H1        1.0  0.53680  0.69860  0.16570  1.0000
  H   H2        1.0  0.46320  0.69860  0.33430  1.0000
  H   H3        1.0  0.03680  0.19860  0.16570  1.0000
  H   H4        1.0  0.96320  0.19860  0.33430  1.0000
  H   H5        1.0  0.46320  0.30140  0.83430  1.0000
  H   H6        1.0  0.53680  0.30140  0.66570  1.0000
  H   H7        1.0  0.96320  0.80140  0.83430  1.0000
  H   H8        1.0  0.03680  0.80140  0.66570  1.0000
  C   C17       1.0  0.62980  0.77190  0.24770  1.0000
  C   C18       1.0  0.37020  0.77190  0.25230  1.0000
  C   C19       1.0  0.12980  0.27190  0.24770  1.0000
  C   C20       1.0  0.87020  0.27190  0.25230  1.0000
  C   C21       1.0  0.37020  0.22810  0.75230  1.0000
  C   C22       1.0  0.62980  0.22810  0.74770  1.0000
  C   C23       1.0  0.87020  0.72810  0.75230  1.0000
  C   C24       1.0  0.12980  0.72810  0.74770  1.0000
  H   H9        1.0  0.59220  0.80930  0.22620  1.0000
  H   H10       1.0  0.40780  0.80930  0.27380  1.0000
  H   H11       1.0  0.09220  0.30930  0.22620  1.0000
  H   H12       1.0  0.90780  0.30930  0.27380  1.0000
  H   H13       1.0  0.40780  0.19070  0.77380  1.0000
  H   H14       1.0  0.59220  0.19070  0.72620  1.0000
  H   H15       1.0  0.90780  0.69070  0.77380  1.0000
  H   H16       1.0  0.09220  0.69070  0.72620  1.0000
  C   C25       1.0  0.71760  0.78383  0.31480  1.0000
  C   C26       1.0  0.28240  0.78383  0.18520  1.0000
  C   C27       1.0  0.21760  0.28383  0.31480  1.0000
  C   C28       1.0  0.78240  0.28383  0.18520  1.0000
  C   C29       1.0  0.28240  0.21617  0.68520  1.0000
  C   C30       1.0  0.71760  0.21617  0.81480  1.0000
  C   C31       1.0  0.78240  0.71617  0.68520  1.0000
  C   C32       1.0  0.21760  0.71617  0.81480  1.0000
  C   C33       1.0  0.77170  0.72850  0.34830  1.0000
  C   C34       1.0  0.22830  0.72850  0.15170  1.0000
  C   C35       1.0  0.27170  0.22850  0.34830  1.0000
  C   C36       1.0  0.72830  0.22850  0.15170  1.0000
  C   C37       1.0  0.22830  0.27150  0.65170  1.0000
  C   C38       1.0  0.77170  0.27150  0.84830  1.0000
  C   C39       1.0  0.72830  0.77150  0.65170  1.0000
  C   C40       1.0  0.27170  0.77150  0.84830  1.0000
  H   H17       1.0  0.83180  0.73590  0.39570  1.0000
  H   H18       1.0  0.16820  0.73590  0.10430  1.0000
  H   H19       1.0  0.33180  0.23590  0.39570  1.0000
  H   H20       1.0  0.66820  0.23590  0.10430  1.0000
  H   H21       1.0  0.16820  0.26410  0.60430  1.0000
  H   H22       1.0  0.83180  0.26410  0.89570  1.0000
  H   H23       1.0  0.66820  0.76410  0.60430  1.0000
  H   H24       1.0  0.33180  0.76410  0.89570  1.0000
  C   C41       1.0  0.73910  0.66200  0.31330  1.0000
  C   C42       1.0  0.26090  0.66200  0.18670  1.0000
  C   C43       1.0  0.23910  0.16200  0.31330  1.0000
  C   C44       1.0  0.76090  0.16200  0.18670  1.0000
  C   C45       1.0  0.26090  0.33800  0.68670  1.0000
  C   C46       1.0  0.73910  0.33800  0.81330  1.0000
  C   C47       1.0  0.76090  0.83800  0.68670  1.0000
  C   C48       1.0  0.23910  0.83800  0.81330  1.0000
  H   H25       1.0  0.77710  0.62470  0.33710  1.0000
  H   H26       1.0  0.22290  0.62470  0.16290  1.0000
  H   H27       1.0  0.27710  0.12470  0.33710  1.0000
  H   H28       1.0  0.72290  0.12470  0.16290  1.0000
  H   H29       1.0  0.22290  0.37530  0.66290  1.0000
  H   H30       1.0  0.77710  0.37530  0.83710  1.0000
  H   H31       1.0  0.72290  0.87530  0.66290  1.0000
  H   H32       1.0  0.27710  0.87530  0.83710  1.0000
  C   C49       1.0  0.75340  0.85600  0.35570  1.0000
  C   C50       1.0  0.24660  0.85600  0.14430  1.0000
  C   C51       1.0  0.25340  0.35600  0.35570  1.0000
  C   C52       1.0  0.74660  0.35600  0.14430  1.0000
  C   C53       1.0  0.24660  0.14400  0.64430  1.0000
  C   C54       1.0  0.75340  0.14400  0.85570  1.0000
  C   C55       1.0  0.74660  0.64400  0.64430  1.0000
  C   C56       1.0  0.25340  0.64400  0.85570  1.0000
