data_image0
_chemical_formula_structural       Cd2Na2N8O12S8C2H2C2H4C2H4C2H4C2H4C2H2C2H4C2H4C2H4C2H4C2H2C2H4C2H4C2H4C2H4C2H2C2H4C2H4C2H4C2H4C16
_chemical_formula_sum              "Cd2 Na2 N8 O12 S8 C56 H72"
_cell_length_a       13.547
_cell_length_b       14.134
_cell_length_c       16.465
_cell_angle_alpha    68.021
_cell_angle_beta     83.919
_cell_angle_gamma    89.104

_space_group_name_H-M_alt    "P 1"
_space_group_IT_number       1

loop_
  _space_group_symop_operation_xyz
  'x, y, z'

loop_
  _atom_site_type_symbol
  _atom_site_label
  _atom_site_symmetry_multiplicity
  _atom_site_fract_x
  _atom_site_fract_y
  _atom_site_fract_z
  _atom_site_occupancy
  Cd  Cd1       1.0  0.78462  0.84756  0.76553  1.0000
  Cd  Cd2       1.0  0.21538  0.15244  0.23447  1.0000
  Na  Na1       1.0  0.74050  0.24385  0.00597  1.0000
  Na  Na2       1.0  0.25950  0.75615  0.99403  1.0000
  N   N1        1.0  0.72740  0.41630  0.87280  1.0000
  N   N2        1.0  0.27260  0.58370  0.12720  1.0000
  N   N3        1.0  0.54740  0.55840  0.69690  1.0000
  N   N4        1.0  0.45260  0.44160  0.30310  1.0000
  N   N5        1.0  0.78750  0.18710  0.87750  1.0000
  N   N6        1.0  0.21250  0.81290  0.12250  1.0000
  N   N7        1.0  0.00880  0.21570  0.69710  1.0000
  N   N8        1.0  0.99120  0.78430  0.30290  1.0000
  O   O1        1.0  0.58970  0.12930  0.01810  1.0000
  O   O2        1.0  0.41030  0.87070  0.98190  1.0000
  O   O3        1.0  0.55010  0.31830  0.02360  1.0000
  O   O4        1.0  0.44990  0.68170  0.97640  1.0000
  O   O5        1.0  0.69630  0.29530  0.14100  1.0000
  O   O6        1.0  0.30370  0.70470  0.85900  1.0000
  O   O7        1.0  0.87420  0.34970  0.03530  1.0000
  O   O8        1.0  0.12580  0.65030  0.96470  1.0000
  O   O9        1.0  0.92440  0.16530  0.03350  1.0000
  O   O10       1.0  0.07560  0.83470  0.96650  1.0000
  O   O11       1.0  0.74660  0.05580  0.11340  1.0000
  O   O12       1.0  0.25340  0.94420  0.88660  1.0000
  S   S1        1.0  0.83058  0.66415  0.83634  1.0000
  S   S2        1.0  0.16942  0.33585  0.16366  1.0000
  S   S3        1.0  0.66568  0.79263  0.68264  1.0000
  S   S4        1.0  0.33432  0.20737  0.31736  1.0000
  S   S5        1.0  0.71793  0.95792  0.84725  1.0000
  S   S6        1.0  0.28207  0.04208  0.15275  1.0000
  S   S7        1.0  0.92462  0.97474  0.69515  1.0000
  S   S8        1.0  0.07538  0.02526  0.30485  1.0000
  C   C1        1.0  0.50170  0.18250  0.98570  1.0000
  C   C2        1.0  0.49830  0.81750  0.01430  1.0000
  H   H1        1.0  0.44890  0.13140  0.99610  1.0000
  H   H2        1.0  0.55110  0.86860  0.00390  1.0000
  C   C3        1.0  0.52630  0.23600  0.88640  1.0000
  C   C4        1.0  0.47370  0.76400  0.11360  1.0000
  H   H3        1.0  0.54270  0.18560  0.86060  1.0000
  H   H4        1.0  0.45730  0.81440  0.13940  1.0000
  H   H5        1.0  0.58380  0.28110  0.87430  1.0000
  H   H6        1.0  0.41620  0.71890  0.12570  1.0000
  C   C5        1.0  0.43870  0.29780  0.84440  1.0000
  C   C6        1.0  0.56130  0.70220  0.15560  1.0000
  H   H7        1.0  0.45850  0.33630  0.78240  1.0000
  H   H8        1.0  0.54150  0.66370  0.21760  1.0000
  H   H9        1.0  0.38440  0.25160  0.84890  1.0000
  H   H10       1.0  0.61560  0.74840  0.15110  1.0000
  C   C7        1.0  0.40400  0.37000  0.88860  1.0000
  C   C8        1.0  0.59600  0.63000  0.11140  1.0000
  H   H11       1.0  0.34520  0.40380  0.86380  1.0000
  H   H12       1.0  0.65480  0.59620  0.13620  1.0000
  H   H13       1.0  0.45530  0.42190  0.87710  1.0000
  H   H14       1.0  0.54470  0.57810  0.12290  1.0000
  C   C9        1.0  0.38050  0.31530  0.98650  1.0000
  C   C10       1.0  0.61950  0.68470  0.01350  1.0000
  H   H15       1.0  0.32300  0.27040  0.99760  1.0000
  H   H16       1.0  0.67700  0.72960  0.00240  1.0000
  H   H17       1.0  0.36300  0.36520  0.01270  1.0000
  H   H18       1.0  0.63700  0.63480  0.98730  1.0000
  C   C11       1.0  0.46610  0.25230  0.03160  1.0000
  C   C12       1.0  0.53390  0.74770  0.96840  1.0000
  H   H19       1.0  0.44450  0.21280  0.09380  1.0000
  H   H20       1.0  0.55550  0.78720  0.90620  1.0000
  C   C13       1.0  0.54410  0.36740  0.08590  1.0000
  C   C14       1.0  0.45590  0.63260  0.91410  1.0000
  H   H21       1.0  0.57410  0.43530  0.05750  1.0000
  H   H22       1.0  0.42590  0.56470  0.94250  1.0000
  H   H23       1.0  0.47480  0.37450  0.10410  1.0000
  H   H24       1.0  0.52520  0.62550  0.89590  1.0000
  C   C15       1.0  0.59140  0.31370  0.15980  1.0000
  C   C16       1.0  0.40860  0.68630  0.84020  1.0000
  H   H25       1.0  0.55690  0.24850  0.19110  1.0000
  H   H26       1.0  0.44310  0.75150  0.80890  1.0000
  H   H27       1.0  0.58610  0.35140  0.19870  1.0000
  H   H28       1.0  0.41390  0.64860  0.80130  1.0000
  C   C17       1.0  0.76110  0.36260  0.14900  1.0000
  C   C18       1.0  0.23890  0.63740  0.85100  1.0000
  H   H29       1.0  0.75510  0.35680  0.21000  1.0000
  H   H30       1.0  0.24490  0.64320  0.79000  1.0000
  H   H31       1.0  0.74350  0.43130  0.11340  1.0000
  H   H32       1.0  0.25650  0.56870  0.88660  1.0000
  C   C19       1.0  0.86280  0.34640  0.12250  1.0000
  C   C20       1.0  0.13720  0.65360  0.87750  1.0000
  H   H33       1.0  0.90530  0.39870  0.12670  1.0000
  H   H34       1.0  0.09470  0.60130  0.87330  1.0000
  H   H35       1.0  0.88320  0.28060  0.16190  1.0000
  H   H36       1.0  0.11680  0.71940  0.83810  1.0000
  C   C21       1.0  0.97300  0.33450  0.00480  1.0000
  C   C22       1.0  0.02700  0.66550  0.99520  1.0000
  H   H37       1.0  0.01800  0.37670  0.02090  1.0000
  H   H38       1.0  0.98200  0.62330  0.97910  1.0000
  C   C23       1.0  0.97980  0.37290  0.90500  1.0000
  C   C24       1.0  0.02020  0.62710  0.09500  1.0000
  H   H39       1.0  0.96470  0.44480  0.88160  1.0000
  H   H40       1.0  0.03530  0.55520  0.11840  1.0000
  H   H41       1.0  0.93140  0.33620  0.88760  1.0000
  H   H42       1.0  0.06860  0.66380  0.11240  1.0000
  C   C25       1.0  0.08530  0.35720  0.86660  1.0000
  C   C26       1.0  0.91470  0.64280  0.13340  1.0000
  H   H43       1.0  0.08840  0.37920  0.80300  1.0000
  H   H44       1.0  0.91160  0.62080  0.19700  1.0000
  H   H45       1.0  0.13340  0.39770  0.88020  1.0000
  H   H46       1.0  0.86660  0.60230  0.11980  1.0000
  C   C27       1.0  0.10940  0.24640  0.90580  1.0000
  C   C28       1.0  0.89060  0.75360  0.09420  1.0000
  H   H47       1.0  0.06360  0.20710  0.88850  1.0000
  H   H48       1.0  0.93640  0.79290  0.11150  1.0000
  H   H49       1.0  0.17600  0.23680  0.88260  1.0000
  H   H50       1.0  0.82400  0.76320  0.11740  1.0000
  C   C29       1.0  0.10290  0.20770  0.00370  1.0000
  C   C30       1.0  0.89710  0.79230  0.99630  1.0000
  H   H51       1.0  0.15420  0.24130  0.02100  1.0000
  H   H52       1.0  0.84580  0.75870  0.97900  1.0000
  H   H53       1.0  0.11500  0.13510  0.02630  1.0000
  H   H54       1.0  0.88500  0.86490  0.97370  1.0000
  C   C31       1.0  0.00320  0.22600  0.04410  1.0000
  C   C32       1.0  0.99680  0.77400  0.95590  1.0000
  H   H55       1.0  0.00650  0.20840  0.10730  1.0000
  H   H56       1.0  0.99350  0.79160  0.89270  1.0000
  C   C33       1.0  0.91810  0.06460  0.09910  1.0000
  C   C34       1.0  0.08190  0.93540  0.90090  1.0000
  H   H57       1.0  0.97180  0.02640  0.08340  1.0000
  H   H58       1.0  0.02820  0.97360  0.91660  1.0000
  H   H59       1.0  0.93090  0.06980  0.15420  1.0000
  H   H60       1.0  0.06910  0.93020  0.84580  1.0000
  C   C35       1.0  0.83940  0.01240  0.11360  1.0000
  C   C36       1.0  0.16060  0.98760  0.88640  1.0000
  H   H61       1.0  0.84070  0.95770  0.17070  1.0000
  H   H62       1.0  0.15930  0.04230  0.82930  1.0000
  H   H63       1.0  0.84300  0.98070  0.07040  1.0000
  H   H64       1.0  0.15700  0.01930  0.92960  1.0000
  C   C37       1.0  0.66850  0.99200  0.11320  1.0000
  C   C38       1.0  0.33150  0.00800  0.88680  1.0000
  H   H65       1.0  0.65990  0.93460  0.16910  1.0000
  H   H66       1.0  0.34010  0.06540  0.83090  1.0000
  H   H67       1.0  0.68440  0.96570  0.06690  1.0000
  H   H68       1.0  0.31560  0.03430  0.93310  1.0000
  C   C39       1.0  0.57640  0.04780  0.09910  1.0000
  C   C40       1.0  0.42360  0.95220  0.90090  1.0000
  H   H69       1.0  0.52280  0.00290  0.09930  1.0000
  H   H70       1.0  0.47720  0.99710  0.90070  1.0000
  H   H71       1.0  0.55910  0.07290  0.14590  1.0000
  H   H72       1.0  0.44090  0.92710  0.85410  1.0000
  C   C41       1.0  0.73160  0.50250  0.83830  1.0000
  C   C42       1.0  0.26840  0.49750  0.16170  1.0000
  C   C43       1.0  0.73930  0.61090  0.79840  1.0000
  C   C44       1.0  0.26070  0.38910  0.20160  1.0000
  C   C45       1.0  0.67630  0.66200  0.73760  1.0000
  C   C46       1.0  0.32370  0.33800  0.26240  1.0000
  C   C47       1.0  0.60490  0.60270  0.71500  1.0000
  C   C48       1.0  0.39510  0.39730  0.28500  1.0000
  C   C49       1.0  0.80090  0.12830  0.84420  1.0000
  C   C50       1.0  0.19910  0.87170  0.15580  1.0000
  C   C51       1.0  0.81120  0.05250  0.80720  1.0000
  C   C52       1.0  0.18880  0.94750  0.19280  1.0000
  C   C53       1.0  0.89050  0.05970  0.74480  1.0000
  C   C54       1.0  0.10950  0.94030  0.25520  1.0000
  C   C55       1.0  0.95570  0.14680  0.71940  1.0000
  C   C56       1.0  0.04430  0.85320  0.28060  1.0000
