data_image0
_chemical_formula_structural       O12C4O12C8H4C4H4C8H4C12H4O8C8H8Zn8N8C4O8C4O4N4C8H4O4C8H8C4H8C8H4C4N4C12H4C8H4C8H4C4H4C8H4C4H4C4H4C4H4
_chemical_formula_sum              "O48 C136 H80 Zn8 N16"
_cell_length_a       32.313
_cell_length_b       8.1801
_cell_length_c       18.4522
_cell_angle_alpha    90
_cell_angle_beta     90
_cell_angle_gamma    90

_space_group_name_H-M_alt    "P 1"
_space_group_IT_number       1

loop_
  _space_group_symop_operation_xyz
  'x, y, z'

loop_
  _atom_site_type_symbol
  _atom_site_label
  _atom_site_symmetry_multiplicity
  _atom_site_fract_x
  _atom_site_fract_y
  _atom_site_fract_z
  _atom_site_occupancy
  O   O1        1.0  0.08244  0.24110  0.97060  1.0000
  O   O2        1.0  0.91756  0.75890  0.47060  1.0000
  O   O3        1.0  0.58244  0.25890  0.97060  1.0000
  O   O4        1.0  0.41756  0.74110  0.47060  1.0000
  O   O5        1.0  0.06580  0.14780  0.08050  1.0000
  O   O6        1.0  0.93420  0.85220  0.58050  1.0000
  O   O7        1.0  0.56580  0.35220  0.08050  1.0000
  O   O8        1.0  0.43420  0.64780  0.58050  1.0000
  O   O9        1.0  0.48366  0.12760  0.07659  1.0000
  O   O10       1.0  0.51634  0.87240  0.57659  1.0000
  O   O11       1.0  0.98366  0.37240  0.07659  1.0000
  O   O12       1.0  0.01634  0.62760  0.57659  1.0000
  C   C1        1.0  0.08425  0.13800  0.02010  1.0000
  C   C2        1.0  0.91575  0.86200  0.52010  1.0000
  C   C3        1.0  0.58425  0.36200  0.02010  1.0000
  C   C4        1.0  0.41575  0.63800  0.52010  1.0000
  O   O13       1.0  0.46887  0.38270  0.11030  1.0000
  O   O14       1.0  0.53113  0.61730  0.61030  1.0000
  O   O15       1.0  0.96887  0.11730  0.11030  1.0000
  O   O16       1.0  0.03113  0.88270  0.61030  1.0000
  O   O17       1.0  0.31099  0.51870  0.92181  1.0000
  O   O18       1.0  0.68901  0.48130  0.42181  1.0000
  O   O19       1.0  0.81099  0.98130  0.92181  1.0000
  O   O20       1.0  0.18901  0.01870  0.42181  1.0000
  O   O21       1.0  0.31687  0.92110  0.92884  1.0000
  O   O22       1.0  0.68313  0.07890  0.42884  1.0000
  O   O23       1.0  0.81687  0.57890  0.92884  1.0000
  O   O24       1.0  0.18313  0.42110  0.42884  1.0000
  C   C5        1.0  0.46055  0.25360  0.07820  1.0000
  C   C6        1.0  0.53945  0.74640  0.57820  1.0000
  C   C7        1.0  0.96055  0.24640  0.07820  1.0000
  C   C8        1.0  0.03945  0.75360  0.57820  1.0000
  C   C9        1.0  0.40474  0.38100  0.00470  1.0000
  C   C10       1.0  0.59526  0.61900  0.50470  1.0000
  C   C11       1.0  0.90474  0.11900  0.00470  1.0000
  C   C12       1.0  0.09526  0.88100  0.50470  1.0000
  H   H1        1.0  0.41780  0.48110  0.01120  1.0000
  H   H2        1.0  0.58220  0.51890  0.51120  1.0000
  H   H3        1.0  0.91780  0.01890  0.01120  1.0000
  H   H4        1.0  0.08220  0.98110  0.51120  1.0000
  C   C13       1.0  0.40104  0.09120  0.02860  1.0000
  C   C14       1.0  0.59896  0.90880  0.52860  1.0000
  C   C15       1.0  0.90104  0.40880  0.02860  1.0000
  C   C16       1.0  0.09896  0.59120  0.52860  1.0000
  H   H5        1.0  0.41220  0.99780  0.04980  1.0000
  H   H6        1.0  0.58780  0.00220  0.54980  1.0000
  H   H7        1.0  0.91220  0.50220  0.04980  1.0000
  H   H8        1.0  0.08780  0.49780  0.54980  1.0000
  C   C17       1.0  0.42109  0.24180  0.03550  1.0000
  C   C18       1.0  0.57891  0.75820  0.53550  1.0000
  C   C19       1.0  0.92109  0.25820  0.03550  1.0000
  C   C20       1.0  0.07891  0.74180  0.53550  1.0000
  C   C21       1.0  0.34883  0.22130  0.95660  1.0000
  C   C22       1.0  0.65117  0.77870  0.45660  1.0000
  C   C23       1.0  0.84883  0.27870  0.95660  1.0000
  C   C24       1.0  0.15117  0.72130  0.45660  1.0000
  H   H9        1.0  0.32480  0.21340  0.92920  1.0000
  H   H10       1.0  0.67520  0.78660  0.42920  1.0000
  H   H11       1.0  0.82480  0.28660  0.92920  1.0000
  H   H12       1.0  0.17520  0.71340  0.42920  1.0000
  C   C25       1.0  0.36443  0.08270  0.98970  1.0000
  C   C26       1.0  0.63557  0.91730  0.48970  1.0000
  C   C27       1.0  0.86443  0.41730  0.98970  1.0000
  C   C28       1.0  0.13557  0.58270  0.48970  1.0000
  C   C29       1.0  0.36819  0.37150  0.96330  1.0000
  C   C30       1.0  0.63181  0.62850  0.46330  1.0000
  C   C31       1.0  0.86819  0.12850  0.96330  1.0000
  C   C32       1.0  0.13181  0.87150  0.46330  1.0000
  C   C33       1.0  0.93723  0.40310  0.31380  1.0000
  C   C34       1.0  0.06277  0.59690  0.81380  1.0000
  C   C35       1.0  0.43723  0.09690  0.31380  1.0000
  C   C36       1.0  0.56277  0.90310  0.81380  1.0000
  H   H13       1.0  0.91040  0.44010  0.30580  1.0000
  H   H14       1.0  0.08960  0.55990  0.80580  1.0000
  H   H15       1.0  0.41040  0.05990  0.30580  1.0000
  H   H16       1.0  0.58960  0.94010  0.80580  1.0000
  O   O25       1.0  0.37299  0.62610  0.90369  1.0000
  O   O26       1.0  0.62701  0.37390  0.40369  1.0000
  O   O27       1.0  0.87299  0.87390  0.90369  1.0000
  O   O28       1.0  0.12701  0.12610  0.40369  1.0000
  O   O29       1.0  0.34311  0.82160  0.03191  1.0000
  O   O30       1.0  0.65689  0.17840  0.53191  1.0000
  O   O31       1.0  0.84311  0.67840  0.03191  1.0000
  O   O32       1.0  0.15689  0.32160  0.53191  1.0000
  C   C37       1.0  0.35024  0.51700  0.92730  1.0000
  C   C38       1.0  0.64976  0.48300  0.42730  1.0000
  C   C39       1.0  0.85024  0.98300  0.92730  1.0000
  C   C40       1.0  0.14976  0.01700  0.42730  1.0000
  C   C41       1.0  0.33978  0.92720  0.98440  1.0000
  C   C42       1.0  0.66022  0.07280  0.48440  1.0000
  C   C43       1.0  0.83978  0.57280  0.98440  1.0000
  C   C44       1.0  0.16022  0.42720  0.48440  1.0000
  H   H17       1.0  0.07100  0.20680  0.36900  1.0000
  H   H18       1.0  0.92900  0.79320  0.86900  1.0000
  H   H19       1.0  0.57100  0.29320  0.36900  1.0000
  H   H20       1.0  0.42900  0.70680  0.86900  1.0000
  H   H21       1.0  0.18180  0.38230  0.13510  1.0000
  H   H22       1.0  0.81820  0.61770  0.63510  1.0000
  H   H23       1.0  0.68180  0.11770  0.13510  1.0000
  H   H24       1.0  0.31820  0.88230  0.63510  1.0000
  Zn  Zn1       1.0  0.03958  0.34476  0.11639  1.0000
  Zn  Zn2       1.0  0.96042  0.65524  0.61639  1.0000
  Zn  Zn3       1.0  0.53958  0.15524  0.11639  1.0000
  Zn  Zn4       1.0  0.46042  0.84476  0.61639  1.0000
  Zn  Zn5       1.0  0.28922  0.73028  0.89041  1.0000
  Zn  Zn6       1.0  0.71078  0.26972  0.39041  1.0000
  Zn  Zn7       1.0  0.78922  0.76972  0.89041  1.0000
  Zn  Zn8       1.0  0.21078  0.23028  0.39041  1.0000
  N   N1        1.0  0.03816  0.31480  0.22480  1.0000
  N   N2        1.0  0.96184  0.68520  0.72480  1.0000
  N   N3        1.0  0.53816  0.18520  0.22480  1.0000
  N   N4        1.0  0.46184  0.81480  0.72480  1.0000
  N   N5        1.0  0.21239  0.25380  0.28284  1.0000
  N   N6        1.0  0.78761  0.74620  0.78284  1.0000
  N   N7        1.0  0.71239  0.24620  0.28284  1.0000
  N   N8        1.0  0.28761  0.75380  0.78284  1.0000
  C   C45       1.0  0.21065  0.85070  0.92510  1.0000
  C   C46       1.0  0.78935  0.14930  0.42510  1.0000
  C   C47       1.0  0.71065  0.64930  0.92510  1.0000
  C   C48       1.0  0.28935  0.35070  0.42510  1.0000
  O   O33       1.0  0.23359  0.72720  0.93261  1.0000
  O   O34       1.0  0.76641  0.27280  0.43261  1.0000
  O   O35       1.0  0.73359  0.77280  0.93261  1.0000
  O   O36       1.0  0.26641  0.22720  0.43261  1.0000
  O   O37       1.0  0.06769  0.54450  0.09024  1.0000
  O   O38       1.0  0.93231  0.45550  0.59024  1.0000
  O   O39       1.0  0.56769  0.95550  0.09024  1.0000
  O   O40       1.0  0.43231  0.04450  0.59024  1.0000
  C   C49       1.0  0.17038  0.84750  0.96680  1.0000
  C   C50       1.0  0.82962  0.15250  0.46680  1.0000
  C   C51       1.0  0.67038  0.65250  0.96680  1.0000
  C   C52       1.0  0.32962  0.34750  0.46680  1.0000
  O   O41       1.0  0.21894  0.97140  0.88715  1.0000
  O   O42       1.0  0.78106  0.02860  0.38715  1.0000
  O   O43       1.0  0.71894  0.52860  0.88715  1.0000
  O   O44       1.0  0.28106  0.47140  0.38715  1.0000
  N   N9        1.0  0.05500  0.23370  0.33313  1.0000
  N   N10       1.0  0.94500  0.76630  0.83313  1.0000
  N   N11       1.0  0.55500  0.26630  0.33313  1.0000
  N   N12       1.0  0.44500  0.73370  0.83313  1.0000
  C   C53       1.0  0.18348  0.32100  0.23980  1.0000
  C   C54       1.0  0.81652  0.67900  0.73980  1.0000
  C   C55       1.0  0.68348  0.17900  0.23980  1.0000
  C   C56       1.0  0.31652  0.82100  0.73980  1.0000
  C   C57       1.0  0.09731  0.84270  0.04520  1.0000
  C   C58       1.0  0.90269  0.15730  0.54520  1.0000
  C   C59       1.0  0.59731  0.65730  0.04520  1.0000
  C   C60       1.0  0.40269  0.34270  0.54520  1.0000
  H   H25       1.0  0.07280  0.84130  0.07160  1.0000
  H   H26       1.0  0.92720  0.15870  0.57160  1.0000
  H   H27       1.0  0.57280  0.65870  0.07160  1.0000
  H   H28       1.0  0.42720  0.34130  0.57160  1.0000
  O   O45       1.0  0.13103  0.43730  0.09097  1.0000
  O   O46       1.0  0.86897  0.56270  0.59097  1.0000
  O   O47       1.0  0.63103  0.06270  0.09097  1.0000
  O   O48       1.0  0.36897  0.93730  0.59097  1.0000
  C   C61       1.0  0.12101  0.70190  0.04010  1.0000
  C   C62       1.0  0.87899  0.29810  0.54010  1.0000
  C   C63       1.0  0.62101  0.79810  0.04010  1.0000
  C   C64       1.0  0.37899  0.20190  0.54010  1.0000
  C   C65       1.0  0.11101  0.21970  0.24050  1.0000
  C   C66       1.0  0.88899  0.78030  0.74050  1.0000
  C   C67       1.0  0.61101  0.28030  0.24050  1.0000
  C   C68       1.0  0.38899  0.71970  0.74050  1.0000
  H   H29       1.0  0.12060  0.11850  0.26210  1.0000
  H   H30       1.0  0.87940  0.88150  0.76210  1.0000
  H   H31       1.0  0.62060  0.38150  0.26210  1.0000
  H   H32       1.0  0.37940  0.61850  0.76210  1.0000
  H   H33       1.0  0.11100  0.20590  0.18830  1.0000
  H   H34       1.0  0.88900  0.79410  0.68830  1.0000
  H   H35       1.0  0.61100  0.29410  0.18830  1.0000
  H   H36       1.0  0.38900  0.70590  0.68830  1.0000
  C   C69       1.0  0.14041  0.35840  0.26100  1.0000
  C   C70       1.0  0.85959  0.64160  0.76100  1.0000
  C   C71       1.0  0.64041  0.14160  0.26100  1.0000
  C   C72       1.0  0.35959  0.85840  0.76100  1.0000
  H   H37       1.0  0.13920  0.37640  0.31290  1.0000
  H   H38       1.0  0.86080  0.62360  0.81290  1.0000
  H   H39       1.0  0.63920  0.12360  0.31290  1.0000
  H   H40       1.0  0.36080  0.87640  0.81290  1.0000
  H   H41       1.0  0.13160  0.45820  0.23710  1.0000
  H   H42       1.0  0.86840  0.54180  0.73710  1.0000
  H   H43       1.0  0.63160  0.04180  0.23710  1.0000
  H   H44       1.0  0.36840  0.95820  0.73710  1.0000
  C   C73       1.0  0.10627  0.54740  0.07660  1.0000
  C   C74       1.0  0.89373  0.45260  0.57660  1.0000
  C   C75       1.0  0.60627  0.95260  0.07660  1.0000
  C   C76       1.0  0.39373  0.04740  0.57660  1.0000
  C   C77       1.0  0.15811  0.70540  0.00260  1.0000
  C   C78       1.0  0.84189  0.29460  0.50260  1.0000
  C   C79       1.0  0.65811  0.79460  0.00260  1.0000
  C   C80       1.0  0.34189  0.20540  0.50260  1.0000
  H   H45       1.0  0.17490  0.61300  0.00140  1.0000
  H   H46       1.0  0.82510  0.38700  0.50140  1.0000
  H   H47       1.0  0.67490  0.88700  0.00140  1.0000
  H   H48       1.0  0.32510  0.11300  0.50140  1.0000
  C   C81       1.0  0.00403  0.33660  0.27100  1.0000
  C   C82       1.0  0.99597  0.66340  0.77100  1.0000
  C   C83       1.0  0.50403  0.16340  0.27100  1.0000
  C   C84       1.0  0.49597  0.83660  0.77100  1.0000
  N   N13       1.0  0.19747  0.34840  0.17054  1.0000
  N   N14       1.0  0.80253  0.65160  0.67054  1.0000
  N   N15       1.0  0.69747  0.15160  0.17054  1.0000
  N   N16       1.0  0.30253  0.84840  0.67054  1.0000
  C   C85       1.0  0.01501  0.28340  0.34010  1.0000
  C   C86       1.0  0.98499  0.71660  0.84010  1.0000
  C   C87       1.0  0.51501  0.21660  0.34010  1.0000
  C   C88       1.0  0.48499  0.78340  0.84010  1.0000
  C   C89       1.0  0.23959  0.29870  0.17080  1.0000
  C   C90       1.0  0.76041  0.70130  0.67080  1.0000
  C   C91       1.0  0.73959  0.20130  0.17080  1.0000
  C   C92       1.0  0.26041  0.79870  0.67080  1.0000
  C   C93       1.0  0.28634  0.17160  0.25710  1.0000
  C   C94       1.0  0.71366  0.82840  0.75710  1.0000
  C   C95       1.0  0.78634  0.32840  0.25710  1.0000
  C   C96       1.0  0.21366  0.67160  0.75710  1.0000
  H   H49       1.0  0.29200  0.12680  0.30230  1.0000
  H   H50       1.0  0.70800  0.87320  0.80230  1.0000
  H   H51       1.0  0.79200  0.37320  0.30230  1.0000
  H   H52       1.0  0.20800  0.62680  0.80230  1.0000
  C   C97       1.0  0.06765  0.25470  0.26600  1.0000
  C   C98       1.0  0.93235  0.74530  0.76600  1.0000
  C   C99       1.0  0.56765  0.24530  0.26600  1.0000
  C   C100      1.0  0.43235  0.75470  0.76600  1.0000
  C   C101      1.0  0.14617  0.98670  0.97070  1.0000
  C   C102      1.0  0.85383  0.01330  0.47070  1.0000
  C   C103      1.0  0.64617  0.51330  0.97070  1.0000
  C   C104      1.0  0.35383  0.48670  0.47070  1.0000
  H   H53       1.0  0.15420  0.08100  0.94620  1.0000
  H   H54       1.0  0.84580  0.91900  0.44620  1.0000
  H   H55       1.0  0.65420  0.41900  0.94620  1.0000
  H   H56       1.0  0.34580  0.58100  0.44620  1.0000
  C   C105      1.0  0.10979  0.98570  0.01120  1.0000
  C   C106      1.0  0.89021  0.01430  0.51120  1.0000
  C   C107      1.0  0.60979  0.51430  0.01120  1.0000
  C   C108      1.0  0.39021  0.48570  0.51120  1.0000
  C   C109      1.0  0.94840  0.35280  0.38220  1.0000
  C   C110      1.0  0.05160  0.64720  0.88220  1.0000
  C   C111      1.0  0.44840  0.14720  0.38220  1.0000
  C   C112      1.0  0.55160  0.85280  0.88220  1.0000
  H   H57       1.0  0.92950  0.36380  0.41980  1.0000
  H   H58       1.0  0.07050  0.63620  0.91980  1.0000
  H   H59       1.0  0.42950  0.13620  0.41980  1.0000
  H   H60       1.0  0.57050  0.86380  0.91980  1.0000
  C   C113      1.0  0.96497  0.40010  0.25670  1.0000
  C   C114      1.0  0.03503  0.59990  0.75670  1.0000
  C   C115      1.0  0.46497  0.09990  0.25670  1.0000
  C   C116      1.0  0.53503  0.90010  0.75670  1.0000
  H   H61       1.0  0.95780  0.43860  0.21090  1.0000
  H   H62       1.0  0.04220  0.56140  0.71090  1.0000
  H   H63       1.0  0.45780  0.06140  0.21090  1.0000
  H   H64       1.0  0.54220  0.93860  0.71090  1.0000
  C   C117      1.0  0.24797  0.23730  0.24020  1.0000
  C   C118      1.0  0.75203  0.76270  0.74020  1.0000
  C   C119      1.0  0.74797  0.26270  0.24020  1.0000
  C   C120      1.0  0.25203  0.73730  0.74020  1.0000
  C   C121      1.0  0.26995  0.30230  0.11700  1.0000
  C   C122      1.0  0.73005  0.69770  0.61700  1.0000
  C   C123      1.0  0.76995  0.19770  0.11700  1.0000
  C   C124      1.0  0.23005  0.80230  0.61700  1.0000
  H   H65       1.0  0.26450  0.34380  0.07110  1.0000
  H   H66       1.0  0.73550  0.65620  0.57110  1.0000
  H   H67       1.0  0.76450  0.15620  0.07110  1.0000
  H   H68       1.0  0.23550  0.84380  0.57110  1.0000
  C   C125      1.0  0.31592  0.17670  0.20220  1.0000
  C   C126      1.0  0.68408  0.82330  0.70220  1.0000
  C   C127      1.0  0.81592  0.32330  0.20220  1.0000
  C   C128      1.0  0.18408  0.67670  0.70220  1.0000
  H   H69       1.0  0.34210  0.13430  0.21110  1.0000
  H   H70       1.0  0.65790  0.86570  0.71110  1.0000
  H   H71       1.0  0.84210  0.36570  0.21110  1.0000
  H   H72       1.0  0.15790  0.63430  0.71110  1.0000
  C   C129      1.0  0.98703  0.28630  0.39720  1.0000
  C   C130      1.0  0.01297  0.71370  0.89720  1.0000
  C   C131      1.0  0.48703  0.21370  0.39720  1.0000
  C   C132      1.0  0.51297  0.78630  0.89720  1.0000
  H   H73       1.0  0.99370  0.24590  0.44280  1.0000
  H   H74       1.0  0.00630  0.75410  0.94280  1.0000
  H   H75       1.0  0.49370  0.25410  0.44280  1.0000
  H   H76       1.0  0.50630  0.74590  0.94280  1.0000
  C   C133      1.0  0.30751  0.24280  0.13480  1.0000
  C   C134      1.0  0.69249  0.75720  0.63480  1.0000
  C   C135      1.0  0.80751  0.25720  0.13480  1.0000
  C   C136      1.0  0.19249  0.74280  0.63480  1.0000
  H   H77       1.0  0.32860  0.24640  0.10050  1.0000
  H   H78       1.0  0.67140  0.75360  0.60050  1.0000
  H   H79       1.0  0.82860  0.25360  0.10050  1.0000
  H   H80       1.0  0.17140  0.74640  0.60050  1.0000
