data_image0
_chemical_formula_structural       U8O64C16H16C8H16C24H16
_chemical_formula_sum              "U8 O64 C48 H48"
_cell_length_a       26.5307
_cell_length_b       17.3294
_cell_length_c       8.9347
_cell_angle_alpha    90
_cell_angle_beta     94.104
_cell_angle_gamma    90

_space_group_name_H-M_alt    "P 1"
_space_group_IT_number       1

loop_
  _space_group_symop_operation_xyz
  'x, y, z'

loop_
  _atom_site_type_symbol
  _atom_site_label
  _atom_site_symmetry_multiplicity
  _atom_site_fract_x
  _atom_site_fract_y
  _atom_site_fract_z
  _atom_site_occupancy
  U   U1        1.0  0.67815  0.17443  0.24028  1.0000
  U   U2        1.0  0.32185  0.17443  0.25972  1.0000
  U   U3        1.0  0.17815  0.67443  0.24028  1.0000
  U   U4        1.0  0.82185  0.67443  0.25972  1.0000
  U   U5        1.0  0.32185  0.82557  0.75972  1.0000
  U   U6        1.0  0.67815  0.82557  0.74028  1.0000
  U   U7        1.0  0.82185  0.32557  0.75972  1.0000
  U   U8        1.0  0.17815  0.32557  0.74028  1.0000
  O   O1        1.0  0.66240  0.17250  0.04560  1.0000
  O   O2        1.0  0.33760  0.17250  0.45440  1.0000
  O   O3        1.0  0.16240  0.67250  0.04560  1.0000
  O   O4        1.0  0.83760  0.67250  0.45440  1.0000
  O   O5        1.0  0.33760  0.82750  0.95440  1.0000
  O   O6        1.0  0.66240  0.82750  0.54560  1.0000
  O   O7        1.0  0.83760  0.32750  0.95440  1.0000
  O   O8        1.0  0.16240  0.32750  0.54560  1.0000
  O   O9        1.0  0.69320  0.17540  0.43510  1.0000
  O   O10       1.0  0.30680  0.17540  0.06490  1.0000
  O   O11       1.0  0.19320  0.67540  0.43510  1.0000
  O   O12       1.0  0.80680  0.67540  0.06490  1.0000
  O   O13       1.0  0.30680  0.82460  0.56490  1.0000
  O   O14       1.0  0.69320  0.82460  0.93510  1.0000
  O   O15       1.0  0.80680  0.32460  0.56490  1.0000
  O   O16       1.0  0.19320  0.32460  0.93510  1.0000
  O   O17       1.0  0.68300  0.03090  0.24480  1.0000
  O   O18       1.0  0.31700  0.03090  0.25520  1.0000
  O   O19       1.0  0.18300  0.53090  0.24480  1.0000
  O   O20       1.0  0.81700  0.53090  0.25520  1.0000
  O   O21       1.0  0.31700  0.96910  0.75520  1.0000
  O   O22       1.0  0.68300  0.96910  0.74480  1.0000
  O   O23       1.0  0.81700  0.46910  0.75520  1.0000
  O   O24       1.0  0.18300  0.46910  0.74480  1.0000
  O   O25       1.0  0.75160  0.09220  0.19950  1.0000
  O   O26       1.0  0.24840  0.09220  0.30050  1.0000
  O   O27       1.0  0.25160  0.59220  0.19950  1.0000
  O   O28       1.0  0.74840  0.59220  0.30050  1.0000
  O   O29       1.0  0.24840  0.90780  0.80050  1.0000
  O   O30       1.0  0.75160  0.90780  0.69950  1.0000
  O   O31       1.0  0.74840  0.40780  0.80050  1.0000
  O   O32       1.0  0.25160  0.40780  0.69950  1.0000
  O   O33       1.0  0.74630  0.74900  0.30040  1.0000
  O   O34       1.0  0.25370  0.74900  0.19960  1.0000
  O   O35       1.0  0.24630  0.24900  0.30040  1.0000
  O   O36       1.0  0.75370  0.24900  0.19960  1.0000
  O   O37       1.0  0.25370  0.25100  0.69960  1.0000
  O   O38       1.0  0.74630  0.25100  0.80040  1.0000
  O   O39       1.0  0.75370  0.75100  0.69960  1.0000
  O   O40       1.0  0.24630  0.75100  0.80040  1.0000
  O   O41       1.0  0.81330  0.81630  0.26690  1.0000
  O   O42       1.0  0.18670  0.81630  0.23310  1.0000
  O   O43       1.0  0.31330  0.31630  0.26690  1.0000
  O   O44       1.0  0.68670  0.31630  0.23310  1.0000
  O   O45       1.0  0.18670  0.18370  0.73310  1.0000
  O   O46       1.0  0.81330  0.18370  0.76690  1.0000
  O   O47       1.0  0.68670  0.68370  0.73310  1.0000
  O   O48       1.0  0.31330  0.68370  0.76690  1.0000
  O   O49       1.0  0.59710  0.24180  0.26470  1.0000
  O   O50       1.0  0.40290  0.24180  0.23530  1.0000
  O   O51       1.0  0.09710  0.74180  0.26470  1.0000
  O   O52       1.0  0.90290  0.74180  0.23530  1.0000
  O   O53       1.0  0.40290  0.75820  0.73530  1.0000
  O   O54       1.0  0.59710  0.75820  0.76470  1.0000
  O   O55       1.0  0.90290  0.25820  0.73530  1.0000
  O   O56       1.0  0.09710  0.25820  0.76470  1.0000
  O   O57       1.0  0.59500  0.11660  0.28590  1.0000
  O   O58       1.0  0.40500  0.11660  0.21410  1.0000
  O   O59       1.0  0.09500  0.61660  0.28590  1.0000
  O   O60       1.0  0.90500  0.61660  0.21410  1.0000
  O   O61       1.0  0.40500  0.88340  0.71410  1.0000
  O   O62       1.0  0.59500  0.88340  0.78590  1.0000
  O   O63       1.0  0.90500  0.38340  0.71410  1.0000
  O   O64       1.0  0.09500  0.38340  0.78590  1.0000
  C   C1        1.0  0.72890  0.02870  0.21690  1.0000
  C   C2        1.0  0.27110  0.02870  0.28310  1.0000
  C   C3        1.0  0.22890  0.52870  0.21690  1.0000
  C   C4        1.0  0.77110  0.52870  0.28310  1.0000
  C   C5        1.0  0.27110  0.97130  0.78310  1.0000
  C   C6        1.0  0.72890  0.97130  0.71690  1.0000
  C   C7        1.0  0.77110  0.47130  0.78310  1.0000
  C   C8        1.0  0.22890  0.47130  0.71690  1.0000
  C   C9        1.0  0.75790  0.95300  0.20850  1.0000
  C   C10       1.0  0.24210  0.95300  0.29150  1.0000
  C   C11       1.0  0.25790  0.45300  0.20850  1.0000
  C   C12       1.0  0.74210  0.45300  0.29150  1.0000
  C   C13       1.0  0.24210  0.04700  0.79150  1.0000
  C   C14       1.0  0.75790  0.04700  0.70850  1.0000
  C   C15       1.0  0.74210  0.54700  0.79150  1.0000
  C   C16       1.0  0.25790  0.54700  0.70850  1.0000
  H   H1        1.0  0.75930  0.93850  0.10170  1.0000
  H   H2        1.0  0.24070  0.93850  0.39830  1.0000
  H   H3        1.0  0.25930  0.43850  0.10170  1.0000
  H   H4        1.0  0.74070  0.43850  0.39830  1.0000
  H   H5        1.0  0.24070  0.06150  0.89830  1.0000
  H   H6        1.0  0.75930  0.06150  0.60170  1.0000
  H   H7        1.0  0.74070  0.56150  0.89830  1.0000
  H   H8        1.0  0.25930  0.56150  0.60170  1.0000
  H   H9        1.0  0.79310  0.96160  0.25000  1.0000
  H   H10       1.0  0.20690  0.96160  0.25000  1.0000
  H   H11       1.0  0.29310  0.46160  0.25000  1.0000
  H   H12       1.0  0.70690  0.46160  0.25000  1.0000
  H   H13       1.0  0.20690  0.03840  0.75000  1.0000
  H   H14       1.0  0.79310  0.03840  0.75000  1.0000
  H   H15       1.0  0.70690  0.53840  0.75000  1.0000
  H   H16       1.0  0.29310  0.53840  0.75000  1.0000
  C   C17       1.0  0.73640  0.88760  0.28900  1.0000
  C   C18       1.0  0.26360  0.88760  0.21100  1.0000
  C   C19       1.0  0.23640  0.38760  0.28900  1.0000
  C   C20       1.0  0.76360  0.38760  0.21100  1.0000
  C   C21       1.0  0.26360  0.11240  0.71100  1.0000
  C   C22       1.0  0.73640  0.11240  0.78900  1.0000
  C   C23       1.0  0.76360  0.61240  0.71100  1.0000
  C   C24       1.0  0.23640  0.61240  0.78900  1.0000
  H   H17       1.0  0.70190  0.87720  0.24420  1.0000
  H   H18       1.0  0.29810  0.87720  0.25580  1.0000
  H   H19       1.0  0.20190  0.37720  0.24420  1.0000
  H   H20       1.0  0.79810  0.37720  0.25580  1.0000
  H   H21       1.0  0.29810  0.12280  0.75580  1.0000
  H   H22       1.0  0.70190  0.12280  0.74420  1.0000
  H   H23       1.0  0.79810  0.62280  0.75580  1.0000
  H   H24       1.0  0.20190  0.62280  0.74420  1.0000
  H   H25       1.0  0.73340  0.90300  0.39500  1.0000
  H   H26       1.0  0.26660  0.90300  0.10500  1.0000
  H   H27       1.0  0.23340  0.40300  0.39500  1.0000
  H   H28       1.0  0.76660  0.40300  0.10500  1.0000
  H   H29       1.0  0.26660  0.09700  0.60500  1.0000
  H   H30       1.0  0.73340  0.09700  0.89500  1.0000
  H   H31       1.0  0.76660  0.59700  0.60500  1.0000
  H   H32       1.0  0.23340  0.59700  0.89500  1.0000
  C   C25       1.0  0.76710  0.81330  0.28720  1.0000
  C   C26       1.0  0.23290  0.81330  0.21280  1.0000
  C   C27       1.0  0.26710  0.31330  0.28720  1.0000
  C   C28       1.0  0.73290  0.31330  0.21280  1.0000
  C   C29       1.0  0.23290  0.18670  0.71280  1.0000
  C   C30       1.0  0.76710  0.18670  0.78720  1.0000
  C   C31       1.0  0.73290  0.68670  0.71280  1.0000
  C   C32       1.0  0.26710  0.68670  0.78720  1.0000
  C   C33       1.0  0.57450  0.18100  0.27100  1.0000
  C   C34       1.0  0.42550  0.18100  0.22900  1.0000
  C   C35       1.0  0.07450  0.68100  0.27100  1.0000
  C   C36       1.0  0.92550  0.68100  0.22900  1.0000
  C   C37       1.0  0.42550  0.81900  0.72900  1.0000
  C   C38       1.0  0.57450  0.81900  0.77100  1.0000
  C   C39       1.0  0.92550  0.31900  0.72900  1.0000
  C   C40       1.0  0.07450  0.31900  0.77100  1.0000
  C   C41       1.0  0.51960  0.18600  0.30800  1.0000
  C   C42       1.0  0.48040  0.18600  0.19200  1.0000
  C   C43       1.0  0.01960  0.68600  0.30800  1.0000
  C   C44       1.0  0.98040  0.68600  0.19200  1.0000
  C   C45       1.0  0.48040  0.81400  0.69200  1.0000
  C   C46       1.0  0.51960  0.81400  0.80800  1.0000
  C   C47       1.0  0.98040  0.31400  0.69200  1.0000
  C   C48       1.0  0.01960  0.31400  0.80800  1.0000
  H   H33       1.0  0.51330  0.14150  0.37500  1.0000
  H   H34       1.0  0.48670  0.14150  0.12500  1.0000
  H   H35       1.0  0.01330  0.64150  0.37500  1.0000
  H   H36       1.0  0.98670  0.64150  0.12500  1.0000
  H   H37       1.0  0.48670  0.85850  0.62500  1.0000
  H   H38       1.0  0.51330  0.85850  0.87500  1.0000
  H   H39       1.0  0.98670  0.35850  0.62500  1.0000
  H   H40       1.0  0.01330  0.35850  0.87500  1.0000
  H   H41       1.0  0.51580  0.23310  0.36770  1.0000
  H   H42       1.0  0.48420  0.23310  0.13230  1.0000
  H   H43       1.0  0.01580  0.73310  0.36770  1.0000
  H   H44       1.0  0.98420  0.73310  0.13230  1.0000
  H   H45       1.0  0.48420  0.76690  0.63230  1.0000
  H   H46       1.0  0.51580  0.76690  0.86770  1.0000
  H   H47       1.0  0.98420  0.26690  0.63230  1.0000
  H   H48       1.0  0.01580  0.26690  0.86770  1.0000
