data_image0
_chemical_formula_structural       Cr2Mn2O24C12H12
_chemical_formula_sum              "Cr2 Mn2 O24 C12 H12"
_cell_length_a       8.2675
_cell_length_b       8.2675
_cell_length_c       14.0576
_cell_angle_alpha    90
_cell_angle_beta     90
_cell_angle_gamma    120

_space_group_name_H-M_alt    "P 1"
_space_group_IT_number       1

loop_
  _space_group_symop_operation_xyz
  'x, y, z'

loop_
  _atom_site_type_symbol
  _atom_site_label
  _atom_site_symmetry_multiplicity
  _atom_site_fract_x
  _atom_site_fract_y
  _atom_site_fract_z
  _atom_site_occupancy
  Cr  Cr1       1.0  0.00000  0.00000  0.50000  1.0000
  Cr  Cr2       1.0  0.00000  0.00000  0.00000  1.0000
  Mn  Mn1       1.0  0.33330  0.66670  0.75000  1.0000
  Mn  Mn2       1.0  0.66670  0.33330  0.25000  1.0000
  O   O1        1.0  0.20337  0.19097  0.57954  1.0000
  O   O2        1.0  0.80903  0.01240  0.57954  1.0000
  O   O3        1.0  0.98760  0.79663  0.57954  1.0000
  O   O4        1.0  0.80903  0.79663  0.92046  1.0000
  O   O5        1.0  0.98760  0.19097  0.92046  1.0000
  O   O6        1.0  0.20337  0.01240  0.92046  1.0000
  O   O7        1.0  0.79663  0.80903  0.42046  1.0000
  O   O8        1.0  0.19097  0.98760  0.42046  1.0000
  O   O9        1.0  0.01240  0.20337  0.42046  1.0000
  O   O10       1.0  0.19097  0.20337  0.07954  1.0000
  O   O11       1.0  0.01240  0.80903  0.07954  1.0000
  O   O12       1.0  0.79663  0.98760  0.07954  1.0000
  O   O13       1.0  0.33690  0.44933  0.66542  1.0000
  O   O14       1.0  0.55067  0.88757  0.66542  1.0000
  O   O15       1.0  0.11243  0.66310  0.66542  1.0000
  O   O16       1.0  0.55067  0.66310  0.83458  1.0000
  O   O17       1.0  0.11243  0.44933  0.83458  1.0000
  O   O18       1.0  0.33690  0.88757  0.83458  1.0000
  O   O19       1.0  0.66310  0.55067  0.33458  1.0000
  O   O20       1.0  0.44933  0.11243  0.33458  1.0000
  O   O21       1.0  0.88757  0.33690  0.33458  1.0000
  O   O22       1.0  0.44933  0.33690  0.16542  1.0000
  O   O23       1.0  0.88757  0.55067  0.16542  1.0000
  O   O24       1.0  0.66310  0.11243  0.16542  1.0000
  C   C1        1.0  0.20914  0.33340  0.61572  1.0000
  C   C2        1.0  0.66660  0.87574  0.61572  1.0000
  C   C3        1.0  0.12426  0.79086  0.61572  1.0000
  C   C4        1.0  0.66660  0.79086  0.88428  1.0000
  C   C5        1.0  0.12426  0.33340  0.88428  1.0000
  C   C6        1.0  0.20914  0.87574  0.88428  1.0000
  C   C7        1.0  0.79086  0.66660  0.38428  1.0000
  C   C8        1.0  0.33340  0.12426  0.38428  1.0000
  C   C9        1.0  0.87574  0.20914  0.38428  1.0000
  C   C10       1.0  0.33340  0.20914  0.11572  1.0000
  C   C11       1.0  0.87574  0.66660  0.11572  1.0000
  C   C12       1.0  0.79086  0.12426  0.11572  1.0000
  H   H1        1.0  0.10690  0.35260  0.60360  1.0000
  H   H2        1.0  0.64740  0.75430  0.60360  1.0000
  H   H3        1.0  0.24570  0.89310  0.60360  1.0000
  H   H4        1.0  0.64740  0.89310  0.89640  1.0000
  H   H5        1.0  0.24570  0.35260  0.89640  1.0000
  H   H6        1.0  0.10690  0.75430  0.89640  1.0000
  H   H7        1.0  0.89310  0.64740  0.39640  1.0000
  H   H8        1.0  0.35260  0.24570  0.39640  1.0000
  H   H9        1.0  0.75430  0.10690  0.39640  1.0000
  H   H10       1.0  0.35260  0.10690  0.10360  1.0000
  H   H11       1.0  0.75430  0.64740  0.10360  1.0000
  H   H12       1.0  0.89310  0.24570  0.10360  1.0000
