data_image0
_chemical_formula_structural       Mn2O12C12O12H12Cr2
_chemical_formula_sum              "Mn2 O24 C12 H12 Cr2"
_cell_length_a       8.2876
_cell_length_b       8.2876
_cell_length_c       14.1138
_cell_angle_alpha    90
_cell_angle_beta     90
_cell_angle_gamma    120

_space_group_name_H-M_alt    "P 1"
_space_group_IT_number       1

loop_
  _space_group_symop_operation_xyz
  'x, y, z'

loop_
  _atom_site_type_symbol
  _atom_site_label
  _atom_site_symmetry_multiplicity
  _atom_site_fract_x
  _atom_site_fract_y
  _atom_site_fract_z
  _atom_site_occupancy
  Mn  Mn1       1.0  0.00000  0.00000  0.50000  1.0000
  Mn  Mn2       1.0  0.00000  0.00000  0.00000  1.0000
  O   O1        1.0  0.20080  0.19220  0.57955  1.0000
  O   O2        1.0  0.80780  0.00860  0.57955  1.0000
  O   O3        1.0  0.99140  0.79920  0.57955  1.0000
  O   O4        1.0  0.80780  0.79920  0.92045  1.0000
  O   O5        1.0  0.99140  0.19220  0.92045  1.0000
  O   O6        1.0  0.20080  0.00860  0.92045  1.0000
  O   O7        1.0  0.79920  0.80780  0.42045  1.0000
  O   O8        1.0  0.19220  0.99140  0.42045  1.0000
  O   O9        1.0  0.00860  0.20080  0.42045  1.0000
  O   O10       1.0  0.19220  0.20080  0.07955  1.0000
  O   O11       1.0  0.00860  0.80780  0.07955  1.0000
  O   O12       1.0  0.79920  0.99140  0.07955  1.0000
  C   C1        1.0  0.20680  0.33140  0.61699  1.0000
  C   C2        1.0  0.66860  0.87540  0.61699  1.0000
  C   C3        1.0  0.12460  0.79320  0.61699  1.0000
  C   C4        1.0  0.66860  0.79320  0.88301  1.0000
  C   C5        1.0  0.12460  0.33140  0.88301  1.0000
  C   C6        1.0  0.20680  0.87540  0.88301  1.0000
  C   C7        1.0  0.79320  0.66860  0.38301  1.0000
  C   C8        1.0  0.33140  0.12460  0.38301  1.0000
  C   C9        1.0  0.87540  0.20680  0.38301  1.0000
  C   C10       1.0  0.33140  0.20680  0.11699  1.0000
  C   C11       1.0  0.87540  0.66860  0.11699  1.0000
  C   C12       1.0  0.79320  0.12460  0.11699  1.0000
  O   O13       1.0  0.33380  0.44730  0.66584  1.0000
  O   O14       1.0  0.55270  0.88650  0.66584  1.0000
  O   O15       1.0  0.11350  0.66620  0.66584  1.0000
  O   O16       1.0  0.55270  0.66620  0.83416  1.0000
  O   O17       1.0  0.11350  0.44730  0.83416  1.0000
  O   O18       1.0  0.33380  0.88650  0.83416  1.0000
  O   O19       1.0  0.66620  0.55270  0.33416  1.0000
  O   O20       1.0  0.44730  0.11350  0.33416  1.0000
  O   O21       1.0  0.88650  0.33380  0.33416  1.0000
  O   O22       1.0  0.44730  0.33380  0.16584  1.0000
  O   O23       1.0  0.88650  0.55270  0.16584  1.0000
  O   O24       1.0  0.66620  0.11350  0.16584  1.0000
  H   H1        1.0  0.10550  0.34860  0.60680  1.0000
  H   H2        1.0  0.65140  0.75690  0.60680  1.0000
  H   H3        1.0  0.24310  0.89450  0.60680  1.0000
  H   H4        1.0  0.65140  0.89450  0.89320  1.0000
  H   H5        1.0  0.24310  0.34860  0.89320  1.0000
  H   H6        1.0  0.10550  0.75690  0.89320  1.0000
  H   H7        1.0  0.89450  0.65140  0.39320  1.0000
  H   H8        1.0  0.34860  0.24310  0.39320  1.0000
  H   H9        1.0  0.75690  0.10550  0.39320  1.0000
  H   H10       1.0  0.34860  0.10550  0.10680  1.0000
  H   H11       1.0  0.75690  0.65140  0.10680  1.0000
  H   H12       1.0  0.89450  0.24310  0.10680  1.0000
  Cr  Cr1       1.0  0.33330  0.66670  0.75000  1.0000
  Cr  Cr2       1.0  0.66670  0.33330  0.25000  1.0000
