data_image0
_chemical_formula_structural       Mn4O32C16H4C4H4C12H4C8H4C16H4C12H4C4H4C4H4C4H4C4H4C4
_chemical_formula_sum              "Mn4 O32 C88 H40"
_cell_length_a       15.681
_cell_length_b       9.294
_cell_length_c       18.891
_cell_angle_alpha    90
_cell_angle_beta     111.205
_cell_angle_gamma    90

_space_group_name_H-M_alt    "P 1"
_space_group_IT_number       1

loop_
  _space_group_symop_operation_xyz
  'x, y, z'

loop_
  _atom_site_type_symbol
  _atom_site_label
  _atom_site_symmetry_multiplicity
  _atom_site_fract_x
  _atom_site_fract_y
  _atom_site_fract_z
  _atom_site_occupancy
  Mn  Mn1       1.0  0.12727  0.92466  0.36528  1.0000
  Mn  Mn2       1.0  0.37273  0.42466  0.13472  1.0000
  Mn  Mn3       1.0  0.87273  0.07534  0.63472  1.0000
  Mn  Mn4       1.0  0.62727  0.57534  0.86528  1.0000
  O   O1        1.0  0.57830  0.70210  0.76590  1.0000
  O   O2        1.0  0.92170  0.20210  0.73410  1.0000
  O   O3        1.0  0.42170  0.29790  0.23410  1.0000
  O   O4        1.0  0.07830  0.79790  0.26590  1.0000
  O   O5        1.0  0.14850  0.74100  0.43260  1.0000
  O   O6        1.0  0.35150  0.24100  0.06740  1.0000
  O   O7        1.0  0.85150  0.25900  0.56740  1.0000
  O   O8        1.0  0.64850  0.75900  0.93260  1.0000
  O   O9        1.0  0.01110  0.00570  0.62620  1.0000
  O   O10       1.0  0.48890  0.50570  0.87380  1.0000
  O   O11       1.0  0.98890  0.99430  0.37380  1.0000
  O   O12       1.0  0.51110  0.49430  0.12620  1.0000
  O   O13       1.0  0.60750  0.59110  0.67320  1.0000
  O   O14       1.0  0.89250  0.09110  0.82680  1.0000
  O   O15       1.0  0.39250  0.40890  0.32680  1.0000
  O   O16       1.0  0.10750  0.90890  0.17320  1.0000
  O   O17       1.0  0.11830  0.61370  0.51880  1.0000
  O   O18       1.0  0.38170  0.11370  0.98120  1.0000
  O   O19       1.0  0.88170  0.38630  0.48120  1.0000
  O   O20       1.0  0.61830  0.88630  0.01880  1.0000
  O   O21       1.0  0.73730  0.99150  0.62580  1.0000
  O   O22       1.0  0.76270  0.49150  0.87420  1.0000
  O   O23       1.0  0.26270  0.00850  0.37420  1.0000
  O   O24       1.0  0.23730  0.50850  0.12580  1.0000
  O   O25       1.0  0.95270  0.88010  0.69570  1.0000
  O   O26       1.0  0.54730  0.38010  0.80430  1.0000
  O   O27       1.0  0.04730  0.11990  0.30430  1.0000
  O   O28       1.0  0.45270  0.61990  0.19570  1.0000
  O   O29       1.0  0.77960  0.94900  0.53080  1.0000
  O   O30       1.0  0.72040  0.44900  0.96920  1.0000
  O   O31       1.0  0.22040  0.05100  0.46920  1.0000
  O   O32       1.0  0.27960  0.55100  0.03080  1.0000
  C   C1        1.0  0.45780  0.69340  0.64450  1.0000
  C   C2        1.0  0.04220  0.19340  0.85550  1.0000
  C   C3        1.0  0.54220  0.30660  0.35550  1.0000
  C   C4        1.0  0.95780  0.80660  0.14450  1.0000
  C   C5        1.0  0.01500  0.90160  0.66940  1.0000
  C   C6        1.0  0.48500  0.40160  0.83060  1.0000
  C   C7        1.0  0.98500  0.09840  0.33060  1.0000
  C   C8        1.0  0.51500  0.59840  0.16940  1.0000
  C   C9        1.0  0.17250  0.68750  0.49820  1.0000
  C   C10       1.0  0.32750  0.18750  0.00180  1.0000
  C   C11       1.0  0.82750  0.31250  0.50180  1.0000
  C   C12       1.0  0.67250  0.81250  0.99820  1.0000
  C   C13       1.0  0.33910  0.71730  0.52150  1.0000
  C   C14       1.0  0.16090  0.21730  0.97850  1.0000
  C   C15       1.0  0.66090  0.28270  0.47850  1.0000
  C   C16       1.0  0.83910  0.78270  0.02150  1.0000
  H   H1        1.0  0.32140  0.72730  0.46920  1.0000
  H   H2        1.0  0.17860  0.22730  0.03080  1.0000
  H   H3        1.0  0.67860  0.27270  0.53080  1.0000
  H   H4        1.0  0.82140  0.77270  0.96920  1.0000
  C   C17       1.0  0.18520  0.61370  0.77510  1.0000
  C   C18       1.0  0.31480  0.11370  0.72490  1.0000
  C   C19       1.0  0.81480  0.38630  0.22490  1.0000
  C   C20       1.0  0.68520  0.88630  0.27510  1.0000
  H   H5        1.0  0.19630  0.55470  0.81730  1.0000
  H   H6        1.0  0.30370  0.05470  0.68270  1.0000
  H   H7        1.0  0.80370  0.44530  0.18270  1.0000
  H   H8        1.0  0.69630  0.94530  0.31730  1.0000
  C   C21       1.0  0.50050  0.73470  0.52790  1.0000
  C   C22       1.0  0.99950  0.23470  0.97210  1.0000
  C   C23       1.0  0.49950  0.26530  0.47210  1.0000
  C   C24       1.0  0.00050  0.76530  0.02790  1.0000
  C   C25       1.0  0.43360  0.71410  0.56560  1.0000
  C   C26       1.0  0.06640  0.21410  0.93440  1.0000
  C   C27       1.0  0.56640  0.28590  0.43440  1.0000
  C   C28       1.0  0.93360  0.78590  0.06560  1.0000
  C   C29       1.0  0.15630  0.79790  0.65290  1.0000
  C   C30       1.0  0.34370  0.29790  0.84710  1.0000
  C   C31       1.0  0.84370  0.20210  0.34710  1.0000
  C   C32       1.0  0.65630  0.70210  0.15290  1.0000
  H   H9        1.0  0.14710  0.86140  0.61270  1.0000
  H   H10       1.0  0.35290  0.36140  0.88730  1.0000
  H   H11       1.0  0.85290  0.13860  0.38730  1.0000
  H   H12       1.0  0.64710  0.63860  0.11270  1.0000
  C   C33       1.0  0.63850  0.84470  0.52430  1.0000
  C   C34       1.0  0.86150  0.34470  0.97570  1.0000
  C   C35       1.0  0.36150  0.15530  0.47570  1.0000
  C   C36       1.0  0.13850  0.65530  0.02430  1.0000
  C   C37       1.0  0.39100  0.68920  0.67570  1.0000
  C   C38       1.0  0.10900  0.18920  0.82430  1.0000
  C   C39       1.0  0.60900  0.31080  0.32430  1.0000
  C   C40       1.0  0.89100  0.81080  0.17570  1.0000
  H   H13       1.0  0.40890  0.67900  0.72810  1.0000
  H   H14       1.0  0.09110  0.17900  0.77190  1.0000
  H   H15       1.0  0.59110  0.32100  0.27190  1.0000
  H   H16       1.0  0.90890  0.82100  0.22810  1.0000
  C   C41       1.0  0.27070  0.70610  0.55270  1.0000
  C   C42       1.0  0.22930  0.20610  0.94730  1.0000
  C   C43       1.0  0.72930  0.29390  0.44730  1.0000
  C   C44       1.0  0.77070  0.79390  0.05270  1.0000
  C   C45       1.0  0.23020  0.70200  0.67290  1.0000
  C   C46       1.0  0.26980  0.20200  0.82710  1.0000
  C   C47       1.0  0.76980  0.29800  0.32710  1.0000
  C   C48       1.0  0.73020  0.79800  0.17290  1.0000
  C   C49       1.0  0.55690  0.66130  0.69810  1.0000
  C   C50       1.0  0.94310  0.16130  0.80190  1.0000
  C   C51       1.0  0.44310  0.33870  0.30190  1.0000
  C   C52       1.0  0.05690  0.83870  0.19810  1.0000
  C   C53       1.0  0.57390  0.82700  0.55760  1.0000
  C   C54       1.0  0.92610  0.32700  0.94240  1.0000
  C   C55       1.0  0.42610  0.17300  0.44240  1.0000
  C   C56       1.0  0.07390  0.67300  0.05760  1.0000
  H   H17       1.0  0.58000  0.87870  0.60140  1.0000
  H   H18       1.0  0.92000  0.37870  0.89860  1.0000
  H   H19       1.0  0.42000  0.12130  0.39860  1.0000
  H   H20       1.0  0.08000  0.62130  0.10140  1.0000
  C   C57       1.0  0.09650  0.79930  0.69240  1.0000
  C   C58       1.0  0.40350  0.29930  0.80760  1.0000
  C   C59       1.0  0.90350  0.20070  0.30760  1.0000
  C   C60       1.0  0.59650  0.70070  0.19240  1.0000
  C   C61       1.0  0.29710  0.69940  0.63260  1.0000
  C   C62       1.0  0.20290  0.19940  0.86740  1.0000
  C   C63       1.0  0.70290  0.30060  0.36740  1.0000
  C   C64       1.0  0.79710  0.80060  0.13260  1.0000
  C   C65       1.0  0.48920  0.66320  0.45980  1.0000
  C   C66       1.0  0.01080  0.16320  0.04020  1.0000
  C   C67       1.0  0.51080  0.33680  0.54020  1.0000
  C   C68       1.0  0.98920  0.83680  0.95980  1.0000
  H   H21       1.0  0.43920  0.60270  0.43820  1.0000
  H   H22       1.0  0.06080  0.10270  0.06180  1.0000
  H   H23       1.0  0.56080  0.39730  0.56180  1.0000
  H   H24       1.0  0.93920  0.89730  0.93820  1.0000
  C   C69       1.0  0.62730  0.77150  0.45630  1.0000
  C   C70       1.0  0.87270  0.27150  0.04370  1.0000
  C   C71       1.0  0.37270  0.22850  0.54370  1.0000
  C   C72       1.0  0.12730  0.72850  0.95630  1.0000
  H   H25       1.0  0.66980  0.78250  0.43280  1.0000
  H   H26       1.0  0.83020  0.28250  0.06720  1.0000
  H   H27       1.0  0.33020  0.21750  0.56720  1.0000
  H   H28       1.0  0.16980  0.71750  0.93280  1.0000
  C   C73       1.0  0.24410  0.60980  0.73500  1.0000
  C   C74       1.0  0.25590  0.10980  0.76500  1.0000
  C   C75       1.0  0.75590  0.39020  0.26500  1.0000
  C   C76       1.0  0.74410  0.89020  0.23500  1.0000
  H   H29       1.0  0.29290  0.54570  0.74930  1.0000
  H   H30       1.0  0.20710  0.04570  0.75070  1.0000
  H   H31       1.0  0.70710  0.45430  0.25070  1.0000
  H   H32       1.0  0.79290  0.95430  0.24930  1.0000
  C   C77       1.0  0.11060  0.70430  0.75310  1.0000
  C   C78       1.0  0.38940  0.20430  0.74690  1.0000
  C   C79       1.0  0.88940  0.29570  0.24690  1.0000
  C   C80       1.0  0.61060  0.79570  0.25310  1.0000
  H   H33       1.0  0.06970  0.70230  0.77850  1.0000
  H   H34       1.0  0.43030  0.20230  0.72150  1.0000
  H   H35       1.0  0.93030  0.29770  0.22150  1.0000
  H   H36       1.0  0.56970  0.79770  0.27850  1.0000
  C   C81       1.0  0.55150  0.68210  0.42470  1.0000
  C   C82       1.0  0.94850  0.18210  0.07530  1.0000
  C   C83       1.0  0.44850  0.31790  0.57530  1.0000
  C   C84       1.0  0.05150  0.81790  0.92470  1.0000
  H   H37       1.0  0.54300  0.63460  0.37930  1.0000
  H   H38       1.0  0.95700  0.13460  0.12070  1.0000
  H   H39       1.0  0.45700  0.36540  0.62070  1.0000
  H   H40       1.0  0.04300  0.86540  0.87930  1.0000
  C   C85       1.0  0.72390  0.93350  0.56180  1.0000
  C   C86       1.0  0.77610  0.43350  0.93820  1.0000
  C   C87       1.0  0.27610  0.06650  0.43820  1.0000
  C   C88       1.0  0.22390  0.56650  0.06180  1.0000
