data_image0
_chemical_formula_structural       C24H24Mn8O48
_chemical_formula_sum              "C24 H24 Mn8 O48"
_cell_length_a       12.1962
_cell_length_b       12.3675
_cell_length_c       12.8155
_cell_angle_alpha    90
_cell_angle_beta     91.428
_cell_angle_gamma    90

_space_group_name_H-M_alt    "P 1"
_space_group_IT_number       1

loop_
  _space_group_symop_operation_xyz
  'x, y, z'

loop_
  _atom_site_type_symbol
  _atom_site_label
  _atom_site_symmetry_multiplicity
  _atom_site_fract_x
  _atom_site_fract_y
  _atom_site_fract_z
  _atom_site_occupancy
  C   C1        1.0  0.24590  0.28245  0.26199  1.0000
  C   C2        1.0  0.25410  0.78245  0.23801  1.0000
  C   C3        1.0  0.75410  0.71755  0.73801  1.0000
  C   C4        1.0  0.74590  0.21755  0.76199  1.0000
  C   C5        1.0  0.72439  0.99767  0.01267  1.0000
  C   C6        1.0  0.77561  0.49767  0.48733  1.0000
  C   C7        1.0  0.27561  0.00233  0.98733  1.0000
  C   C8        1.0  0.22439  0.50233  0.51267  1.0000
  C   C9        1.0  0.23006  0.27129  0.75819  1.0000
  C   C10       1.0  0.26994  0.77129  0.74181  1.0000
  C   C11       1.0  0.76994  0.72871  0.24181  1.0000
  C   C12       1.0  0.73006  0.22871  0.25819  1.0000
  C   C13       1.0  0.78496  0.49548  0.97420  1.0000
  C   C14       1.0  0.71504  0.99548  0.52580  1.0000
  C   C15       1.0  0.21504  0.50452  0.02580  1.0000
  C   C16       1.0  0.28496  0.00452  0.47420  1.0000
  C   C17       1.0  0.98699  0.23116  0.04883  1.0000
  C   C18       1.0  0.51301  0.73116  0.45117  1.0000
  C   C19       1.0  0.01301  0.76884  0.95117  1.0000
  C   C20       1.0  0.48699  0.26884  0.54883  1.0000
  C   C21       1.0  0.48335  0.28929  0.00525  1.0000
  C   C22       1.0  0.01665  0.78929  0.49475  1.0000
  C   C23       1.0  0.51665  0.71071  0.99475  1.0000
  C   C24       1.0  0.98335  0.21071  0.50525  1.0000
  H   H1        1.0  0.48900  0.23700  0.06270  1.0000
  H   H2        1.0  0.01100  0.73700  0.43730  1.0000
  H   H3        1.0  0.51100  0.76300  0.93730  1.0000
  H   H4        1.0  0.98900  0.26300  0.56270  1.0000
  H   H5        1.0  0.98900  0.31000  0.07100  1.0000
  H   H6        1.0  0.51100  0.81000  0.42900  1.0000
  H   H7        1.0  0.01100  0.69000  0.92900  1.0000
  H   H8        1.0  0.48900  0.19000  0.57100  1.0000
  H   H9        1.0  0.18900  0.33900  0.26200  1.0000
  H   H10       1.0  0.31100  0.83900  0.23800  1.0000
  H   H11       1.0  0.81100  0.66100  0.73800  1.0000
  H   H12       1.0  0.68900  0.16100  0.76200  1.0000
  H   H13       1.0  0.28800  0.33000  0.76300  1.0000
  H   H14       1.0  0.21200  0.83000  0.73700  1.0000
  H   H15       1.0  0.71200  0.67000  0.23700  1.0000
  H   H16       1.0  0.78800  0.17000  0.26300  1.0000
  H   H17       1.0  0.73100  0.49200  0.91000  1.0000
  H   H18       1.0  0.76900  0.99200  0.59000  1.0000
  H   H19       1.0  0.26900  0.50800  0.09000  1.0000
  H   H20       1.0  0.23100  0.00800  0.41000  1.0000
  H   H21       1.0  0.78800  0.00100  0.06200  1.0000
  H   H22       1.0  0.71200  0.50100  0.43800  1.0000
  H   H23       1.0  0.21200  0.99900  0.93800  1.0000
  H   H24       1.0  0.28800  0.49900  0.56200  1.0000
  Mn  Mn1       1.0  0.23534  0.25497  0.01177  1.0000
  Mn  Mn2       1.0  0.26466  0.75497  0.48823  1.0000
  Mn  Mn3       1.0  0.76466  0.74503  0.98823  1.0000
  Mn  Mn4       1.0  0.73534  0.24503  0.51177  1.0000
  Mn  Mn5       1.0  0.73602  0.24709  0.01000  1.0000
  Mn  Mn6       1.0  0.76398  0.74709  0.49000  1.0000
  Mn  Mn7       1.0  0.26398  0.75291  0.99000  1.0000
  Mn  Mn8       1.0  0.23602  0.25291  0.51000  1.0000
  O   O1        1.0  0.19909  0.23455  0.84414  1.0000
  O   O2        1.0  0.30091  0.73455  0.65586  1.0000
  O   O3        1.0  0.80091  0.76545  0.15586  1.0000
  O   O4        1.0  0.69909  0.26545  0.34414  1.0000
  O   O5        1.0  0.57443  0.31667  0.96969  1.0000
  O   O6        1.0  0.92557  0.81667  0.53031  1.0000
  O   O7        1.0  0.42557  0.68333  0.03031  1.0000
  O   O8        1.0  0.07443  0.18333  0.46969  1.0000
  O   O9        1.0  0.89582  0.18502  0.04892  1.0000
  O   O10       1.0  0.60418  0.68502  0.45108  1.0000
  O   O11       1.0  0.10418  0.81498  0.95108  1.0000
  O   O12       1.0  0.39582  0.31498  0.54892  1.0000
  O   O13       1.0  0.07455  0.18937  0.02342  1.0000
  O   O14       1.0  0.42545  0.68937  0.47658  1.0000
  O   O15       1.0  0.92545  0.81063  0.97658  1.0000
  O   O16       1.0  0.57455  0.31063  0.52342  1.0000
  O   O17       1.0  0.27457  0.24117  0.34712  1.0000
  O   O18       1.0  0.22543  0.74117  0.15288  1.0000
  O   O19       1.0  0.72543  0.75883  0.65288  1.0000
  O   O20       1.0  0.77457  0.25883  0.84712  1.0000
  O   O21       1.0  0.83512  0.58315  0.99275  1.0000
  O   O22       1.0  0.66488  0.08315  0.50725  1.0000
  O   O23       1.0  0.16488  0.41685  0.00725  1.0000
  O   O24       1.0  0.33512  0.91685  0.49275  1.0000
  O   O25       1.0  0.39312  0.32397  0.97388  1.0000
  O   O26       1.0  0.10688  0.82397  0.52612  1.0000
  O   O27       1.0  0.60688  0.67603  0.02612  1.0000
  O   O28       1.0  0.89312  0.17603  0.47388  1.0000
  O   O29       1.0  0.67647  0.08408  0.99073  1.0000
  O   O30       1.0  0.82353  0.58408  0.50927  1.0000
  O   O31       1.0  0.32353  0.91592  0.00927  1.0000
  O   O32       1.0  0.17647  0.41592  0.49073  1.0000
  O   O33       1.0  0.19194  0.24098  0.67234  1.0000
  O   O34       1.0  0.30806  0.74098  0.82766  1.0000
  O   O35       1.0  0.80806  0.75902  0.32766  1.0000
  O   O36       1.0  0.69194  0.25902  0.17234  1.0000
  O   O37       1.0  0.69313  0.90642  0.97886  1.0000
  O   O38       1.0  0.80687  0.40642  0.52114  1.0000
  O   O39       1.0  0.30687  0.09358  0.02114  1.0000
  O   O40       1.0  0.19313  0.59358  0.47886  1.0000
  O   O41       1.0  0.28081  0.25435  0.17541  1.0000
  O   O42       1.0  0.21919  0.75435  0.32459  1.0000
  O   O43       1.0  0.71919  0.74565  0.82459  1.0000
  O   O44       1.0  0.78081  0.24565  0.67541  1.0000
  O   O45       1.0  0.79731  0.41199  0.02574  1.0000
  O   O46       1.0  0.70269  0.91199  0.47426  1.0000
  O   O47       1.0  0.20269  0.58801  0.97426  1.0000
  O   O48       1.0  0.29731  0.08801  0.52574  1.0000
