data_image0
_chemical_formula_structural       Zn20P24O72C48H24
_chemical_formula_sum              "Zn20 P24 O72 C48 H24"
_cell_length_a       8.5337
_cell_length_b       16.1764
_cell_length_c       19.9903
_cell_angle_alpha    90
_cell_angle_beta     90
_cell_angle_gamma    90

_space_group_name_H-M_alt    "P 1"
_space_group_IT_number       1

loop_
  _space_group_symop_operation_xyz
  'x, y, z'

loop_
  _atom_site_type_symbol
  _atom_site_label
  _atom_site_symmetry_multiplicity
  _atom_site_fract_x
  _atom_site_fract_y
  _atom_site_fract_z
  _atom_site_occupancy
  Zn  Zn1       1.0  0.61020  0.24800  0.11700  1.0000
  Zn  Zn2       1.0  0.38980  0.75200  0.11700  1.0000
  Zn  Zn3       1.0  0.11020  0.25200  0.11700  1.0000
  Zn  Zn4       1.0  0.88980  0.74800  0.11700  1.0000
  Zn  Zn5       1.0  0.11020  0.74800  0.61700  1.0000
  Zn  Zn6       1.0  0.88980  0.25200  0.61700  1.0000
  Zn  Zn7       1.0  0.61020  0.75200  0.61700  1.0000
  Zn  Zn8       1.0  0.38980  0.24800  0.61700  1.0000
  Zn  Zn9       1.0  0.60270  0.24300  0.29200  1.0000
  Zn  Zn10      1.0  0.39730  0.75700  0.29200  1.0000
  Zn  Zn11      1.0  0.10270  0.25700  0.29200  1.0000
  Zn  Zn12      1.0  0.89730  0.74300  0.29200  1.0000
  Zn  Zn13      1.0  0.10270  0.74300  0.79200  1.0000
  Zn  Zn14      1.0  0.89730  0.25700  0.79200  1.0000
  Zn  Zn15      1.0  0.60270  0.75700  0.79200  1.0000
  Zn  Zn16      1.0  0.39730  0.24300  0.79200  1.0000
  Zn  Zn17      1.0  0.50000  0.50000  0.45300  1.0000
  Zn  Zn18      1.0  0.00000  0.00000  0.45300  1.0000
  Zn  Zn19      1.0  0.00000  0.00000  0.95300  1.0000
  Zn  Zn20      1.0  0.50000  0.50000  0.95300  1.0000
  P   P1        1.0  0.84370  0.34280  0.20700  1.0000
  P   P2        1.0  0.15630  0.65720  0.20700  1.0000
  P   P3        1.0  0.34370  0.15720  0.20700  1.0000
  P   P4        1.0  0.65630  0.84280  0.20700  1.0000
  P   P5        1.0  0.34370  0.84280  0.70700  1.0000
  P   P6        1.0  0.65630  0.15720  0.70700  1.0000
  P   P7        1.0  0.84370  0.65720  0.70700  1.0000
  P   P8        1.0  0.15630  0.34280  0.70700  1.0000
  P   P9        1.0  0.62400  0.62110  0.06800  1.0000
  P   P10       1.0  0.37600  0.37890  0.06800  1.0000
  P   P11       1.0  0.12400  0.87890  0.06800  1.0000
  P   P12       1.0  0.87600  0.12110  0.06800  1.0000
  P   P13       1.0  0.12400  0.12110  0.56800  1.0000
  P   P14       1.0  0.87600  0.87890  0.56800  1.0000
  P   P15       1.0  0.62400  0.37890  0.56800  1.0000
  P   P16       1.0  0.37600  0.62110  0.56800  1.0000
  P   P17       1.0  0.64100  0.62000  0.34400  1.0000
  P   P18       1.0  0.35900  0.38000  0.34400  1.0000
  P   P19       1.0  0.14100  0.88000  0.34400  1.0000
  P   P20       1.0  0.85900  0.12000  0.34400  1.0000
  P   P21       1.0  0.14100  0.12000  0.84400  1.0000
  P   P22       1.0  0.85900  0.88000  0.84400  1.0000
  P   P23       1.0  0.64100  0.38000  0.84400  1.0000
  P   P24       1.0  0.35900  0.62000  0.84400  1.0000
  O   O1        1.0  0.73700  0.69400  0.06300  1.0000
  O   O2        1.0  0.26300  0.30600  0.06300  1.0000
  O   O3        1.0  0.23700  0.80600  0.06300  1.0000
  O   O4        1.0  0.76300  0.19400  0.06300  1.0000
  O   O5        1.0  0.23700  0.19400  0.56300  1.0000
  O   O6        1.0  0.76300  0.80600  0.56300  1.0000
  O   O7        1.0  0.73700  0.30600  0.56300  1.0000
  O   O8        1.0  0.26300  0.69400  0.56300  1.0000
  O   O9        1.0  0.46000  0.65100  0.07700  1.0000
  O   O10       1.0  0.54000  0.34900  0.07700  1.0000
  O   O11       1.0  0.96000  0.84900  0.07700  1.0000
  O   O12       1.0  0.04000  0.15100  0.07700  1.0000
  O   O13       1.0  0.96000  0.15100  0.57700  1.0000
  O   O14       1.0  0.04000  0.84900  0.57700  1.0000
  O   O15       1.0  0.46000  0.34900  0.57700  1.0000
  O   O16       1.0  0.54000  0.65100  0.57700  1.0000
  O   O17       1.0  0.93000  0.32700  0.14100  1.0000
  O   O18       1.0  0.07000  0.67300  0.14100  1.0000
  O   O19       1.0  0.43000  0.17300  0.14100  1.0000
  O   O20       1.0  0.57000  0.82700  0.14100  1.0000
  O   O21       1.0  0.43000  0.82700  0.64100  1.0000
  O   O22       1.0  0.57000  0.17300  0.64100  1.0000
  O   O23       1.0  0.93000  0.67300  0.64100  1.0000
  O   O24       1.0  0.07000  0.32700  0.64100  1.0000
  O   O25       1.0  0.69890  0.28370  0.20700  1.0000
  O   O26       1.0  0.30110  0.71630  0.20700  1.0000
  O   O27       1.0  0.19890  0.21630  0.20700  1.0000
  O   O28       1.0  0.80110  0.78370  0.20700  1.0000
  O   O29       1.0  0.19890  0.78370  0.70700  1.0000
  O   O30       1.0  0.80110  0.21630  0.70700  1.0000
  O   O31       1.0  0.69890  0.71630  0.70700  1.0000
  O   O32       1.0  0.30110  0.28370  0.70700  1.0000
  O   O33       1.0  0.94100  0.33500  0.26800  1.0000
  O   O34       1.0  0.05900  0.66500  0.26800  1.0000
  O   O35       1.0  0.44100  0.16500  0.26800  1.0000
  O   O36       1.0  0.55900  0.83500  0.26800  1.0000
  O   O37       1.0  0.44100  0.83500  0.76800  1.0000
  O   O38       1.0  0.55900  0.16500  0.76800  1.0000
  O   O39       1.0  0.94100  0.66500  0.76800  1.0000
  O   O40       1.0  0.05900  0.33500  0.76800  1.0000
  O   O41       1.0  0.47200  0.66300  0.34100  1.0000
  O   O42       1.0  0.52800  0.33700  0.34100  1.0000
  O   O43       1.0  0.97200  0.83700  0.34100  1.0000
  O   O44       1.0  0.02800  0.16300  0.34100  1.0000
  O   O45       1.0  0.97200  0.16300  0.84100  1.0000
  O   O46       1.0  0.02800  0.83700  0.84100  1.0000
  O   O47       1.0  0.47200  0.33700  0.84100  1.0000
  O   O48       1.0  0.52800  0.66300  0.84100  1.0000
  O   O49       1.0  0.76300  0.68500  0.34800  1.0000
  O   O50       1.0  0.23700  0.31500  0.34800  1.0000
  O   O51       1.0  0.26300  0.81500  0.34800  1.0000
  O   O52       1.0  0.73700  0.18500  0.34800  1.0000
  O   O53       1.0  0.26300  0.18500  0.84800  1.0000
  O   O54       1.0  0.73700  0.81500  0.84800  1.0000
  O   O55       1.0  0.76300  0.31500  0.84800  1.0000
  O   O56       1.0  0.23700  0.68500  0.84800  1.0000
  O   O57       1.0  0.64700  0.56300  0.40100  1.0000
  O   O58       1.0  0.35300  0.43700  0.40100  1.0000
  O   O59       1.0  0.14700  0.93700  0.40100  1.0000
  O   O60       1.0  0.85300  0.06300  0.40100  1.0000
  O   O61       1.0  0.14700  0.06300  0.90100  1.0000
  O   O62       1.0  0.85300  0.93700  0.90100  1.0000
  O   O63       1.0  0.64700  0.43700  0.90100  1.0000
  O   O64       1.0  0.35300  0.56300  0.90100  1.0000
  O   O65       1.0  0.63300  0.56300  0.00900  1.0000
  O   O66       1.0  0.36700  0.43700  0.00900  1.0000
  O   O67       1.0  0.13300  0.93700  0.00900  1.0000
  O   O68       1.0  0.86700  0.06300  0.00900  1.0000
  O   O69       1.0  0.13300  0.06300  0.50900  1.0000
  O   O70       1.0  0.86700  0.93700  0.50900  1.0000
  O   O71       1.0  0.63300  0.43700  0.50900  1.0000
  O   O72       1.0  0.36700  0.56300  0.50900  1.0000
  C   C1        1.0  0.77200  0.44670  0.20600  1.0000
  C   C2        1.0  0.22800  0.55330  0.20600  1.0000
  C   C3        1.0  0.27200  0.05330  0.20600  1.0000
  C   C4        1.0  0.72800  0.94670  0.20600  1.0000
  C   C5        1.0  0.27200  0.94670  0.70600  1.0000
  C   C6        1.0  0.72800  0.05330  0.70600  1.0000
  C   C7        1.0  0.77200  0.55330  0.70600  1.0000
  C   C8        1.0  0.22800  0.44670  0.70600  1.0000
  C   C9        1.0  0.66400  0.56600  0.14500  1.0000
  C   C10       1.0  0.33600  0.43400  0.14500  1.0000
  C   C11       1.0  0.16400  0.93400  0.14500  1.0000
  C   C12       1.0  0.83600  0.06600  0.14500  1.0000
  C   C13       1.0  0.16400  0.06600  0.64500  1.0000
  C   C14       1.0  0.83600  0.93400  0.64500  1.0000
  C   C15       1.0  0.66400  0.43400  0.64500  1.0000
  C   C16       1.0  0.33600  0.56600  0.64500  1.0000
  C   C17       1.0  0.67900  0.56800  0.26500  1.0000
  C   C18       1.0  0.32100  0.43200  0.26500  1.0000
  C   C19       1.0  0.17900  0.93200  0.26500  1.0000
  C   C20       1.0  0.82100  0.06800  0.26500  1.0000
  C   C21       1.0  0.17900  0.06800  0.76500  1.0000
  C   C22       1.0  0.82100  0.93200  0.76500  1.0000
  C   C23       1.0  0.67900  0.43200  0.76500  1.0000
  C   C24       1.0  0.32100  0.56800  0.76500  1.0000
  C   C25       1.0  0.63700  0.60490  0.20500  1.0000
  C   C26       1.0  0.36300  0.39510  0.20500  1.0000
  C   C27       1.0  0.13700  0.89510  0.20500  1.0000
  C   C28       1.0  0.86300  0.10490  0.20500  1.0000
  C   C29       1.0  0.13700  0.10490  0.70500  1.0000
  C   C30       1.0  0.86300  0.89510  0.70500  1.0000
  C   C31       1.0  0.63700  0.39510  0.70500  1.0000
  C   C32       1.0  0.36300  0.60490  0.70500  1.0000
  C   C33       1.0  0.73000  0.48700  0.14400  1.0000
  C   C34       1.0  0.27000  0.51300  0.14400  1.0000
  C   C35       1.0  0.23000  0.01300  0.14400  1.0000
  C   C36       1.0  0.77000  0.98700  0.14400  1.0000
  C   C37       1.0  0.23000  0.98700  0.64400  1.0000
  C   C38       1.0  0.77000  0.01300  0.64400  1.0000
  C   C39       1.0  0.73000  0.51300  0.64400  1.0000
  C   C40       1.0  0.27000  0.48700  0.64400  1.0000
  C   C41       1.0  0.74800  0.48800  0.26500  1.0000
  C   C42       1.0  0.25200  0.51200  0.26500  1.0000
  C   C43       1.0  0.24800  0.01200  0.26500  1.0000
  C   C44       1.0  0.75200  0.98800  0.26500  1.0000
  C   C45       1.0  0.24800  0.98800  0.76500  1.0000
  C   C46       1.0  0.75200  0.01200  0.76500  1.0000
  C   C47       1.0  0.74800  0.51200  0.76500  1.0000
  C   C48       1.0  0.25200  0.48800  0.76500  1.0000
  H   H1        1.0  0.57600  0.65100  0.20500  1.0000
  H   H2        1.0  0.42400  0.34900  0.20500  1.0000
  H   H3        1.0  0.07600  0.84900  0.20500  1.0000
  H   H4        1.0  0.92400  0.15100  0.20500  1.0000
  H   H5        1.0  0.07600  0.15100  0.70500  1.0000
  H   H6        1.0  0.92400  0.84900  0.70500  1.0000
  H   H7        1.0  0.57600  0.34900  0.70500  1.0000
  H   H8        1.0  0.42400  0.65100  0.70500  1.0000
  H   H9        1.0  0.72500  0.45700  0.10700  1.0000
  H   H10       1.0  0.27500  0.54300  0.10700  1.0000
  H   H11       1.0  0.22500  0.04300  0.10700  1.0000
  H   H12       1.0  0.77500  0.95700  0.10700  1.0000
  H   H13       1.0  0.22500  0.95700  0.60700  1.0000
  H   H14       1.0  0.77500  0.04300  0.60700  1.0000
  H   H15       1.0  0.72500  0.54300  0.60700  1.0000
  H   H16       1.0  0.27500  0.45700  0.60700  1.0000
  H   H17       1.0  0.80000  0.47100  0.30200  1.0000
  H   H18       1.0  0.20000  0.52900  0.30200  1.0000
  H   H19       1.0  0.30000  0.02900  0.30200  1.0000
  H   H20       1.0  0.70000  0.97100  0.30200  1.0000
  H   H21       1.0  0.30000  0.97100  0.80200  1.0000
  H   H22       1.0  0.70000  0.02900  0.80200  1.0000
  H   H23       1.0  0.80000  0.52900  0.80200  1.0000
  H   H24       1.0  0.20000  0.47100  0.80200  1.0000
