data_image0
_chemical_formula_structural       Gd4O48N16C4H8C4H8C4H8C4H8C4H8C8H8C8H8C8H8C12H8C4H8C8H8C4H8
_chemical_formula_sum              "Gd4 O48 N16 C72 H96"
_cell_length_a       12.8459
_cell_length_b       15.0445
_cell_length_c       18.1516
_cell_angle_alpha    90
_cell_angle_beta     91.623
_cell_angle_gamma    90

_space_group_name_H-M_alt    "P 1"
_space_group_IT_number       1

loop_
  _space_group_symop_operation_xyz
  'x, y, z'

loop_
  _atom_site_type_symbol
  _atom_site_label
  _atom_site_symmetry_multiplicity
  _atom_site_fract_x
  _atom_site_fract_y
  _atom_site_fract_z
  _atom_site_occupancy
  Gd  Gd1       1.0  0.19311  0.07957  0.77088  1.0000
  Gd  Gd2       1.0  0.80689  0.57957  0.72912  1.0000
  Gd  Gd3       1.0  0.80689  0.92043  0.22912  1.0000
  Gd  Gd4       1.0  0.19311  0.42043  0.27088  1.0000
  O   O1        1.0  0.87870  0.01910  0.85310  1.0000
  O   O2        1.0  0.12130  0.51910  0.64690  1.0000
  O   O3        1.0  0.12130  0.98090  0.14690  1.0000
  O   O4        1.0  0.87870  0.48090  0.35310  1.0000
  O   O5        1.0  0.01180  0.04430  0.78160  1.0000
  O   O6        1.0  0.98820  0.54430  0.71840  1.0000
  O   O7        1.0  0.98820  0.95570  0.21840  1.0000
  O   O8        1.0  0.01180  0.45570  0.28160  1.0000
  O   O9        1.0  0.29020  0.18860  0.83220  1.0000
  O   O10       1.0  0.70980  0.68860  0.66780  1.0000
  O   O11       1.0  0.70980  0.81140  0.16780  1.0000
  O   O12       1.0  0.29020  0.31140  0.33220  1.0000
  O   O13       1.0  0.33700  0.25090  0.93950  1.0000
  O   O14       1.0  0.66300  0.75090  0.56050  1.0000
  O   O15       1.0  0.66300  0.74910  0.06050  1.0000
  O   O16       1.0  0.33700  0.24910  0.43950  1.0000
  O   O17       1.0  0.15710  0.02340  0.65320  1.0000
  O   O18       1.0  0.84290  0.52340  0.84680  1.0000
  O   O19       1.0  0.84290  0.97660  0.34680  1.0000
  O   O20       1.0  0.15710  0.47660  0.15320  1.0000
  O   O21       1.0  0.17540  0.02450  0.53280  1.0000
  O   O22       1.0  0.82460  0.52450  0.96720  1.0000
  O   O23       1.0  0.82460  0.97550  0.46720  1.0000
  O   O24       1.0  0.17540  0.47550  0.03280  1.0000
  O   O25       1.0  0.36800  0.01820  0.76850  1.0000
  O   O26       1.0  0.63200  0.51820  0.73150  1.0000
  O   O27       1.0  0.63200  0.98180  0.23150  1.0000
  O   O28       1.0  0.36800  0.48180  0.26850  1.0000
  O   O29       1.0  0.53620  0.05470  0.77460  1.0000
  O   O30       1.0  0.46380  0.55470  0.72540  1.0000
  O   O31       1.0  0.46380  0.94530  0.22540  1.0000
  O   O32       1.0  0.53620  0.44530  0.27460  1.0000
  O   O33       1.0  0.18300  0.91180  0.80010  1.0000
  O   O34       1.0  0.81700  0.41180  0.69990  1.0000
  O   O35       1.0  0.81700  0.08820  0.19990  1.0000
  O   O36       1.0  0.18300  0.58820  0.30010  1.0000
  O   O37       1.0  0.20430  0.00680  0.89100  1.0000
  O   O38       1.0  0.79570  0.50680  0.60900  1.0000
  O   O39       1.0  0.79570  0.99320  0.10900  1.0000
  O   O40       1.0  0.20430  0.49320  0.39100  1.0000
  O   O41       1.0  0.64850  0.18780  0.59690  1.0000
  O   O42       1.0  0.35150  0.68780  0.90310  1.0000
  O   O43       1.0  0.35150  0.81220  0.40310  1.0000
  O   O44       1.0  0.64850  0.31220  0.09690  1.0000
  O   O45       1.0  0.66990  0.16590  0.47800  1.0000
  O   O46       1.0  0.33010  0.66590  0.02200  1.0000
  O   O47       1.0  0.33010  0.83410  0.52200  1.0000
  O   O48       1.0  0.66990  0.33410  0.97800  1.0000
  N   N1        1.0  0.10580  0.22030  0.70060  1.0000
  N   N2        1.0  0.89420  0.72030  0.79940  1.0000
  N   N3        1.0  0.89420  0.77970  0.29940  1.0000
  N   N4        1.0  0.10580  0.27970  0.20060  1.0000
  N   N5        1.0  0.31630  0.14690  0.67360  1.0000
  N   N6        1.0  0.68370  0.64690  0.82640  1.0000
  N   N7        1.0  0.68370  0.85310  0.32640  1.0000
  N   N8        1.0  0.31630  0.35310  0.17360  1.0000
  N   N9        1.0  0.08580  0.17830  0.86440  1.0000
  N   N10       1.0  0.91420  0.67830  0.63560  1.0000
  N   N11       1.0  0.91420  0.82170  0.13560  1.0000
  N   N12       1.0  0.08580  0.32170  0.36440  1.0000
  N   N13       1.0  0.84710  0.26980  0.60370  1.0000
  N   N14       1.0  0.15290  0.76980  0.89630  1.0000
  N   N15       1.0  0.15290  0.73020  0.39630  1.0000
  N   N16       1.0  0.84710  0.23020  0.10370  1.0000
  C   C1        1.0  0.17780  0.25430  0.64380  1.0000
  C   C2        1.0  0.82220  0.75430  0.85620  1.0000
  C   C3        1.0  0.82220  0.74570  0.35620  1.0000
  C   C4        1.0  0.17780  0.24570  0.14380  1.0000
  H   H1        1.0  0.16130  0.22330  0.59610  1.0000
  H   H2        1.0  0.83870  0.72330  0.90390  1.0000
  H   H3        1.0  0.83870  0.77670  0.40390  1.0000
  H   H4        1.0  0.16130  0.27670  0.09610  1.0000
  H   H5        1.0  0.16400  0.31910  0.63610  1.0000
  H   H6        1.0  0.83600  0.81910  0.86390  1.0000
  H   H7        1.0  0.83600  0.68090  0.36390  1.0000
  H   H8        1.0  0.16400  0.18090  0.13610  1.0000
  C   C5        1.0  0.28700  0.24240  0.66180  1.0000
  C   C6        1.0  0.71300  0.74240  0.83820  1.0000
  C   C7        1.0  0.71300  0.75760  0.33820  1.0000
  C   C8        1.0  0.28700  0.25760  0.16180  1.0000
  H   H9        1.0  0.30500  0.27680  0.70750  1.0000
  H   H10       1.0  0.69500  0.77680  0.79250  1.0000
  H   H11       1.0  0.69500  0.72320  0.29250  1.0000
  H   H12       1.0  0.30500  0.22320  0.20750  1.0000
  H   H13       1.0  0.32880  0.26720  0.62100  1.0000
  H   H14       1.0  0.67120  0.76720  0.87900  1.0000
  H   H15       1.0  0.67120  0.73280  0.37900  1.0000
  H   H16       1.0  0.32880  0.23280  0.12100  1.0000
  C   C9        1.0  0.03160  0.25080  0.82300  1.0000
  C   C10       1.0  0.96840  0.75080  0.67700  1.0000
  C   C11       1.0  0.96840  0.74920  0.17700  1.0000
  C   C12       1.0  0.03160  0.24920  0.32300  1.0000
  H   H17       1.0  0.01740  0.30060  0.85770  1.0000
  H   H18       1.0  0.98260  0.80060  0.64230  1.0000
  H   H19       1.0  0.98260  0.69940  0.14230  1.0000
  H   H20       1.0  0.01740  0.19940  0.35770  1.0000
  H   H21       1.0  0.96300  0.22800  0.80360  1.0000
  H   H22       1.0  0.03700  0.72800  0.69640  1.0000
  H   H23       1.0  0.03700  0.77200  0.19640  1.0000
  H   H24       1.0  0.96300  0.27200  0.30360  1.0000
  C   C13       1.0  0.09240  0.28670  0.75920  1.0000
  C   C14       1.0  0.90760  0.78670  0.74080  1.0000
  C   C15       1.0  0.90760  0.71330  0.24080  1.0000
  C   C16       1.0  0.09240  0.21330  0.25920  1.0000
  H   H25       1.0  0.05520  0.33960  0.73800  1.0000
  H   H26       1.0  0.94480  0.83960  0.76200  1.0000
  H   H27       1.0  0.94480  0.66040  0.26200  1.0000
  H   H28       1.0  0.05520  0.16040  0.23800  1.0000
  H   H29       1.0  0.16250  0.30670  0.77790  1.0000
  H   H30       1.0  0.83750  0.80670  0.72210  1.0000
  H   H31       1.0  0.83750  0.69330  0.22210  1.0000
  H   H32       1.0  0.16250  0.19330  0.27790  1.0000
  C   C17       1.0  0.30930  0.09180  0.60710  1.0000
  C   C18       1.0  0.69070  0.59180  0.89290  1.0000
  C   C19       1.0  0.69070  0.90820  0.39290  1.0000
  C   C20       1.0  0.30930  0.40820  0.10710  1.0000
  H   H33       1.0  0.36660  0.04680  0.60930  1.0000
  H   H34       1.0  0.63340  0.54680  0.89070  1.0000
  H   H35       1.0  0.63340  0.95320  0.39070  1.0000
  H   H36       1.0  0.36660  0.45320  0.10930  1.0000
  H   H37       1.0  0.32040  0.13030  0.56310  1.0000
  H   H38       1.0  0.67960  0.63030  0.93690  1.0000
  H   H39       1.0  0.67960  0.86970  0.43690  1.0000
  H   H40       1.0  0.32040  0.36970  0.06310  1.0000
  C   C21       1.0  0.20640  0.04380  0.59680  1.0000
  C   C22       1.0  0.79360  0.54380  0.90320  1.0000
  C   C23       1.0  0.79360  0.95620  0.40320  1.0000
  C   C24       1.0  0.20640  0.45620  0.09680  1.0000
  C   C25       1.0  0.16040  0.21480  0.92080  1.0000
  C   C26       1.0  0.83960  0.71480  0.57920  1.0000
  C   C27       1.0  0.83960  0.78520  0.07920  1.0000
  C   C28       1.0  0.16040  0.28520  0.42080  1.0000
  H   H41       1.0  0.15800  0.17710  0.96610  1.0000
  H   H42       1.0  0.84200  0.67710  0.53390  1.0000
  H   H43       1.0  0.84200  0.82290  0.03390  1.0000
  H   H44       1.0  0.15800  0.32290  0.46610  1.0000
  H   H45       1.0  0.13750  0.27610  0.93440  1.0000
  H   H46       1.0  0.86250  0.77610  0.56560  1.0000
  H   H47       1.0  0.86250  0.72390  0.06560  1.0000
  H   H48       1.0  0.13750  0.22390  0.43440  1.0000
  C   C29       1.0  0.27160  0.21920  0.89600  1.0000
  C   C30       1.0  0.72840  0.71920  0.60400  1.0000
  C   C31       1.0  0.72840  0.78080  0.10400  1.0000
  C   C32       1.0  0.27160  0.28080  0.39600  1.0000
  C   C33       1.0  0.00750  0.12000  0.89670  1.0000
  C   C34       1.0  0.99250  0.62000  0.60330  1.0000
  C   C35       1.0  0.99250  0.88000  0.10330  1.0000
  C   C36       1.0  0.00750  0.38000  0.39670  1.0000
  H   H49       1.0  0.95050  0.15720  0.91700  1.0000
  H   H50       1.0  0.04950  0.65720  0.58300  1.0000
  H   H51       1.0  0.04950  0.84280  0.08300  1.0000
  H   H52       1.0  0.95050  0.34280  0.41700  1.0000
  H   H53       1.0  0.04040  0.08560  0.93830  1.0000
  H   H54       1.0  0.95960  0.58560  0.56170  1.0000
  H   H55       1.0  0.95960  0.91440  0.06170  1.0000
  H   H56       1.0  0.04040  0.41440  0.43830  1.0000
  C   C37       1.0  0.96150  0.05590  0.84000  1.0000
  C   C38       1.0  0.03850  0.55590  0.66000  1.0000
  C   C39       1.0  0.03850  0.94410  0.16000  1.0000
  C   C40       1.0  0.96150  0.44410  0.34000  1.0000
  C   C41       1.0  0.42390  0.14620  0.70390  1.0000
  C   C42       1.0  0.57610  0.64620  0.79610  1.0000
  C   C43       1.0  0.57610  0.85380  0.29610  1.0000
  C   C44       1.0  0.42390  0.35380  0.20390  1.0000
  H   H57       1.0  0.43660  0.20150  0.73340  1.0000
  H   H58       1.0  0.56340  0.70150  0.76660  1.0000
  H   H59       1.0  0.56340  0.79850  0.26660  1.0000
  H   H60       1.0  0.43660  0.29850  0.23340  1.0000
  H   H61       1.0  0.47360  0.14590  0.66250  1.0000
  H   H62       1.0  0.52640  0.64590  0.83750  1.0000
  H   H63       1.0  0.52640  0.85410  0.33750  1.0000
  H   H64       1.0  0.47360  0.35410  0.16250  1.0000
  C   C45       1.0  0.44440  0.06650  0.75210  1.0000
  C   C46       1.0  0.55560  0.56650  0.74790  1.0000
  C   C47       1.0  0.55560  0.93350  0.24790  1.0000
  C   C48       1.0  0.44440  0.43350  0.25210  1.0000
  C   C49       1.0  0.19240  0.92780  0.86750  1.0000
  C   C50       1.0  0.80760  0.42780  0.63250  1.0000
  C   C51       1.0  0.80760  0.07220  0.13250  1.0000
  C   C52       1.0  0.19240  0.57220  0.36750  1.0000
  C   C53       1.0  0.19070  0.85520  0.92480  1.0000
  C   C54       1.0  0.80930  0.35520  0.57520  1.0000
  C   C55       1.0  0.80930  0.14480  0.07520  1.0000
  C   C56       1.0  0.19070  0.64480  0.42480  1.0000
  H   H65       1.0  0.26280  0.84710  0.94590  1.0000
  H   H66       1.0  0.73720  0.34710  0.55410  1.0000
  H   H67       1.0  0.73720  0.15290  0.05410  1.0000
  H   H68       1.0  0.26280  0.65290  0.44590  1.0000
  H   H69       1.0  0.14530  0.87450  0.96570  1.0000
  H   H70       1.0  0.85470  0.37450  0.53430  1.0000
  H   H71       1.0  0.85470  0.12550  0.03430  1.0000
  H   H72       1.0  0.14530  0.62550  0.46570  1.0000
  C   C57       1.0  0.82010  0.19800  0.55100  1.0000
  C   C58       1.0  0.17990  0.69800  0.94900  1.0000
  C   C59       1.0  0.17990  0.80200  0.44900  1.0000
  C   C60       1.0  0.82010  0.30200  0.05100  1.0000
  H   H73       1.0  0.85390  0.14160  0.56840  1.0000
  H   H74       1.0  0.14610  0.64160  0.93160  1.0000
  H   H75       1.0  0.14610  0.85840  0.43160  1.0000
  H   H76       1.0  0.85390  0.35840  0.06840  1.0000
  H   H77       1.0  0.84890  0.21310  0.50200  1.0000
  H   H78       1.0  0.15110  0.71310  0.99800  1.0000
  H   H79       1.0  0.15110  0.78690  0.49800  1.0000
  H   H80       1.0  0.84890  0.28690  0.00200  1.0000
  C   C61       1.0  0.70370  0.18300  0.54190  1.0000
  C   C62       1.0  0.29630  0.68300  0.95810  1.0000
  C   C63       1.0  0.29630  0.81700  0.45810  1.0000
  C   C64       1.0  0.70370  0.31700  0.04190  1.0000
  C   C65       1.0  0.96030  0.27660  0.61500  1.0000
  C   C66       1.0  0.03970  0.77660  0.88500  1.0000
  C   C67       1.0  0.03970  0.72340  0.38500  1.0000
  C   C68       1.0  0.96030  0.22340  0.11500  1.0000
  H   H81       1.0  0.97720  0.33400  0.64040  1.0000
  H   H82       1.0  0.02280  0.83400  0.85960  1.0000
  H   H83       1.0  0.02280  0.66600  0.35960  1.0000
  H   H84       1.0  0.97720  0.16600  0.14040  1.0000
  H   H85       1.0  0.99390  0.27740  0.56600  1.0000
  H   H86       1.0  0.00610  0.77740  0.93400  1.0000
  H   H87       1.0  0.00610  0.72260  0.43400  1.0000
  H   H88       1.0  0.99390  0.22260  0.06600  1.0000
  C   C69       1.0  0.00590  0.19940  0.66120  1.0000
  C   C70       1.0  0.99410  0.69940  0.83880  1.0000
  C   C71       1.0  0.99410  0.80060  0.33880  1.0000
  C   C72       1.0  0.00590  0.30060  0.16120  1.0000
  H   H89       1.0  0.95380  0.18130  0.69830  1.0000
  H   H90       1.0  0.04620  0.68130  0.80170  1.0000
  H   H91       1.0  0.04620  0.81870  0.30170  1.0000
  H   H92       1.0  0.95380  0.31870  0.19830  1.0000
  H   H93       1.0  0.01700  0.14740  0.62800  1.0000
  H   H94       1.0  0.98300  0.64740  0.87200  1.0000
  H   H95       1.0  0.98300  0.85260  0.37200  1.0000
  H   H96       1.0  0.01700  0.35260  0.12800  1.0000
