data_image0
_chemical_formula_structural       Zn4O16C12H4C8O16C8H4C12
_chemical_formula_sum              "Zn4 O32 C40 H8"
_cell_length_a       9.4116
_cell_length_b       13.2967
_cell_length_c       14.9365
_cell_angle_alpha    90
_cell_angle_beta     98.019
_cell_angle_gamma    90

_space_group_name_H-M_alt    "P 1"
_space_group_IT_number       1

loop_
  _space_group_symop_operation_xyz
  'x, y, z'

loop_
  _atom_site_type_symbol
  _atom_site_label
  _atom_site_symmetry_multiplicity
  _atom_site_fract_x
  _atom_site_fract_y
  _atom_site_fract_z
  _atom_site_occupancy
  Zn  Zn1       1.0  0.03224  0.86839  0.65580  1.0000
  Zn  Zn2       1.0  0.96776  0.36839  0.84420  1.0000
  Zn  Zn3       1.0  0.96776  0.13161  0.34420  1.0000
  Zn  Zn4       1.0  0.03224  0.63161  0.15580  1.0000
  O   O1        1.0  0.87831  0.93992  0.57346  1.0000
  O   O2        1.0  0.12169  0.43992  0.92654  1.0000
  O   O3        1.0  0.12169  0.06008  0.42654  1.0000
  O   O4        1.0  0.87831  0.56008  0.07346  1.0000
  O   O5        1.0  0.75290  0.88346  0.67771  1.0000
  O   O6        1.0  0.24710  0.38346  0.82229  1.0000
  O   O7        1.0  0.24710  0.11654  0.32229  1.0000
  O   O8        1.0  0.75290  0.61654  0.17771  1.0000
  O   O9        1.0  0.80034  0.07416  0.38906  1.0000
  O   O10       1.0  0.19966  0.57416  0.11094  1.0000
  O   O11       1.0  0.19966  0.92584  0.61094  1.0000
  O   O12       1.0  0.80034  0.42584  0.88906  1.0000
  O   O13       1.0  0.82316  0.16056  0.51950  1.0000
  O   O14       1.0  0.17684  0.66056  0.98050  1.0000
  O   O15       1.0  0.17684  0.83944  0.48050  1.0000
  O   O16       1.0  0.82316  0.33944  0.01950  1.0000
  C   C1        1.0  0.62820  0.97078  0.55241  1.0000
  C   C2        1.0  0.37180  0.47078  0.94759  1.0000
  C   C3        1.0  0.37180  0.02922  0.44759  1.0000
  C   C4        1.0  0.62820  0.52922  0.05241  1.0000
  C   C5        1.0  0.63020  0.04428  0.48554  1.0000
  C   C6        1.0  0.36980  0.54428  0.01446  1.0000
  C   C7        1.0  0.36980  0.95572  0.51446  1.0000
  C   C8        1.0  0.63020  0.45572  0.98554  1.0000
  C   C9        1.0  0.49760  0.92813  0.56651  1.0000
  C   C10       1.0  0.50240  0.42813  0.93349  1.0000
  C   C11       1.0  0.50240  0.07187  0.43349  1.0000
  C   C12       1.0  0.49760  0.57187  0.06651  1.0000
  H   H1        1.0  0.49630  0.87920  0.61270  1.0000
  H   H2        1.0  0.50370  0.37920  0.88730  1.0000
  H   H3        1.0  0.50370  0.12080  0.38730  1.0000
  H   H4        1.0  0.49630  0.62080  0.11270  1.0000
  C   C13       1.0  0.76150  0.92954  0.60636  1.0000
  C   C14       1.0  0.23850  0.42954  0.89364  1.0000
  C   C15       1.0  0.23850  0.07046  0.39364  1.0000
  C   C16       1.0  0.76150  0.57046  0.10636  1.0000
  C   C17       1.0  0.76430  0.09738  0.46576  1.0000
  C   C18       1.0  0.23570  0.59738  0.03424  1.0000
  C   C19       1.0  0.23570  0.90262  0.53424  1.0000
  C   C20       1.0  0.76430  0.40262  0.96576  1.0000
  O   O17       1.0  0.20752  0.67090  0.66424  1.0000
  O   O18       1.0  0.79248  0.17090  0.83576  1.0000
  O   O19       1.0  0.79248  0.32910  0.33576  1.0000
  O   O20       1.0  0.20752  0.82910  0.16424  1.0000
  O   O21       1.0  0.98353  0.72814  0.62750  1.0000
  O   O22       1.0  0.01647  0.22814  0.87250  1.0000
  O   O23       1.0  0.01647  0.27186  0.37250  1.0000
  O   O24       1.0  0.98353  0.77186  0.12750  1.0000
  O   O25       1.0  0.95309  0.37636  0.71149  1.0000
  O   O26       1.0  0.04691  0.87636  0.78851  1.0000
  O   O27       1.0  0.04691  0.62364  0.28851  1.0000
  O   O28       1.0  0.95309  0.12364  0.21149  1.0000
  O   O29       1.0  0.96070  0.54056  0.73844  1.0000
  O   O30       1.0  0.03930  0.04056  0.76156  1.0000
  O   O31       1.0  0.03930  0.45944  0.26156  1.0000
  O   O32       1.0  0.96070  0.95944  0.23844  1.0000
  C   C21       1.0  0.04020  0.57553  0.56367  1.0000
  C   C22       1.0  0.95980  0.07553  0.93633  1.0000
  C   C23       1.0  0.95980  0.42447  0.43633  1.0000
  C   C24       1.0  0.04020  0.92447  0.06367  1.0000
  C   C25       1.0  0.05760  0.58931  0.47342  1.0000
  C   C26       1.0  0.94240  0.08931  0.02658  1.0000
  C   C27       1.0  0.94240  0.41069  0.52658  1.0000
  C   C28       1.0  0.05760  0.91069  0.97342  1.0000
  H   H5        1.0  0.09730  0.65040  0.45520  1.0000
  H   H6        1.0  0.90270  0.15040  0.04480  1.0000
  H   H7        1.0  0.90270  0.34960  0.54480  1.0000
  H   H8        1.0  0.09730  0.84960  0.95520  1.0000
  C   C29       1.0  0.98240  0.48514  0.59029  1.0000
  C   C30       1.0  0.01760  0.98514  0.90971  1.0000
  C   C31       1.0  0.01760  0.51486  0.40971  1.0000
  C   C32       1.0  0.98240  0.01486  0.09029  1.0000
  C   C33       1.0  0.08230  0.66294  0.62596  1.0000
  C   C34       1.0  0.91770  0.16294  0.87404  1.0000
  C   C35       1.0  0.91770  0.33706  0.37404  1.0000
  C   C36       1.0  0.08230  0.83706  0.12596  1.0000
  C   C37       1.0  0.96420  0.46679  0.68687  1.0000
  C   C38       1.0  0.03580  0.96679  0.81313  1.0000
  C   C39       1.0  0.03580  0.53321  0.31313  1.0000
  C   C40       1.0  0.96420  0.03321  0.18687  1.0000
