data_image0
_chemical_formula_structural       Cd4O32C8H8C32
_chemical_formula_sum              "Cd4 O32 C40 H8"
_cell_length_a       10.392
_cell_length_b       12.459
_cell_length_c       15.726
_cell_angle_alpha    90
_cell_angle_beta     94.25
_cell_angle_gamma    90

_space_group_name_H-M_alt    "P 1"
_space_group_IT_number       1

loop_
  _space_group_symop_operation_xyz
  'x, y, z'

loop_
  _atom_site_type_symbol
  _atom_site_label
  _atom_site_symmetry_multiplicity
  _atom_site_fract_x
  _atom_site_fract_y
  _atom_site_fract_z
  _atom_site_occupancy
  Cd  Cd1       1.0  0.50000  0.49448  0.75000  1.0000
  Cd  Cd2       1.0  0.00000  0.99448  0.75000  1.0000
  Cd  Cd3       1.0  0.50000  0.50552  0.25000  1.0000
  Cd  Cd4       1.0  0.00000  0.00552  0.25000  1.0000
  O   O1        1.0  0.90691  0.87312  0.82656  1.0000
  O   O2        1.0  0.09309  0.87312  0.67344  1.0000
  O   O3        1.0  0.40691  0.37312  0.82656  1.0000
  O   O4        1.0  0.59309  0.37312  0.67344  1.0000
  O   O5        1.0  0.09309  0.12688  0.17344  1.0000
  O   O6        1.0  0.90691  0.12688  0.32656  1.0000
  O   O7        1.0  0.59309  0.62688  0.17344  1.0000
  O   O8        1.0  0.40691  0.62688  0.32656  1.0000
  O   O9        1.0  0.71262  0.81903  0.77233  1.0000
  O   O10       1.0  0.28738  0.81903  0.72767  1.0000
  O   O11       1.0  0.21262  0.31903  0.77233  1.0000
  O   O12       1.0  0.78738  0.31903  0.72767  1.0000
  O   O13       1.0  0.28738  0.18097  0.22767  1.0000
  O   O14       1.0  0.71262  0.18097  0.27233  1.0000
  O   O15       1.0  0.78738  0.68097  0.22767  1.0000
  O   O16       1.0  0.21262  0.68097  0.27233  1.0000
  O   O17       1.0  0.69232  0.57138  0.81480  1.0000
  O   O18       1.0  0.30768  0.57138  0.68520  1.0000
  O   O19       1.0  0.19232  0.07138  0.81480  1.0000
  O   O20       1.0  0.80768  0.07138  0.68520  1.0000
  O   O21       1.0  0.30768  0.42862  0.18520  1.0000
  O   O22       1.0  0.69232  0.42862  0.31480  1.0000
  O   O23       1.0  0.80768  0.92862  0.18520  1.0000
  O   O24       1.0  0.19232  0.92862  0.31480  1.0000
  O   O25       1.0  0.50545  0.62278  0.85667  1.0000
  O   O26       1.0  0.49455  0.62278  0.64333  1.0000
  O   O27       1.0  0.00545  0.12278  0.85667  1.0000
  O   O28       1.0  0.99455  0.12278  0.64333  1.0000
  O   O29       1.0  0.49455  0.37722  0.14333  1.0000
  O   O30       1.0  0.50545  0.37722  0.35667  1.0000
  O   O31       1.0  0.99455  0.87722  0.14333  1.0000
  O   O32       1.0  0.00545  0.87722  0.35667  1.0000
  C   C1        1.0  0.66919  0.66518  0.01167  1.0000
  C   C2        1.0  0.33081  0.66518  0.48833  1.0000
  C   C3        1.0  0.16919  0.16518  0.01167  1.0000
  C   C4        1.0  0.83081  0.16518  0.48833  1.0000
  C   C5        1.0  0.33081  0.33482  0.98833  1.0000
  C   C6        1.0  0.66919  0.33482  0.51167  1.0000
  C   C7        1.0  0.83081  0.83482  0.98833  1.0000
  C   C8        1.0  0.16919  0.83482  0.51167  1.0000
  H   H1        1.0  0.61340  0.60720  0.01940  1.0000
  H   H2        1.0  0.38660  0.60720  0.48060  1.0000
  H   H3        1.0  0.11340  0.10720  0.01940  1.0000
  H   H4        1.0  0.88660  0.10720  0.48060  1.0000
  H   H5        1.0  0.38660  0.39280  0.98060  1.0000
  H   H6        1.0  0.61340  0.39280  0.51940  1.0000
  H   H7        1.0  0.88660  0.89280  0.98060  1.0000
  H   H8        1.0  0.11340  0.89280  0.51940  1.0000
  C   C9        1.0  0.69112  0.69659  0.92904  1.0000
  C   C10       1.0  0.30888  0.69659  0.57096  1.0000
  C   C11       1.0  0.19112  0.19659  0.92904  1.0000
  C   C12       1.0  0.80888  0.19659  0.57096  1.0000
  C   C13       1.0  0.30888  0.30341  0.07096  1.0000
  C   C14       1.0  0.69112  0.30341  0.42904  1.0000
  C   C15       1.0  0.80888  0.80341  0.07096  1.0000
  C   C16       1.0  0.19112  0.80341  0.42904  1.0000
  C   C17       1.0  0.77305  0.78339  0.91679  1.0000
  C   C18       1.0  0.22695  0.78339  0.58321  1.0000
  C   C19       1.0  0.27305  0.28339  0.91679  1.0000
  C   C20       1.0  0.72695  0.28339  0.58321  1.0000
  C   C21       1.0  0.22695  0.21661  0.08321  1.0000
  C   C22       1.0  0.77305  0.21661  0.41679  1.0000
  C   C23       1.0  0.72695  0.71661  0.08321  1.0000
  C   C24       1.0  0.27305  0.71661  0.41679  1.0000
  C   C25       1.0  0.79915  0.82832  0.83020  1.0000
  C   C26       1.0  0.20085  0.82832  0.66980  1.0000
  C   C27       1.0  0.29915  0.32832  0.83020  1.0000
  C   C28       1.0  0.70085  0.32832  0.66980  1.0000
  C   C29       1.0  0.20085  0.17168  0.16980  1.0000
  C   C30       1.0  0.79915  0.17168  0.33020  1.0000
  C   C31       1.0  0.70085  0.67168  0.16980  1.0000
  C   C32       1.0  0.29915  0.67168  0.33020  1.0000
  C   C33       1.0  0.62575  0.62775  0.86007  1.0000
  C   C34       1.0  0.37425  0.62775  0.63993  1.0000
  C   C35       1.0  0.12575  0.12775  0.86007  1.0000
  C   C36       1.0  0.87425  0.12775  0.63993  1.0000
  C   C37       1.0  0.37425  0.37225  0.13993  1.0000
  C   C38       1.0  0.62575  0.37225  0.36007  1.0000
  C   C39       1.0  0.87425  0.87225  0.13993  1.0000
  C   C40       1.0  0.12575  0.87225  0.36007  1.0000
