data_image0
_chemical_formula_structural       Cd8O8N8O8C24H8C8H8C8H8C8H8N8C8O16C16O8N8C16H8O8C8H8C24H8C16H8C8H8C8H8C16H8C8H8C8H8N8C8H8C24H8C8H8O16
_chemical_formula_sum              "Cd8 O64 N32 C224 H128"
_cell_length_a       13.1187
_cell_length_b       23.3448
_cell_length_c       22.9554
_cell_angle_alpha    90
_cell_angle_beta     90
_cell_angle_gamma    90

_space_group_name_H-M_alt    "P 1"
_space_group_IT_number       1

loop_
  _space_group_symop_operation_xyz
  'x, y, z'

loop_
  _atom_site_type_symbol
  _atom_site_label
  _atom_site_symmetry_multiplicity
  _atom_site_fract_x
  _atom_site_fract_y
  _atom_site_fract_z
  _atom_site_occupancy
  Cd  Cd1       1.0  0.48966  0.17018  0.06478  1.0000
  Cd  Cd2       1.0  0.51034  0.82982  0.56478  1.0000
  Cd  Cd3       1.0  0.51034  0.17018  0.43522  1.0000
  Cd  Cd4       1.0  0.48966  0.82982  0.93522  1.0000
  Cd  Cd5       1.0  0.98966  0.67018  0.06478  1.0000
  Cd  Cd6       1.0  0.01034  0.32982  0.56478  1.0000
  Cd  Cd7       1.0  0.01034  0.67018  0.43522  1.0000
  Cd  Cd8       1.0  0.98966  0.32982  0.93522  1.0000
  O   O1        1.0  0.49250  0.18120  0.96250  1.0000
  O   O2        1.0  0.50750  0.81880  0.46250  1.0000
  O   O3        1.0  0.50750  0.18120  0.53750  1.0000
  O   O4        1.0  0.49250  0.81880  0.03750  1.0000
  O   O5        1.0  0.99250  0.68120  0.96250  1.0000
  O   O6        1.0  0.00750  0.31880  0.46250  1.0000
  O   O7        1.0  0.00750  0.68120  0.53750  1.0000
  O   O8        1.0  0.99250  0.31880  0.03750  1.0000
  N   N1        1.0  0.45260  0.22380  0.74650  1.0000
  N   N2        1.0  0.54740  0.77620  0.24650  1.0000
  N   N3        1.0  0.54740  0.22380  0.75350  1.0000
  N   N4        1.0  0.45260  0.77620  0.25350  1.0000
  N   N5        1.0  0.95260  0.72380  0.74650  1.0000
  N   N6        1.0  0.04740  0.27620  0.24650  1.0000
  N   N7        1.0  0.04740  0.72380  0.75350  1.0000
  N   N8        1.0  0.95260  0.27620  0.25350  1.0000
  O   O9        1.0  0.34310  0.20270  0.00090  1.0000
  O   O10       1.0  0.65690  0.79730  0.50090  1.0000
  O   O11       1.0  0.65690  0.20270  0.49910  1.0000
  O   O12       1.0  0.34310  0.79730  0.99910  1.0000
  O   O13       1.0  0.84310  0.70270  0.00090  1.0000
  O   O14       1.0  0.15690  0.29730  0.50090  1.0000
  O   O15       1.0  0.15690  0.70270  0.49910  1.0000
  O   O16       1.0  0.84310  0.29730  0.99910  1.0000
  C   C1        1.0  0.40250  0.19890  0.95700  1.0000
  C   C2        1.0  0.59750  0.80110  0.45700  1.0000
  C   C3        1.0  0.59750  0.19890  0.54300  1.0000
  C   C4        1.0  0.40250  0.80110  0.04300  1.0000
  C   C5        1.0  0.90250  0.69890  0.95700  1.0000
  C   C6        1.0  0.09750  0.30110  0.45700  1.0000
  C   C7        1.0  0.09750  0.69890  0.54300  1.0000
  C   C8        1.0  0.90250  0.30110  0.04300  1.0000
  C   C9        1.0  0.36370  0.20950  0.89790  1.0000
  C   C10       1.0  0.63630  0.79050  0.39790  1.0000
  C   C11       1.0  0.63630  0.20950  0.60210  1.0000
  C   C12       1.0  0.36370  0.79050  0.10210  1.0000
  C   C13       1.0  0.86370  0.70950  0.89790  1.0000
  C   C14       1.0  0.13630  0.29050  0.39790  1.0000
  C   C15       1.0  0.13630  0.70950  0.60210  1.0000
  C   C16       1.0  0.86370  0.29050  0.10210  1.0000
  C   C17       1.0  0.26200  0.22180  0.88720  1.0000
  C   C18       1.0  0.73800  0.77820  0.38720  1.0000
  C   C19       1.0  0.73800  0.22180  0.61280  1.0000
  C   C20       1.0  0.26200  0.77820  0.11280  1.0000
  C   C21       1.0  0.76200  0.72180  0.88720  1.0000
  C   C22       1.0  0.23800  0.27820  0.38720  1.0000
  C   C23       1.0  0.23800  0.72180  0.61280  1.0000
  C   C24       1.0  0.76200  0.27820  0.11280  1.0000
  H   H1        1.0  0.21750  0.22410  0.91860  1.0000
  H   H2        1.0  0.78250  0.77590  0.41860  1.0000
  H   H3        1.0  0.78250  0.22410  0.58140  1.0000
  H   H4        1.0  0.21750  0.77590  0.08140  1.0000
  H   H5        1.0  0.71750  0.72410  0.91860  1.0000
  H   H6        1.0  0.28250  0.27590  0.41860  1.0000
  H   H7        1.0  0.28250  0.72410  0.58140  1.0000
  H   H8        1.0  0.71750  0.27590  0.08140  1.0000
  C   C25       1.0  0.99630  0.10090  0.14110  1.0000
  C   C26       1.0  0.00370  0.89910  0.64110  1.0000
  C   C27       1.0  0.00370  0.10090  0.35890  1.0000
  C   C28       1.0  0.99630  0.89910  0.85890  1.0000
  C   C29       1.0  0.49630  0.60090  0.14110  1.0000
  C   C30       1.0  0.50370  0.39910  0.64110  1.0000
  C   C31       1.0  0.50370  0.60090  0.35890  1.0000
  C   C32       1.0  0.49630  0.39910  0.85890  1.0000
  H   H9        1.0  0.06260  0.09100  0.15130  1.0000
  H   H10       1.0  0.93740  0.90900  0.65130  1.0000
  H   H11       1.0  0.93740  0.09100  0.34870  1.0000
  H   H12       1.0  0.06260  0.90900  0.84870  1.0000
  H   H13       1.0  0.56260  0.59100  0.15130  1.0000
  H   H14       1.0  0.43740  0.40900  0.65130  1.0000
  H   H15       1.0  0.43740  0.59100  0.34870  1.0000
  H   H16       1.0  0.56260  0.40900  0.84870  1.0000
  C   C33       1.0  0.42630  0.21060  0.85090  1.0000
  C   C34       1.0  0.57370  0.78940  0.35090  1.0000
  C   C35       1.0  0.57370  0.21060  0.64910  1.0000
  C   C36       1.0  0.42630  0.78940  0.14910  1.0000
  C   C37       1.0  0.92630  0.71060  0.85090  1.0000
  C   C38       1.0  0.07370  0.28940  0.35090  1.0000
  C   C39       1.0  0.07370  0.71060  0.64910  1.0000
  C   C40       1.0  0.92630  0.28940  0.14910  1.0000
  H   H17       1.0  0.49540  0.20300  0.85570  1.0000
  H   H18       1.0  0.50460  0.79700  0.35570  1.0000
  H   H19       1.0  0.50460  0.20300  0.64430  1.0000
  H   H20       1.0  0.49540  0.79700  0.14430  1.0000
  H   H21       1.0  0.99540  0.70300  0.85570  1.0000
  H   H22       1.0  0.00460  0.29700  0.35570  1.0000
  H   H23       1.0  0.00460  0.70300  0.64430  1.0000
  H   H24       1.0  0.99540  0.29700  0.14430  1.0000
  C   C41       1.0  0.29110  0.23160  0.78690  1.0000
  C   C42       1.0  0.70890  0.76840  0.28690  1.0000
  C   C43       1.0  0.70890  0.23160  0.71310  1.0000
  C   C44       1.0  0.29110  0.76840  0.21310  1.0000
  C   C45       1.0  0.79110  0.73160  0.78690  1.0000
  C   C46       1.0  0.20890  0.26840  0.28690  1.0000
  C   C47       1.0  0.20890  0.73160  0.71310  1.0000
  C   C48       1.0  0.79110  0.26840  0.21310  1.0000
  H   H25       1.0  0.26770  0.23840  0.74920  1.0000
  H   H26       1.0  0.73230  0.76160  0.24920  1.0000
  H   H27       1.0  0.73230  0.23840  0.75080  1.0000
  H   H28       1.0  0.26770  0.76160  0.25080  1.0000
  H   H29       1.0  0.76770  0.73840  0.74920  1.0000
  H   H30       1.0  0.23230  0.26160  0.24920  1.0000
  H   H31       1.0  0.23230  0.73840  0.75080  1.0000
  H   H32       1.0  0.76770  0.26160  0.25080  1.0000
  N   N9        1.0  0.14700  0.91650  0.25620  1.0000
  N   N10       1.0  0.85300  0.08350  0.75620  1.0000
  N   N11       1.0  0.85300  0.91650  0.24380  1.0000
  N   N12       1.0  0.14700  0.08350  0.74380  1.0000
  N   N13       1.0  0.64700  0.41650  0.25620  1.0000
  N   N14       1.0  0.35300  0.58350  0.75620  1.0000
  N   N15       1.0  0.35300  0.41650  0.24380  1.0000
  N   N16       1.0  0.64700  0.58350  0.74380  1.0000
  C   C49       1.0  0.92810  0.11350  0.18260  1.0000
  C   C50       1.0  0.07190  0.88650  0.68260  1.0000
  C   C51       1.0  0.07190  0.11350  0.31740  1.0000
  C   C52       1.0  0.92810  0.88650  0.81740  1.0000
  C   C53       1.0  0.42810  0.61350  0.18260  1.0000
  C   C54       1.0  0.57190  0.38650  0.68260  1.0000
  C   C55       1.0  0.57190  0.61350  0.31740  1.0000
  C   C56       1.0  0.42810  0.38650  0.81740  1.0000
  O   O17       1.0  0.43740  0.07220  0.05480  1.0000
  O   O18       1.0  0.56260  0.92780  0.55480  1.0000
  O   O19       1.0  0.56260  0.07220  0.44520  1.0000
  O   O20       1.0  0.43740  0.92780  0.94520  1.0000
  O   O21       1.0  0.93740  0.57220  0.05480  1.0000
  O   O22       1.0  0.06260  0.42780  0.55480  1.0000
  O   O23       1.0  0.06260  0.57220  0.44520  1.0000
  O   O24       1.0  0.93740  0.42780  0.94520  1.0000
  O   O25       1.0  0.36780  0.11780  0.12450  1.0000
  O   O26       1.0  0.63220  0.88220  0.62450  1.0000
  O   O27       1.0  0.63220  0.11780  0.37550  1.0000
  O   O28       1.0  0.36780  0.88220  0.87550  1.0000
  O   O29       1.0  0.86780  0.61780  0.12450  1.0000
  O   O30       1.0  0.13220  0.38220  0.62450  1.0000
  O   O31       1.0  0.13220  0.61780  0.37550  1.0000
  O   O32       1.0  0.86780  0.38220  0.87550  1.0000
  C   C57       1.0  0.38930  0.22280  0.79610  1.0000
  C   C58       1.0  0.61070  0.77720  0.29610  1.0000
  C   C59       1.0  0.61070  0.22280  0.70390  1.0000
  C   C60       1.0  0.38930  0.77720  0.20390  1.0000
  C   C61       1.0  0.88930  0.72280  0.79610  1.0000
  C   C62       1.0  0.11070  0.27720  0.29610  1.0000
  C   C63       1.0  0.11070  0.72280  0.70390  1.0000
  C   C64       1.0  0.88930  0.27720  0.20390  1.0000
  C   C65       1.0  0.69000  0.13870  0.09700  1.0000
  C   C66       1.0  0.31000  0.86130  0.59700  1.0000
  C   C67       1.0  0.31000  0.13870  0.40300  1.0000
  C   C68       1.0  0.69000  0.86130  0.90300  1.0000
  C   C69       1.0  0.19000  0.63870  0.09700  1.0000
  C   C70       1.0  0.81000  0.36130  0.59700  1.0000
  C   C71       1.0  0.81000  0.63870  0.40300  1.0000
  C   C72       1.0  0.19000  0.36130  0.90300  1.0000
  O   O33       1.0  0.62530  0.14200  0.13310  1.0000
  O   O34       1.0  0.37470  0.85800  0.63310  1.0000
  O   O35       1.0  0.37470  0.14200  0.36690  1.0000
  O   O36       1.0  0.62530  0.85800  0.86690  1.0000
  O   O37       1.0  0.12530  0.64200  0.13310  1.0000
  O   O38       1.0  0.87470  0.35800  0.63310  1.0000
  O   O39       1.0  0.87470  0.64200  0.36690  1.0000
  O   O40       1.0  0.12530  0.35800  0.86690  1.0000
  N   N17       1.0  0.17780  0.96510  0.24410  1.0000
  N   N18       1.0  0.82220  0.03490  0.74410  1.0000
  N   N19       1.0  0.82220  0.96510  0.25590  1.0000
  N   N20       1.0  0.17780  0.03490  0.75590  1.0000
  N   N21       1.0  0.67780  0.46510  0.24410  1.0000
  N   N22       1.0  0.32220  0.53490  0.74410  1.0000
  N   N23       1.0  0.32220  0.46510  0.25590  1.0000
  N   N24       1.0  0.67780  0.53490  0.75590  1.0000
  C   C73       1.0  0.37910  0.07420  0.09950  1.0000
  C   C74       1.0  0.62090  0.92580  0.59950  1.0000
  C   C75       1.0  0.62090  0.07420  0.40050  1.0000
  C   C76       1.0  0.37910  0.92580  0.90050  1.0000
  C   C77       1.0  0.87910  0.57420  0.09950  1.0000
  C   C78       1.0  0.12090  0.42580  0.59950  1.0000
  C   C79       1.0  0.12090  0.57420  0.40050  1.0000
  C   C80       1.0  0.87910  0.42580  0.90050  1.0000
  C   C81       1.0  0.22410  0.23080  0.83220  1.0000
  C   C82       1.0  0.77590  0.76920  0.33220  1.0000
  C   C83       1.0  0.77590  0.23080  0.66780  1.0000
  C   C84       1.0  0.22410  0.76920  0.16780  1.0000
  C   C85       1.0  0.72410  0.73080  0.83220  1.0000
  C   C86       1.0  0.27590  0.26920  0.33220  1.0000
  C   C87       1.0  0.27590  0.73080  0.66780  1.0000
  C   C88       1.0  0.72410  0.26920  0.16780  1.0000
  H   H33       1.0  0.15460  0.23610  0.82600  1.0000
  H   H34       1.0  0.84540  0.76390  0.32600  1.0000
  H   H35       1.0  0.84540  0.23610  0.67400  1.0000
  H   H36       1.0  0.15460  0.76390  0.17400  1.0000
  H   H37       1.0  0.65460  0.73610  0.82600  1.0000
  H   H38       1.0  0.34540  0.26390  0.32600  1.0000
  H   H39       1.0  0.34540  0.73610  0.67400  1.0000
  H   H40       1.0  0.65460  0.26390  0.17400  1.0000
  O   O41       1.0  0.66660  0.14560  0.04570  1.0000
  O   O42       1.0  0.33340  0.85440  0.54570  1.0000
  O   O43       1.0  0.33340  0.14560  0.45430  1.0000
  O   O44       1.0  0.66660  0.85440  0.95430  1.0000
  O   O45       1.0  0.16660  0.64560  0.04570  1.0000
  O   O46       1.0  0.83340  0.35440  0.54570  1.0000
  O   O47       1.0  0.83340  0.64560  0.45430  1.0000
  O   O48       1.0  0.16660  0.35440  0.95430  1.0000
  C   C89       1.0  0.27130  0.01720  0.16890  1.0000
  C   C90       1.0  0.72870  0.98280  0.66890  1.0000
  C   C91       1.0  0.72870  0.01720  0.33110  1.0000
  C   C92       1.0  0.27130  0.98280  0.83110  1.0000
  C   C93       1.0  0.77130  0.51720  0.16890  1.0000
  C   C94       1.0  0.22870  0.48280  0.66890  1.0000
  C   C95       1.0  0.22870  0.51720  0.33110  1.0000
  C   C96       1.0  0.77130  0.48280  0.83110  1.0000
  H   H41       1.0  0.27100  0.04710  0.19550  1.0000
  H   H42       1.0  0.72900  0.95290  0.69550  1.0000
  H   H43       1.0  0.72900  0.04710  0.30450  1.0000
  H   H44       1.0  0.27100  0.95290  0.80450  1.0000
  H   H45       1.0  0.77100  0.54710  0.19550  1.0000
  H   H46       1.0  0.22900  0.45290  0.69550  1.0000
  H   H47       1.0  0.22900  0.54710  0.30450  1.0000
  H   H48       1.0  0.77100  0.45290  0.80450  1.0000
  C   C97       1.0  0.79600  0.12580  0.11260  1.0000
  C   C98       1.0  0.20400  0.87420  0.61260  1.0000
  C   C99       1.0  0.20400  0.12580  0.38740  1.0000
  C   C100      1.0  0.79600  0.87420  0.88740  1.0000
  C   C101      1.0  0.29600  0.62580  0.11260  1.0000
  C   C102      1.0  0.70400  0.37420  0.61260  1.0000
  C   C103      1.0  0.70400  0.62580  0.38740  1.0000
  C   C104      1.0  0.29600  0.37420  0.88740  1.0000
  C   C105      1.0  0.22210  0.96700  0.18380  1.0000
  C   C106      1.0  0.77790  0.03300  0.68380  1.0000
  C   C107      1.0  0.77790  0.96700  0.31620  1.0000
  C   C108      1.0  0.22210  0.03300  0.81620  1.0000
  C   C109      1.0  0.72210  0.46700  0.18380  1.0000
  C   C110      1.0  0.27790  0.53300  0.68380  1.0000
  C   C111      1.0  0.27790  0.46700  0.31620  1.0000
  C   C112      1.0  0.72210  0.53300  0.81620  1.0000
  C   C113      1.0  0.21540  0.92040  0.14740  1.0000
  C   C114      1.0  0.78460  0.07960  0.64740  1.0000
  C   C115      1.0  0.78460  0.92040  0.35260  1.0000
  C   C116      1.0  0.21540  0.07960  0.85260  1.0000
  C   C117      1.0  0.71540  0.42040  0.14740  1.0000
  C   C118      1.0  0.28460  0.57960  0.64740  1.0000
  C   C119      1.0  0.28460  0.42040  0.35260  1.0000
  C   C120      1.0  0.71540  0.57960  0.85260  1.0000
  H   H49       1.0  0.18360  0.88670  0.15920  1.0000
  H   H50       1.0  0.81640  0.11330  0.65920  1.0000
  H   H51       1.0  0.81640  0.88670  0.34080  1.0000
  H   H52       1.0  0.18360  0.11330  0.84080  1.0000
  H   H53       1.0  0.68360  0.38670  0.15920  1.0000
  H   H54       1.0  0.31640  0.61330  0.65920  1.0000
  H   H55       1.0  0.31640  0.38670  0.34080  1.0000
  H   H56       1.0  0.68360  0.61330  0.84080  1.0000
  C   C121      1.0  0.32150  0.02530  0.11570  1.0000
  C   C122      1.0  0.67850  0.97470  0.61570  1.0000
  C   C123      1.0  0.67850  0.02530  0.38430  1.0000
  C   C124      1.0  0.32150  0.97470  0.88430  1.0000
  C   C125      1.0  0.82150  0.52530  0.11570  1.0000
  C   C126      1.0  0.17850  0.47470  0.61570  1.0000
  C   C127      1.0  0.17850  0.52530  0.38430  1.0000
  C   C128      1.0  0.82150  0.47470  0.88430  1.0000
  C   C129      1.0  0.82620  0.12420  0.16840  1.0000
  C   C130      1.0  0.17380  0.87580  0.66840  1.0000
  C   C131      1.0  0.17380  0.12420  0.33160  1.0000
  C   C132      1.0  0.82620  0.87580  0.83160  1.0000
  C   C133      1.0  0.32620  0.62420  0.16840  1.0000
  C   C134      1.0  0.67380  0.37580  0.66840  1.0000
  C   C135      1.0  0.67380  0.62420  0.33160  1.0000
  C   C136      1.0  0.32620  0.37580  0.83160  1.0000
  H   H57       1.0  0.77880  0.13020  0.19790  1.0000
  H   H58       1.0  0.22120  0.86980  0.69790  1.0000
  H   H59       1.0  0.22120  0.13020  0.30210  1.0000
  H   H60       1.0  0.77880  0.86980  0.80210  1.0000
  H   H61       1.0  0.27880  0.63020  0.19790  1.0000
  H   H62       1.0  0.72120  0.36980  0.69790  1.0000
  H   H63       1.0  0.72120  0.63020  0.30210  1.0000
  H   H64       1.0  0.27880  0.36980  0.80210  1.0000
  C   C137      1.0  0.31680  0.97770  0.07730  1.0000
  C   C138      1.0  0.68320  0.02230  0.57730  1.0000
  C   C139      1.0  0.68320  0.97770  0.42270  1.0000
  C   C140      1.0  0.31680  0.02230  0.92270  1.0000
  C   C141      1.0  0.81680  0.47770  0.07730  1.0000
  C   C142      1.0  0.18320  0.52230  0.57730  1.0000
  C   C143      1.0  0.18320  0.47770  0.42270  1.0000
  C   C144      1.0  0.81680  0.52230  0.92270  1.0000
  H   H65       1.0  0.35130  0.97910  0.04190  1.0000
  H   H66       1.0  0.64870  0.02090  0.54190  1.0000
  H   H67       1.0  0.64870  0.97910  0.45810  1.0000
  H   H68       1.0  0.35130  0.02090  0.95810  1.0000
  H   H69       1.0  0.85130  0.47910  0.04190  1.0000
  H   H70       1.0  0.14870  0.52090  0.54190  1.0000
  H   H71       1.0  0.14870  0.47910  0.45810  1.0000
  H   H72       1.0  0.85130  0.52090  0.95810  1.0000
  C   C145      1.0  0.86580  0.11360  0.06890  1.0000
  C   C146      1.0  0.13420  0.88640  0.56890  1.0000
  C   C147      1.0  0.13420  0.11360  0.43110  1.0000
  C   C148      1.0  0.86580  0.88640  0.93110  1.0000
  C   C149      1.0  0.36580  0.61360  0.06890  1.0000
  C   C150      1.0  0.63420  0.38640  0.56890  1.0000
  C   C151      1.0  0.63420  0.61360  0.43110  1.0000
  C   C152      1.0  0.36580  0.38640  0.93110  1.0000
  H   H73       1.0  0.84460  0.11280  0.03030  1.0000
  H   H74       1.0  0.15540  0.88720  0.53030  1.0000
  H   H75       1.0  0.15540  0.11280  0.46970  1.0000
  H   H76       1.0  0.84460  0.88720  0.96970  1.0000
  H   H77       1.0  0.34460  0.61280  0.03030  1.0000
  H   H78       1.0  0.65540  0.38720  0.53030  1.0000
  H   H79       1.0  0.65540  0.61280  0.46970  1.0000
  H   H80       1.0  0.34460  0.38720  0.96970  1.0000
  C   C153      1.0  0.10470  0.91150  0.31230  1.0000
  C   C154      1.0  0.89530  0.08850  0.81230  1.0000
  C   C155      1.0  0.89530  0.91150  0.18770  1.0000
  C   C156      1.0  0.10470  0.08850  0.68770  1.0000
  C   C157      1.0  0.60470  0.41150  0.31230  1.0000
  C   C158      1.0  0.39530  0.58850  0.81230  1.0000
  C   C159      1.0  0.39530  0.41150  0.18770  1.0000
  C   C160      1.0  0.60470  0.58850  0.68770  1.0000
  C   C161      1.0  0.08830  0.95510  0.35010  1.0000
  C   C162      1.0  0.91170  0.04490  0.85010  1.0000
  C   C163      1.0  0.91170  0.95510  0.14990  1.0000
  C   C164      1.0  0.08830  0.04490  0.64990  1.0000
  C   C165      1.0  0.58830  0.45510  0.35010  1.0000
  C   C166      1.0  0.41170  0.54490  0.85010  1.0000
  C   C167      1.0  0.41170  0.45510  0.14990  1.0000
  C   C168      1.0  0.58830  0.54490  0.64990  1.0000
  H   H81       1.0  0.10740  0.99230  0.34040  1.0000
  H   H82       1.0  0.89260  0.00770  0.84040  1.0000
  H   H83       1.0  0.89260  0.99230  0.15960  1.0000
  H   H84       1.0  0.10740  0.00770  0.65960  1.0000
  H   H85       1.0  0.60740  0.49230  0.34040  1.0000
  H   H86       1.0  0.39260  0.50770  0.84040  1.0000
  H   H87       1.0  0.39260  0.49230  0.15960  1.0000
  H   H88       1.0  0.60740  0.50770  0.65960  1.0000
  C   C169      1.0  0.25780  0.92570  0.09250  1.0000
  C   C170      1.0  0.74220  0.07430  0.59250  1.0000
  C   C171      1.0  0.74220  0.92570  0.40750  1.0000
  C   C172      1.0  0.25780  0.07430  0.90750  1.0000
  C   C173      1.0  0.75780  0.42570  0.09250  1.0000
  C   C174      1.0  0.24220  0.57430  0.59250  1.0000
  C   C175      1.0  0.24220  0.42570  0.40750  1.0000
  C   C176      1.0  0.75780  0.57430  0.90750  1.0000
  H   H89       1.0  0.24930  0.89670  0.06520  1.0000
  H   H90       1.0  0.75070  0.10330  0.56520  1.0000
  H   H91       1.0  0.75070  0.89670  0.43480  1.0000
  H   H92       1.0  0.24930  0.10330  0.93480  1.0000
  H   H93       1.0  0.74930  0.39670  0.06520  1.0000
  H   H94       1.0  0.25070  0.60330  0.56520  1.0000
  H   H95       1.0  0.25070  0.39670  0.43480  1.0000
  H   H96       1.0  0.74930  0.60330  0.93480  1.0000
  C   C177      1.0  0.96800  0.10250  0.08280  1.0000
  C   C178      1.0  0.03200  0.89750  0.58280  1.0000
  C   C179      1.0  0.03200  0.10250  0.41720  1.0000
  C   C180      1.0  0.96800  0.89750  0.91720  1.0000
  C   C181      1.0  0.46800  0.60250  0.08280  1.0000
  C   C182      1.0  0.53200  0.39750  0.58280  1.0000
  C   C183      1.0  0.53200  0.60250  0.41720  1.0000
  C   C184      1.0  0.46800  0.39750  0.91720  1.0000
  H   H97       1.0  0.01590  0.09630  0.05360  1.0000
  H   H98       1.0  0.98410  0.90370  0.55360  1.0000
  H   H99       1.0  0.98410  0.09630  0.44640  1.0000
  H   H100      1.0  0.01590  0.90370  0.94640  1.0000
  H   H101      1.0  0.51590  0.59630  0.05360  1.0000
  H   H102      1.0  0.48410  0.40370  0.55360  1.0000
  H   H103      1.0  0.48410  0.59630  0.44640  1.0000
  H   H104      1.0  0.51590  0.40370  0.94640  1.0000
  N   N25       1.0  0.95250  0.11550  0.24310  1.0000
  N   N26       1.0  0.04750  0.88450  0.74310  1.0000
  N   N27       1.0  0.04750  0.11550  0.25690  1.0000
  N   N28       1.0  0.95250  0.88450  0.75690  1.0000
  N   N29       1.0  0.45250  0.61550  0.24310  1.0000
  N   N30       1.0  0.54750  0.38450  0.74310  1.0000
  N   N31       1.0  0.54750  0.61550  0.25690  1.0000
  N   N32       1.0  0.45250  0.38450  0.75690  1.0000
  C   C185      1.0  0.07680  0.85660  0.33110  1.0000
  C   C186      1.0  0.92320  0.14340  0.83110  1.0000
  C   C187      1.0  0.92320  0.85660  0.16890  1.0000
  C   C188      1.0  0.07680  0.14340  0.66890  1.0000
  C   C189      1.0  0.57680  0.35660  0.33110  1.0000
  C   C190      1.0  0.42320  0.64340  0.83110  1.0000
  C   C191      1.0  0.42320  0.35660  0.16890  1.0000
  C   C192      1.0  0.57680  0.64340  0.66890  1.0000
  H   H105      1.0  0.08740  0.82600  0.30590  1.0000
  H   H106      1.0  0.91260  0.17400  0.80590  1.0000
  H   H107      1.0  0.91260  0.82600  0.19410  1.0000
  H   H108      1.0  0.08740  0.17400  0.69410  1.0000
  H   H109      1.0  0.58740  0.32600  0.30590  1.0000
  H   H110      1.0  0.41260  0.67400  0.80590  1.0000
  H   H111      1.0  0.41260  0.32600  0.19410  1.0000
  H   H112      1.0  0.58740  0.67400  0.69410  1.0000
  C   C193      1.0  0.03610  0.84610  0.38270  1.0000
  C   C194      1.0  0.96390  0.15390  0.88270  1.0000
  C   C195      1.0  0.96390  0.84610  0.11730  1.0000
  C   C196      1.0  0.03610  0.15390  0.61730  1.0000
  C   C197      1.0  0.53610  0.34610  0.38270  1.0000
  C   C198      1.0  0.46390  0.65390  0.88270  1.0000
  C   C199      1.0  0.46390  0.34610  0.11730  1.0000
  C   C200      1.0  0.53610  0.65390  0.61730  1.0000
  C   C201      1.0  0.01640  0.78410  0.39890  1.0000
  C   C202      1.0  0.98360  0.21590  0.89890  1.0000
  C   C203      1.0  0.98360  0.78410  0.10110  1.0000
  C   C204      1.0  0.01640  0.21590  0.60110  1.0000
  C   C205      1.0  0.51640  0.28410  0.39890  1.0000
  C   C206      1.0  0.48360  0.71590  0.89890  1.0000
  C   C207      1.0  0.48360  0.28410  0.10110  1.0000
  C   C208      1.0  0.51640  0.71590  0.60110  1.0000
  C   C209      1.0  0.01750  0.89010  0.41910  1.0000
  C   C210      1.0  0.98250  0.10990  0.91910  1.0000
  C   C211      1.0  0.98250  0.89010  0.08090  1.0000
  C   C212      1.0  0.01750  0.10990  0.58090  1.0000
  C   C213      1.0  0.51750  0.39010  0.41910  1.0000
  C   C214      1.0  0.48250  0.60990  0.91910  1.0000
  C   C215      1.0  0.48250  0.39010  0.08090  1.0000
  C   C216      1.0  0.51750  0.60990  0.58090  1.0000
  H   H113      1.0  0.98720  0.88310  0.45500  1.0000
  H   H114      1.0  0.01280  0.11690  0.95500  1.0000
  H   H115      1.0  0.01280  0.88310  0.04500  1.0000
  H   H116      1.0  0.98720  0.11690  0.54500  1.0000
  H   H117      1.0  0.48720  0.38310  0.45500  1.0000
  H   H118      1.0  0.51280  0.61690  0.95500  1.0000
  H   H119      1.0  0.51280  0.38310  0.04500  1.0000
  H   H120      1.0  0.48720  0.61690  0.54500  1.0000
  C   C217      1.0  0.04230  0.94360  0.40410  1.0000
  C   C218      1.0  0.95770  0.05640  0.90410  1.0000
  C   C219      1.0  0.95770  0.94360  0.09590  1.0000
  C   C220      1.0  0.04230  0.05640  0.59590  1.0000
  C   C221      1.0  0.54230  0.44360  0.40410  1.0000
  C   C222      1.0  0.45770  0.55640  0.90410  1.0000
  C   C223      1.0  0.45770  0.44360  0.09590  1.0000
  C   C224      1.0  0.54230  0.55640  0.59590  1.0000
  H   H121      1.0  0.02890  0.97350  0.42960  1.0000
  H   H122      1.0  0.97110  0.02650  0.92960  1.0000
  H   H123      1.0  0.97110  0.97350  0.07040  1.0000
  H   H124      1.0  0.02890  0.02650  0.57040  1.0000
  H   H125      1.0  0.52890  0.47350  0.42960  1.0000
  H   H126      1.0  0.47110  0.52650  0.92960  1.0000
  H   H127      1.0  0.47110  0.47350  0.07040  1.0000
  H   H128      1.0  0.52890  0.52650  0.57040  1.0000
  O   O49       1.0  0.96800  0.77930  0.44710  1.0000
  O   O50       1.0  0.03200  0.22070  0.94710  1.0000
  O   O51       1.0  0.03200  0.77930  0.05290  1.0000
  O   O52       1.0  0.96800  0.22070  0.55290  1.0000
  O   O53       1.0  0.46800  0.27930  0.44710  1.0000
  O   O54       1.0  0.53200  0.72070  0.94710  1.0000
  O   O55       1.0  0.53200  0.27930  0.05290  1.0000
  O   O56       1.0  0.46800  0.72070  0.55290  1.0000
  O   O57       1.0  0.04720  0.74550  0.37340  1.0000
  O   O58       1.0  0.95280  0.25450  0.87340  1.0000
  O   O59       1.0  0.95280  0.74550  0.12660  1.0000
  O   O60       1.0  0.04720  0.25450  0.62660  1.0000
  O   O61       1.0  0.54720  0.24550  0.37340  1.0000
  O   O62       1.0  0.45280  0.75450  0.87340  1.0000
  O   O63       1.0  0.45280  0.24550  0.12660  1.0000
  O   O64       1.0  0.54720  0.75450  0.62660  1.0000
