data_image0
_chemical_formula_structural       Dy12O80C8H4C4H4C8H4C4H4C12H4C8H4C12H4C4H4C8H4C4H4C16H4C4H4C8H4C4H4C12H4C8H4C12H4C4H4C8H4C4H4C8
_chemical_formula_sum              "Dy12 O80 C160 H80"
_cell_length_a       12.3512
_cell_length_b       20.7502
_cell_length_c       18.8896
_cell_angle_alpha    90
_cell_angle_beta     90.759
_cell_angle_gamma    90

_space_group_name_H-M_alt    "P 1"
_space_group_IT_number       1

loop_
  _space_group_symop_operation_xyz
  'x, y, z'

loop_
  _atom_site_type_symbol
  _atom_site_label
  _atom_site_symmetry_multiplicity
  _atom_site_fract_x
  _atom_site_fract_y
  _atom_site_fract_z
  _atom_site_occupancy
  Dy  Dy1       1.0  0.28338  0.61008  0.27972  1.0000
  Dy  Dy2       1.0  0.71662  0.11008  0.22028  1.0000
  Dy  Dy3       1.0  0.71662  0.38992  0.72028  1.0000
  Dy  Dy4       1.0  0.28338  0.88992  0.77972  1.0000
  Dy  Dy5       1.0  0.57613  0.61511  0.23670  1.0000
  Dy  Dy6       1.0  0.42387  0.11511  0.26330  1.0000
  Dy  Dy7       1.0  0.42387  0.38489  0.76330  1.0000
  Dy  Dy8       1.0  0.57613  0.88489  0.73670  1.0000
  Dy  Dy9       1.0  0.93614  0.57635  0.21435  1.0000
  Dy  Dy10      1.0  0.06386  0.07635  0.28565  1.0000
  Dy  Dy11      1.0  0.06386  0.42365  0.78565  1.0000
  Dy  Dy12      1.0  0.93614  0.92365  0.71435  1.0000
  O   O1        1.0  0.67060  0.62036  0.13266  1.0000
  O   O2        1.0  0.32940  0.12036  0.36734  1.0000
  O   O3        1.0  0.32940  0.37964  0.86734  1.0000
  O   O4        1.0  0.67060  0.87964  0.63266  1.0000
  O   O5        1.0  0.82550  0.56973  0.11911  1.0000
  O   O6        1.0  0.17450  0.06973  0.38089  1.0000
  O   O7        1.0  0.17450  0.43027  0.88089  1.0000
  O   O8        1.0  0.82550  0.93027  0.61911  1.0000
  O   O9        1.0  0.47020  0.48233  0.82391  1.0000
  O   O10       1.0  0.52980  0.98233  0.67609  1.0000
  O   O11       1.0  0.52980  0.51767  0.17609  1.0000
  O   O12       1.0  0.47020  0.01767  0.32391  1.0000
  O   O13       1.0  0.59670  0.40809  0.82611  1.0000
  O   O14       1.0  0.40330  0.90809  0.67389  1.0000
  O   O15       1.0  0.40330  0.59191  0.17389  1.0000
  O   O16       1.0  0.59670  0.09191  0.32611  1.0000
  O   O17       1.0  0.00270  0.57285  0.32448  1.0000
  O   O18       1.0  0.99730  0.07285  0.17552  1.0000
  O   O19       1.0  0.99730  0.42715  0.67552  1.0000
  O   O20       1.0  0.00270  0.92715  0.82448  1.0000
  O   O21       1.0  0.17250  0.55231  0.35667  1.0000
  O   O22       1.0  0.82750  0.05231  0.14333  1.0000
  O   O23       1.0  0.82750  0.44769  0.64333  1.0000
  O   O24       1.0  0.17250  0.94769  0.85667  1.0000
  O   O25       1.0  0.06520  0.50534  0.19077  1.0000
  O   O26       1.0  0.93480  0.00534  0.30923  1.0000
  O   O27       1.0  0.93480  0.49466  0.80923  1.0000
  O   O28       1.0  0.06520  0.99466  0.69077  1.0000
  O   O29       1.0  0.23700  0.51530  0.22454  1.0000
  O   O30       1.0  0.76300  0.01530  0.27546  1.0000
  O   O31       1.0  0.76300  0.48470  0.77546  1.0000
  O   O32       1.0  0.23700  0.98470  0.72454  1.0000
  O   O33       1.0  0.11860  0.17511  0.25120  1.0000
  O   O34       1.0  0.88140  0.67511  0.24880  1.0000
  O   O35       1.0  0.88140  0.82489  0.74880  1.0000
  O   O36       1.0  0.11860  0.32489  0.75120  1.0000
  O   O37       1.0  0.29110  0.18418  0.22485  1.0000
  O   O38       1.0  0.70890  0.68418  0.27515  1.0000
  O   O39       1.0  0.70890  0.81582  0.77515  1.0000
  O   O40       1.0  0.29110  0.31582  0.72485  1.0000
  O   O41       1.0  0.52980  0.72287  0.18543  1.0000
  O   O42       1.0  0.47020  0.22287  0.31457  1.0000
  O   O43       1.0  0.47020  0.27713  0.81457  1.0000
  O   O44       1.0  0.52980  0.77713  0.68543  1.0000
  O   O45       1.0  0.42094  0.69049  0.26912  1.0000
  O   O46       1.0  0.57906  0.19049  0.23088  1.0000
  O   O47       1.0  0.57906  0.30951  0.73088  1.0000
  O   O48       1.0  0.42094  0.80951  0.76912  1.0000
  O   O49       1.0  0.29770  0.03688  0.22844  1.0000
  O   O50       1.0  0.70230  0.53688  0.27156  1.0000
  O   O51       1.0  0.70230  0.96312  0.77156  1.0000
  O   O52       1.0  0.29770  0.46312  0.72844  1.0000
  O   O53       1.0  0.15370  0.98269  0.25870  1.0000
  O   O54       1.0  0.84630  0.48269  0.24130  1.0000
  O   O55       1.0  0.84630  0.01731  0.74130  1.0000
  O   O56       1.0  0.15370  0.51731  0.75870  1.0000
  O   O57       1.0  0.44335  0.55848  0.31899  1.0000
  O   O58       1.0  0.55665  0.05848  0.18101  1.0000
  O   O59       1.0  0.55665  0.44152  0.68101  1.0000
  O   O60       1.0  0.44335  0.94152  0.81899  1.0000
  O   O61       1.0  0.57650  0.61585  0.36437  1.0000
  O   O62       1.0  0.42350  0.11585  0.13563  1.0000
  O   O63       1.0  0.42350  0.38415  0.63563  1.0000
  O   O64       1.0  0.57650  0.88415  0.86437  1.0000
  O   O65       1.0  0.32020  0.64657  0.40219  1.0000
  O   O66       1.0  0.67980  0.14657  0.09781  1.0000
  O   O67       1.0  0.67980  0.35343  0.59781  1.0000
  O   O68       1.0  0.32020  0.85343  0.90219  1.0000
  O   O69       1.0  0.18620  0.69079  0.34192  1.0000
  O   O70       1.0  0.81380  0.19079  0.15808  1.0000
  O   O71       1.0  0.81380  0.30921  0.65808  1.0000
  O   O72       1.0  0.18620  0.80921  0.84192  1.0000
  O   O73       1.0  0.03430  0.86424  0.63735  1.0000
  O   O74       1.0  0.96570  0.36424  0.86265  1.0000
  O   O75       1.0  0.96570  0.13576  0.36265  1.0000
  O   O76       1.0  0.03430  0.63576  0.13735  1.0000
  O   O77       1.0  0.18570  0.83926  0.69388  1.0000
  O   O78       1.0  0.81430  0.33926  0.80612  1.0000
  O   O79       1.0  0.81430  0.16074  0.30612  1.0000
  O   O80       1.0  0.18570  0.66074  0.19388  1.0000
  C   C1        1.0  0.69180  0.55430  0.03100  1.0000
  C   C2        1.0  0.30820  0.05430  0.46900  1.0000
  C   C3        1.0  0.30820  0.44570  0.96900  1.0000
  C   C4        1.0  0.69180  0.94570  0.53100  1.0000
  C   C5        1.0  0.74500  0.50190  0.00170  1.0000
  C   C6        1.0  0.25500  0.00190  0.49830  1.0000
  C   C7        1.0  0.25500  0.49810  0.99830  1.0000
  C   C8        1.0  0.74500  0.99810  0.50170  1.0000
  H   H1        1.0  0.80920  0.48710  0.02220  1.0000
  H   H2        1.0  0.19080  0.98710  0.47780  1.0000
  H   H3        1.0  0.19080  0.51290  0.97780  1.0000
  H   H4        1.0  0.80920  0.01290  0.52220  1.0000
  C   C9        1.0  0.70270  0.47180  0.94250  1.0000
  C   C10       1.0  0.29730  0.97180  0.55750  1.0000
  C   C11       1.0  0.29730  0.52820  0.05750  1.0000
  C   C12       1.0  0.70270  0.02820  0.44250  1.0000
  H   H5        1.0  0.73700  0.43570  0.92410  1.0000
  H   H6        1.0  0.26300  0.93570  0.57590  1.0000
  H   H7        1.0  0.26300  0.56430  0.07590  1.0000
  H   H8        1.0  0.73700  0.06430  0.42410  1.0000
  C   C13       1.0  0.60940  0.49519  0.91014  1.0000
  C   C14       1.0  0.39060  0.99519  0.58986  1.0000
  C   C15       1.0  0.39060  0.50481  0.08986  1.0000
  C   C16       1.0  0.60940  0.00481  0.41014  1.0000
  C   C17       1.0  0.55820  0.54884  0.93780  1.0000
  C   C18       1.0  0.44180  0.04884  0.56220  1.0000
  C   C19       1.0  0.44180  0.45116  0.06220  1.0000
  C   C20       1.0  0.55820  0.95116  0.43780  1.0000
  H   H9        1.0  0.49640  0.56520  0.91560  1.0000
  H   H10       1.0  0.50360  0.06520  0.58440  1.0000
  H   H11       1.0  0.50360  0.43480  0.08440  1.0000
  H   H12       1.0  0.49640  0.93480  0.41560  1.0000
  C   C21       1.0  0.59880  0.57801  0.99840  1.0000
  C   C22       1.0  0.40120  0.07801  0.50160  1.0000
  C   C23       1.0  0.40120  0.42199  0.00160  1.0000
  C   C24       1.0  0.59880  0.92199  0.49840  1.0000
  H   H13       1.0  0.56370  0.61360  0.01730  1.0000
  H   H14       1.0  0.43630  0.11360  0.48270  1.0000
  H   H15       1.0  0.43630  0.38640  0.98270  1.0000
  H   H16       1.0  0.56370  0.88640  0.51730  1.0000
  C   C25       1.0  0.73230  0.58358  0.09890  1.0000
  C   C26       1.0  0.26770  0.08358  0.40110  1.0000
  C   C27       1.0  0.26770  0.41642  0.90110  1.0000
  C   C28       1.0  0.73230  0.91642  0.59890  1.0000
  C   C29       1.0  0.55730  0.46099  0.84933  1.0000
  C   C30       1.0  0.44270  0.96099  0.65067  1.0000
  C   C31       1.0  0.44270  0.53901  0.15067  1.0000
  C   C32       1.0  0.55730  0.03901  0.34933  1.0000
  C   C33       1.0  0.92830  0.50730  0.44450  1.0000
  C   C34       1.0  0.07170  0.00730  0.05550  1.0000
  C   C35       1.0  0.07170  0.49270  0.55550  1.0000
  C   C36       1.0  0.92830  0.99270  0.94450  1.0000
  H   H17       1.0  0.87970  0.51240  0.40690  1.0000
  H   H18       1.0  0.12030  0.01240  0.09310  1.0000
  H   H19       1.0  0.12030  0.48760  0.59310  1.0000
  H   H20       1.0  0.87970  0.98760  0.90690  1.0000
  C   C37       1.0  0.03530  0.52470  0.43640  1.0000
  C   C38       1.0  0.96470  0.02470  0.06360  1.0000
  C   C39       1.0  0.96470  0.47530  0.56360  1.0000
  C   C40       1.0  0.03530  0.97530  0.93640  1.0000
  C   C41       1.0  0.10710  0.51750  0.49220  1.0000
  C   C42       1.0  0.89290  0.01750  0.00780  1.0000
  C   C43       1.0  0.89290  0.48250  0.50780  1.0000
  C   C44       1.0  0.10710  0.98250  0.99220  1.0000
  H   H21       1.0  0.17920  0.52940  0.48720  1.0000
  H   H22       1.0  0.82080  0.02940  0.01280  1.0000
  H   H23       1.0  0.82080  0.47060  0.51280  1.0000
  H   H24       1.0  0.17920  0.97060  0.98720  1.0000
  C   C45       1.0  0.07340  0.55110  0.36740  1.0000
  C   C46       1.0  0.92660  0.05110  0.13260  1.0000
  C   C47       1.0  0.92660  0.44890  0.63260  1.0000
  C   C48       1.0  0.07340  0.94890  0.86740  1.0000
  C   C49       1.0  0.16670  0.41059  0.21050  1.0000
  C   C50       1.0  0.83330  0.91059  0.28950  1.0000
  C   C51       1.0  0.83330  0.58941  0.78950  1.0000
  C   C52       1.0  0.16670  0.08941  0.71050  1.0000
  C   C53       1.0  0.07520  0.37184  0.20720  1.0000
  C   C54       1.0  0.92480  0.87184  0.29280  1.0000
  C   C55       1.0  0.92480  0.62816  0.79280  1.0000
  C   C56       1.0  0.07520  0.12816  0.70720  1.0000
  H   H25       1.0  0.00740  0.39040  0.20000  1.0000
  H   H26       1.0  0.99260  0.89040  0.30000  1.0000
  H   H27       1.0  0.99260  0.60960  0.80000  1.0000
  H   H28       1.0  0.00740  0.10960  0.70000  1.0000
  C   C57       1.0  0.08450  0.30536  0.21450  1.0000
  C   C58       1.0  0.91550  0.80536  0.28550  1.0000
  C   C59       1.0  0.91550  0.69464  0.78550  1.0000
  C   C60       1.0  0.08450  0.19464  0.71450  1.0000
  H   H29       1.0  0.02300  0.27950  0.21400  1.0000
  H   H30       1.0  0.97700  0.77950  0.28600  1.0000
  H   H31       1.0  0.97700  0.72050  0.78600  1.0000
  H   H32       1.0  0.02300  0.22050  0.71400  1.0000
  C   C61       1.0  0.18640  0.27820  0.22270  1.0000
  C   C62       1.0  0.81360  0.77820  0.27730  1.0000
  C   C63       1.0  0.81360  0.72180  0.77730  1.0000
  C   C64       1.0  0.18640  0.22180  0.72270  1.0000
  C   C65       1.0  0.27760  0.31693  0.22390  1.0000
  C   C66       1.0  0.72240  0.81693  0.27610  1.0000
  C   C67       1.0  0.72240  0.68307  0.77610  1.0000
  C   C68       1.0  0.27760  0.18307  0.72390  1.0000
  H   H33       1.0  0.34580  0.29830  0.22850  1.0000
  H   H34       1.0  0.65420  0.79830  0.27150  1.0000
  H   H35       1.0  0.65420  0.70170  0.77150  1.0000
  H   H36       1.0  0.34580  0.20170  0.72850  1.0000
  C   C69       1.0  0.26790  0.38308  0.21830  1.0000
  C   C70       1.0  0.73210  0.88308  0.28170  1.0000
  C   C71       1.0  0.73210  0.61692  0.78170  1.0000
  C   C72       1.0  0.26790  0.11692  0.71830  1.0000
  H   H37       1.0  0.32930  0.40900  0.21970  1.0000
  H   H38       1.0  0.67070  0.90900  0.28030  1.0000
  H   H39       1.0  0.67070  0.59100  0.78030  1.0000
  H   H40       1.0  0.32930  0.09100  0.71970  1.0000
  C   C73       1.0  0.15590  0.48245  0.20800  1.0000
  C   C74       1.0  0.84410  0.98245  0.29200  1.0000
  C   C75       1.0  0.84410  0.51755  0.79200  1.0000
  C   C76       1.0  0.15590  0.01755  0.70800  1.0000
  C   C77       1.0  0.19970  0.20740  0.23370  1.0000
  C   C78       1.0  0.80030  0.70740  0.26630  1.0000
  C   C79       1.0  0.80030  0.79260  0.76630  1.0000
  C   C80       1.0  0.19970  0.29260  0.73370  1.0000
  C   C81       1.0  0.40530  0.80038  0.23080  1.0000
  C   C82       1.0  0.59470  0.30038  0.26920  1.0000
  C   C83       1.0  0.59470  0.19962  0.76920  1.0000
  C   C84       1.0  0.40530  0.69962  0.73080  1.0000
  C   C85       1.0  0.44670  0.85141  0.19370  1.0000
  C   C86       1.0  0.55330  0.35141  0.30630  1.0000
  C   C87       1.0  0.55330  0.14859  0.80630  1.0000
  C   C88       1.0  0.44670  0.64859  0.69370  1.0000
  H   H41       1.0  0.50690  0.84540  0.16540  1.0000
  H   H42       1.0  0.49310  0.34540  0.33460  1.0000
  H   H43       1.0  0.49310  0.15460  0.83460  1.0000
  H   H44       1.0  0.50690  0.65460  0.66540  1.0000
  C   C89       1.0  0.39920  0.91206  0.19790  1.0000
  C   C90       1.0  0.60080  0.41206  0.30210  1.0000
  C   C91       1.0  0.60080  0.08794  0.80210  1.0000
  C   C92       1.0  0.39920  0.58794  0.69790  1.0000
  H   H45       1.0  0.42940  0.94650  0.17370  1.0000
  H   H46       1.0  0.57060  0.44650  0.32630  1.0000
  H   H47       1.0  0.57060  0.05350  0.82630  1.0000
  H   H48       1.0  0.42940  0.55350  0.67370  1.0000
  C   C93       1.0  0.30850  0.92147  0.23730  1.0000
  C   C94       1.0  0.69150  0.42147  0.26270  1.0000
  C   C95       1.0  0.69150  0.07853  0.76270  1.0000
  C   C96       1.0  0.30850  0.57853  0.73730  1.0000
  C   C97       1.0  0.26640  0.87000  0.27390  1.0000
  C   C98       1.0  0.73360  0.37000  0.22610  1.0000
  C   C99       1.0  0.73360  0.13000  0.72610  1.0000
  C   C100      1.0  0.26640  0.63000  0.77390  1.0000
  H   H49       1.0  0.20440  0.87570  0.30050  1.0000
  H   H50       1.0  0.79560  0.37570  0.19950  1.0000
  H   H51       1.0  0.79560  0.12430  0.69950  1.0000
  H   H52       1.0  0.20440  0.62430  0.80050  1.0000
  C   C101      1.0  0.31470  0.81030  0.27160  1.0000
  C   C102      1.0  0.68530  0.31030  0.22840  1.0000
  C   C103      1.0  0.68530  0.18970  0.72840  1.0000
  C   C104      1.0  0.31470  0.68970  0.77160  1.0000
  H   H53       1.0  0.28620  0.77640  0.29760  1.0000
  H   H54       1.0  0.71380  0.27640  0.20240  1.0000
  H   H55       1.0  0.71380  0.22360  0.70240  1.0000
  H   H56       1.0  0.28620  0.72360  0.79760  1.0000
  C   C105      1.0  0.45430  0.73436  0.22708  1.0000
  C   C106      1.0  0.54570  0.23436  0.27292  1.0000
  C   C107      1.0  0.54570  0.26564  0.77292  1.0000
  C   C108      1.0  0.45430  0.76564  0.72708  1.0000
  C   C109      1.0  0.25110  0.98501  0.24190  1.0000
  C   C110      1.0  0.74890  0.48501  0.25810  1.0000
  C   C111      1.0  0.74890  0.01499  0.75810  1.0000
  C   C112      1.0  0.25110  0.51499  0.74190  1.0000
  C   C113      1.0  0.41750  0.49320  0.45050  1.0000
  C   C114      1.0  0.58250  0.99320  0.04950  1.0000
  C   C115      1.0  0.58250  0.50680  0.54950  1.0000
  C   C116      1.0  0.41750  0.00680  0.95050  1.0000
  H   H57       1.0  0.36170  0.48870  0.41730  1.0000
  H   H58       1.0  0.63830  0.98870  0.08270  1.0000
  H   H59       1.0  0.63830  0.51130  0.58270  1.0000
  H   H60       1.0  0.36170  0.01130  0.91730  1.0000
  C   C117      1.0  0.50140  0.53571  0.43777  1.0000
  C   C118      1.0  0.49860  0.03571  0.06223  1.0000
  C   C119      1.0  0.49860  0.46429  0.56223  1.0000
  C   C120      1.0  0.50140  0.96429  0.93777  1.0000
  C   C121      1.0  0.58380  0.54240  0.48810  1.0000
  C   C122      1.0  0.41620  0.04240  0.01190  1.0000
  C   C123      1.0  0.41620  0.45760  0.51190  1.0000
  C   C124      1.0  0.58380  0.95760  0.98810  1.0000
  H   H61       1.0  0.64010  0.57120  0.48020  1.0000
  H   H62       1.0  0.35990  0.07120  0.01980  1.0000
  H   H63       1.0  0.35990  0.42880  0.51980  1.0000
  H   H64       1.0  0.64010  0.92880  0.98020  1.0000
  C   C125      1.0  0.50670  0.57320  0.37106  1.0000
  C   C126      1.0  0.49330  0.07320  0.12894  1.0000
  C   C127      1.0  0.49330  0.42680  0.62894  1.0000
  C   C128      1.0  0.50670  0.92680  0.87106  1.0000
  C   C129      1.0  0.21180  0.72430  0.46160  1.0000
  C   C130      1.0  0.78820  0.22430  0.03840  1.0000
  C   C131      1.0  0.78820  0.27570  0.53840  1.0000
  C   C132      1.0  0.21180  0.77570  0.96160  1.0000
  C   C133      1.0  0.14280  0.77620  0.45390  1.0000
  C   C134      1.0  0.85720  0.27620  0.04610  1.0000
  C   C135      1.0  0.85720  0.22380  0.54610  1.0000
  C   C136      1.0  0.14280  0.72380  0.95390  1.0000
  H   H65       1.0  0.11520  0.78670  0.40930  1.0000
  H   H66       1.0  0.88480  0.28670  0.09070  1.0000
  H   H67       1.0  0.88480  0.21330  0.59070  1.0000
  H   H68       1.0  0.11520  0.71330  0.90930  1.0000
  C   C137      1.0  0.11440  0.81260  0.51200  1.0000
  C   C138      1.0  0.88560  0.31260  0.98800  1.0000
  C   C139      1.0  0.88560  0.18740  0.48800  1.0000
  C   C140      1.0  0.11440  0.68740  0.01200  1.0000
  H   H69       1.0  0.06670  0.84700  0.50660  1.0000
  H   H70       1.0  0.93330  0.34700  0.99340  1.0000
  H   H71       1.0  0.93330  0.15300  0.49340  1.0000
  H   H72       1.0  0.06670  0.65300  0.00660  1.0000
  C   C141      1.0  0.15670  0.79810  0.57810  1.0000
  C   C142      1.0  0.84330  0.29810  0.92190  1.0000
  C   C143      1.0  0.84330  0.20190  0.42190  1.0000
  C   C144      1.0  0.15670  0.70190  0.07810  1.0000
  C   C145      1.0  0.22690  0.74670  0.58590  1.0000
  C   C146      1.0  0.77310  0.24670  0.91410  1.0000
  C   C147      1.0  0.77310  0.25330  0.41410  1.0000
  C   C148      1.0  0.22690  0.75330  0.08590  1.0000
  H   H73       1.0  0.25570  0.73670  0.63030  1.0000
  H   H74       1.0  0.74430  0.23670  0.86970  1.0000
  H   H75       1.0  0.74430  0.26330  0.36970  1.0000
  H   H76       1.0  0.25570  0.76330  0.13030  1.0000
  C   C149      1.0  0.25420  0.71010  0.52770  1.0000
  C   C150      1.0  0.74580  0.21010  0.97230  1.0000
  C   C151      1.0  0.74580  0.28990  0.47230  1.0000
  C   C152      1.0  0.25420  0.78990  0.02770  1.0000
  H   H77       1.0  0.30150  0.67550  0.53310  1.0000
  H   H78       1.0  0.69850  0.17550  0.96690  1.0000
  H   H79       1.0  0.69850  0.32450  0.46690  1.0000
  H   H80       1.0  0.30150  0.82450  0.03310  1.0000
  C   C153      1.0  0.24170  0.68460  0.39810  1.0000
  C   C154      1.0  0.75830  0.18460  0.10190  1.0000
  C   C155      1.0  0.75830  0.31540  0.60190  1.0000
  C   C156      1.0  0.24170  0.81540  0.89810  1.0000
  C   C157      1.0  0.12410  0.83691  0.64140  1.0000
  C   C158      1.0  0.87590  0.33691  0.85860  1.0000
  C   C159      1.0  0.87590  0.16309  0.35860  1.0000
  C   C160      1.0  0.12410  0.66309  0.14140  1.0000
