data_image0
_chemical_formula_structural       Pb4N14Pb12O12C4O32C16H8C8H16C8H16C8H16C8H16C8H8C8
_chemical_formula_sum              "Pb16 N14 O44 C68 H80"
_cell_length_a       8.1312
_cell_length_b       29.931
_cell_length_c       11.5601
_cell_angle_alpha    90
_cell_angle_beta     102.974
_cell_angle_gamma    90

_space_group_name_H-M_alt    "P 1"
_space_group_IT_number       1

loop_
  _space_group_symop_operation_xyz
  'x, y, z'

loop_
  _atom_site_type_symbol
  _atom_site_label
  _atom_site_symmetry_multiplicity
  _atom_site_fract_x
  _atom_site_fract_y
  _atom_site_fract_z
  _atom_site_occupancy
  Pb  Pb1       1.0  0.40680  0.50000  0.63059  1.0000
  Pb  Pb2       1.0  0.59320  0.50000  0.36941  1.0000
  Pb  Pb3       1.0  0.90680  0.00000  0.63059  1.0000
  Pb  Pb4       1.0  0.09320  0.00000  0.36941  1.0000
  N   N1        1.0  0.73400  0.50000  0.70300  1.0000
  N   N2        1.0  0.26600  0.50000  0.29700  1.0000
  N   N3        1.0  0.23400  0.00000  0.70300  1.0000
  N   N4        1.0  0.76600  0.00000  0.29700  1.0000
  N   N5        1.0  0.83300  0.50000  0.79700  1.0000
  N   N6        1.0  0.16700  0.50000  0.20300  1.0000
  N   N7        1.0  0.33300  0.00000  0.79700  1.0000
  N   N8        1.0  0.66700  0.00000  0.20300  1.0000
  N   N9        1.0  0.90300  0.50000  0.90600  1.0000
  N   N10       1.0  0.09700  0.50000  0.09400  1.0000
  N   N11       1.0  0.40300  0.00000  0.90600  1.0000
  N   N12       1.0  0.59700  0.00000  0.09400  1.0000
  N   N13       1.0  0.00000  0.50000  0.00000  1.0000
  N   N14       1.0  0.50000  0.00000  0.00000  1.0000
  Pb  Pb5       1.0  0.70293  0.59107  0.61270  1.0000
  Pb  Pb6       1.0  0.29707  0.59107  0.38730  1.0000
  Pb  Pb7       1.0  0.20293  0.09107  0.61270  1.0000
  Pb  Pb8       1.0  0.79707  0.09107  0.38730  1.0000
  Pb  Pb9       1.0  0.29707  0.40893  0.38730  1.0000
  Pb  Pb10      1.0  0.70293  0.40893  0.61270  1.0000
  Pb  Pb11      1.0  0.79707  0.90893  0.38730  1.0000
  Pb  Pb12      1.0  0.20293  0.90893  0.61270  1.0000
  Pb  Pb13      1.0  0.50000  0.71430  0.50000  1.0000
  Pb  Pb14      1.0  0.00000  0.21430  0.50000  1.0000
  Pb  Pb15      1.0  0.50000  0.28570  0.50000  1.0000
  Pb  Pb16      1.0  0.00000  0.78570  0.50000  1.0000
  O   O1        1.0  0.50000  0.54710  0.50000  1.0000
  O   O2        1.0  0.00000  0.04710  0.50000  1.0000
  O   O3        1.0  0.50000  0.45290  0.50000  1.0000
  O   O4        1.0  0.00000  0.95290  0.50000  1.0000
  O   O5        1.0  0.13920  0.54560  0.53630  1.0000
  O   O6        1.0  0.86080  0.54560  0.46370  1.0000
  O   O7        1.0  0.63920  0.04560  0.53630  1.0000
  O   O8        1.0  0.36080  0.04560  0.46370  1.0000
  O   O9        1.0  0.86080  0.45440  0.46370  1.0000
  O   O10       1.0  0.13920  0.45440  0.53630  1.0000
  O   O11       1.0  0.36080  0.95440  0.46370  1.0000
  O   O12       1.0  0.63920  0.95440  0.53630  1.0000
  C   C1        1.0  0.00000  0.52650  0.50000  1.0000
  C   C2        1.0  0.50000  0.02650  0.50000  1.0000
  C   C3        1.0  0.00000  0.47350  0.50000  1.0000
  C   C4        1.0  0.50000  0.97350  0.50000  1.0000
  O   O13       1.0  0.38700  0.64040  0.58030  1.0000
  O   O14       1.0  0.61300  0.64040  0.41970  1.0000
  O   O15       1.0  0.88700  0.14040  0.58030  1.0000
  O   O16       1.0  0.11300  0.14040  0.41970  1.0000
  O   O17       1.0  0.61300  0.35960  0.41970  1.0000
  O   O18       1.0  0.38700  0.35960  0.58030  1.0000
  O   O19       1.0  0.11300  0.85960  0.41970  1.0000
  O   O20       1.0  0.88700  0.85960  0.58030  1.0000
  O   O21       1.0  0.48540  0.59350  0.72740  1.0000
  O   O22       1.0  0.51460  0.59350  0.27260  1.0000
  O   O23       1.0  0.98540  0.09350  0.72740  1.0000
  O   O24       1.0  0.01460  0.09350  0.27260  1.0000
  O   O25       1.0  0.51460  0.40650  0.27260  1.0000
  O   O26       1.0  0.48540  0.40650  0.72740  1.0000
  O   O27       1.0  0.01460  0.90650  0.27260  1.0000
  O   O28       1.0  0.98540  0.90650  0.72740  1.0000
  O   O29       1.0  0.71540  0.68240  0.67720  1.0000
  O   O30       1.0  0.28460  0.68240  0.32280  1.0000
  O   O31       1.0  0.21540  0.18240  0.67720  1.0000
  O   O32       1.0  0.78460  0.18240  0.32280  1.0000
  O   O33       1.0  0.28460  0.31760  0.32280  1.0000
  O   O34       1.0  0.71540  0.31760  0.67720  1.0000
  O   O35       1.0  0.78460  0.81760  0.32280  1.0000
  O   O36       1.0  0.21540  0.81760  0.67720  1.0000
  O   O37       1.0  0.84450  0.73700  0.62660  1.0000
  O   O38       1.0  0.15550  0.73700  0.37340  1.0000
  O   O39       1.0  0.34450  0.23700  0.62660  1.0000
  O   O40       1.0  0.65550  0.23700  0.37340  1.0000
  O   O41       1.0  0.15550  0.26300  0.37340  1.0000
  O   O42       1.0  0.84450  0.26300  0.62660  1.0000
  O   O43       1.0  0.65550  0.76300  0.37340  1.0000
  O   O44       1.0  0.34450  0.76300  0.62660  1.0000
  C   C5        1.0  0.38950  0.62540  0.68080  1.0000
  C   C6        1.0  0.61050  0.62540  0.31920  1.0000
  C   C7        1.0  0.88950  0.12540  0.68080  1.0000
  C   C8        1.0  0.11050  0.12540  0.31920  1.0000
  C   C9        1.0  0.61050  0.37460  0.31920  1.0000
  C   C10       1.0  0.38950  0.37460  0.68080  1.0000
  C   C11       1.0  0.11050  0.87460  0.31920  1.0000
  C   C12       1.0  0.88950  0.87460  0.68080  1.0000
  C   C13       1.0  0.27500  0.64450  0.74930  1.0000
  C   C14       1.0  0.72500  0.64450  0.25070  1.0000
  C   C15       1.0  0.77500  0.14450  0.74930  1.0000
  C   C16       1.0  0.22500  0.14450  0.25070  1.0000
  C   C17       1.0  0.72500  0.35550  0.25070  1.0000
  C   C18       1.0  0.27500  0.35550  0.74930  1.0000
  C   C19       1.0  0.22500  0.85550  0.25070  1.0000
  C   C20       1.0  0.77500  0.85550  0.74930  1.0000
  H   H1        1.0  0.23670  0.61900  0.78960  1.0000
  H   H2        1.0  0.76330  0.61900  0.21040  1.0000
  H   H3        1.0  0.73670  0.11900  0.78960  1.0000
  H   H4        1.0  0.26330  0.11900  0.21040  1.0000
  H   H5        1.0  0.76330  0.38100  0.21040  1.0000
  H   H6        1.0  0.23670  0.38100  0.78960  1.0000
  H   H7        1.0  0.26330  0.88100  0.21040  1.0000
  H   H8        1.0  0.73670  0.88100  0.78960  1.0000
  C   C21       1.0  0.11680  0.66570  0.67990  1.0000
  C   C22       1.0  0.88320  0.66570  0.32010  1.0000
  C   C23       1.0  0.61680  0.16570  0.67990  1.0000
  C   C24       1.0  0.38320  0.16570  0.32010  1.0000
  C   C25       1.0  0.88320  0.33430  0.32010  1.0000
  C   C26       1.0  0.11680  0.33430  0.67990  1.0000
  C   C27       1.0  0.38320  0.83430  0.32010  1.0000
  C   C28       1.0  0.61680  0.83430  0.67990  1.0000
  H   H9        1.0  0.05190  0.64330  0.62860  1.0000
  H   H10       1.0  0.94810  0.64330  0.37140  1.0000
  H   H11       1.0  0.55190  0.14330  0.62860  1.0000
  H   H12       1.0  0.44810  0.14330  0.37140  1.0000
  H   H13       1.0  0.94810  0.35670  0.37140  1.0000
  H   H14       1.0  0.05190  0.35670  0.62860  1.0000
  H   H15       1.0  0.44810  0.85670  0.37140  1.0000
  H   H16       1.0  0.55190  0.85670  0.62860  1.0000
  H   H17       1.0  0.14750  0.68870  0.62940  1.0000
  H   H18       1.0  0.85250  0.68870  0.37060  1.0000
  H   H19       1.0  0.64750  0.18870  0.62940  1.0000
  H   H20       1.0  0.35250  0.18870  0.37060  1.0000
  H   H21       1.0  0.85250  0.31130  0.37060  1.0000
  H   H22       1.0  0.14750  0.31130  0.62940  1.0000
  H   H23       1.0  0.35250  0.81130  0.37060  1.0000
  H   H24       1.0  0.64750  0.81130  0.62940  1.0000
  C   C29       1.0  0.36600  0.67290  0.84390  1.0000
  C   C30       1.0  0.63400  0.67290  0.15610  1.0000
  C   C31       1.0  0.86600  0.17290  0.84390  1.0000
  C   C32       1.0  0.13400  0.17290  0.15610  1.0000
  C   C33       1.0  0.63400  0.32710  0.15610  1.0000
  C   C34       1.0  0.36600  0.32710  0.84390  1.0000
  C   C35       1.0  0.13400  0.82710  0.15610  1.0000
  C   C36       1.0  0.86600  0.82710  0.84390  1.0000
  H   H25       1.0  0.41370  0.69810  0.80970  1.0000
  H   H26       1.0  0.58630  0.69810  0.19030  1.0000
  H   H27       1.0  0.91370  0.19810  0.80970  1.0000
  H   H28       1.0  0.08630  0.19810  0.19030  1.0000
  H   H29       1.0  0.58630  0.30190  0.19030  1.0000
  H   H30       1.0  0.41370  0.30190  0.80970  1.0000
  H   H31       1.0  0.08630  0.80190  0.19030  1.0000
  H   H32       1.0  0.91370  0.80190  0.80970  1.0000
  H   H33       1.0  0.45880  0.65620  0.89230  1.0000
  H   H34       1.0  0.54120  0.65620  0.10770  1.0000
  H   H35       1.0  0.95880  0.15620  0.89230  1.0000
  H   H36       1.0  0.04120  0.15620  0.10770  1.0000
  H   H37       1.0  0.54120  0.34380  0.10770  1.0000
  H   H38       1.0  0.45880  0.34380  0.89230  1.0000
  H   H39       1.0  0.04120  0.84380  0.10770  1.0000
  H   H40       1.0  0.95880  0.84380  0.89230  1.0000
  C   C37       1.0  0.25000  0.69040  0.92300  1.0000
  C   C38       1.0  0.75000  0.69040  0.07700  1.0000
  C   C39       1.0  0.75000  0.19040  0.92300  1.0000
  C   C40       1.0  0.25000  0.19040  0.07700  1.0000
  C   C41       1.0  0.75000  0.30960  0.07700  1.0000
  C   C42       1.0  0.25000  0.30960  0.92300  1.0000
  C   C43       1.0  0.25000  0.80960  0.07700  1.0000
  C   C44       1.0  0.75000  0.80960  0.92300  1.0000
  H   H41       1.0  0.21340  0.66570  0.96590  1.0000
  H   H42       1.0  0.78660  0.66570  0.03410  1.0000
  H   H43       1.0  0.71340  0.16570  0.96590  1.0000
  H   H44       1.0  0.28660  0.16570  0.03410  1.0000
  H   H45       1.0  0.78660  0.33430  0.03410  1.0000
  H   H46       1.0  0.21340  0.33430  0.96590  1.0000
  H   H47       1.0  0.28660  0.83430  0.03410  1.0000
  H   H48       1.0  0.71340  0.83430  0.96590  1.0000
  H   H49       1.0  0.31110  0.71140  0.98130  1.0000
  H   H50       1.0  0.68890  0.71140  0.01870  1.0000
  H   H51       1.0  0.81110  0.21140  0.98130  1.0000
  H   H52       1.0  0.18890  0.21140  0.01870  1.0000
  H   H53       1.0  0.68890  0.28860  0.01870  1.0000
  H   H54       1.0  0.31110  0.28860  0.98130  1.0000
  H   H55       1.0  0.18890  0.78860  0.01870  1.0000
  H   H56       1.0  0.81110  0.78860  0.98130  1.0000
  C   C45       1.0  0.10200  0.71260  0.84900  1.0000
  C   C46       1.0  0.89800  0.71260  0.15100  1.0000
  C   C47       1.0  0.60200  0.21260  0.84900  1.0000
  C   C48       1.0  0.39800  0.21260  0.15100  1.0000
  C   C49       1.0  0.89800  0.28740  0.15100  1.0000
  C   C50       1.0  0.10200  0.28740  0.84900  1.0000
  C   C51       1.0  0.39800  0.78740  0.15100  1.0000
  C   C52       1.0  0.60200  0.78740  0.84900  1.0000
  H   H57       1.0  0.13960  0.73930  0.81520  1.0000
  H   H58       1.0  0.86040  0.73930  0.18480  1.0000
  H   H59       1.0  0.63960  0.23930  0.81520  1.0000
  H   H60       1.0  0.36040  0.23930  0.18480  1.0000
  H   H61       1.0  0.86040  0.26070  0.18480  1.0000
  H   H62       1.0  0.13960  0.26070  0.81520  1.0000
  H   H63       1.0  0.36040  0.76070  0.18480  1.0000
  H   H64       1.0  0.63960  0.76070  0.81520  1.0000
  H   H65       1.0  0.02760  0.72200  0.89940  1.0000
  H   H66       1.0  0.97240  0.72200  0.10060  1.0000
  H   H67       1.0  0.52760  0.22200  0.89940  1.0000
  H   H68       1.0  0.47240  0.22200  0.10060  1.0000
  H   H69       1.0  0.97240  0.27800  0.10060  1.0000
  H   H70       1.0  0.02760  0.27800  0.89940  1.0000
  H   H71       1.0  0.47240  0.77800  0.10060  1.0000
  H   H72       1.0  0.52760  0.77800  0.89940  1.0000
  C   C53       1.0  0.00550  0.68650  0.75430  1.0000
  C   C54       1.0  0.99450  0.68650  0.24570  1.0000
  C   C55       1.0  0.50550  0.18650  0.75430  1.0000
  C   C56       1.0  0.49450  0.18650  0.24570  1.0000
  C   C57       1.0  0.99450  0.31350  0.24570  1.0000
  C   C58       1.0  0.00550  0.31350  0.75430  1.0000
  C   C59       1.0  0.49450  0.81350  0.24570  1.0000
  C   C60       1.0  0.50550  0.81350  0.75430  1.0000
  H   H73       1.0  0.97030  0.66070  0.79520  1.0000
  H   H74       1.0  0.02970  0.66070  0.20480  1.0000
  H   H75       1.0  0.47030  0.16070  0.79520  1.0000
  H   H76       1.0  0.52970  0.16070  0.20480  1.0000
  H   H77       1.0  0.02970  0.33930  0.20480  1.0000
  H   H78       1.0  0.97030  0.33930  0.79520  1.0000
  H   H79       1.0  0.52970  0.83930  0.20480  1.0000
  H   H80       1.0  0.47030  0.83930  0.79520  1.0000
  C   C61       1.0  0.84570  0.70300  0.68000  1.0000
  C   C62       1.0  0.15430  0.70300  0.32000  1.0000
  C   C63       1.0  0.34570  0.20300  0.68000  1.0000
  C   C64       1.0  0.65430  0.20300  0.32000  1.0000
  C   C65       1.0  0.15430  0.29700  0.32000  1.0000
  C   C66       1.0  0.84570  0.29700  0.68000  1.0000
  C   C67       1.0  0.65430  0.79700  0.32000  1.0000
  C   C68       1.0  0.34570  0.79700  0.68000  1.0000
