data_image0
_chemical_formula_structural       Tb2Co6O36N18C18H6C12
_chemical_formula_sum              "Tb2 Co6 O36 N18 C30 H6"
_cell_length_a       14.2981
_cell_length_b       14.2981
_cell_length_c       12.5872
_cell_angle_alpha    90
_cell_angle_beta     90
_cell_angle_gamma    120

_space_group_name_H-M_alt    "P 1"
_space_group_IT_number       1

loop_
  _space_group_symop_operation_xyz
  'x, y, z'

loop_
  _atom_site_type_symbol
  _atom_site_label
  _atom_site_symmetry_multiplicity
  _atom_site_fract_x
  _atom_site_fract_y
  _atom_site_fract_z
  _atom_site_occupancy
  Tb  Tb1       1.0  0.33330  0.66670  0.25000  1.0000
  Tb  Tb2       1.0  0.66670  0.33330  0.75000  1.0000
  Co  Co1       1.0  0.75249  0.75249  0.50000  1.0000
  Co  Co2       1.0  1.00000  0.24751  0.00000  1.0000
  Co  Co3       1.0  0.24751  0.00000  0.50000  1.0000
  Co  Co4       1.0  0.75249  0.75249  0.00000  1.0000
  Co  Co5       1.0  1.00000  0.24751  0.50000  1.0000
  Co  Co6       1.0  0.24751  0.00000  0.00000  1.0000
  O   O1        1.0  0.91150  0.77610  0.49870  1.0000
  O   O2        1.0  0.86460  0.08850  0.00130  1.0000
  O   O3        1.0  0.22390  0.13540  0.49870  1.0000
  O   O4        1.0  0.91150  0.77610  0.00130  1.0000
  O   O5        1.0  0.86460  0.08850  0.49870  1.0000
  O   O6        1.0  0.22390  0.13540  0.00130  1.0000
  O   O7        1.0  0.77610  0.91150  0.99870  1.0000
  O   O8        1.0  0.13540  0.22390  0.50130  1.0000
  O   O9        1.0  0.08850  0.86460  0.99870  1.0000
  O   O10       1.0  0.77610  0.91150  0.50130  1.0000
  O   O11       1.0  0.13540  0.22390  0.99870  1.0000
  O   O12       1.0  0.08850  0.86460  0.50130  1.0000
  O   O13       1.0  0.58620  0.70750  0.48350  1.0000
  O   O14       1.0  0.12130  0.41380  0.01650  1.0000
  O   O15       1.0  0.29250  0.87870  0.48350  1.0000
  O   O16       1.0  0.58620  0.70750  0.01650  1.0000
  O   O17       1.0  0.12130  0.41380  0.48350  1.0000
  O   O18       1.0  0.29250  0.87870  0.01650  1.0000
  O   O19       1.0  0.70750  0.58620  0.98350  1.0000
  O   O20       1.0  0.87870  0.29250  0.51650  1.0000
  O   O21       1.0  0.41380  0.12130  0.98350  1.0000
  O   O22       1.0  0.70750  0.58620  0.51650  1.0000
  O   O23       1.0  0.87870  0.29250  0.98350  1.0000
  O   O24       1.0  0.41380  0.12130  0.51650  1.0000
  O   O25       1.0  0.46100  0.68150  0.37020  1.0000
  O   O26       1.0  0.22050  0.53900  0.12980  1.0000
  O   O27       1.0  0.31850  0.77950  0.37020  1.0000
  O   O28       1.0  0.46100  0.68150  0.12980  1.0000
  O   O29       1.0  0.22050  0.53900  0.37020  1.0000
  O   O30       1.0  0.31850  0.77950  0.12980  1.0000
  O   O31       1.0  0.68150  0.46100  0.87020  1.0000
  O   O32       1.0  0.77950  0.31850  0.62980  1.0000
  O   O33       1.0  0.53900  0.22050  0.87020  1.0000
  O   O34       1.0  0.68150  0.46100  0.62980  1.0000
  O   O35       1.0  0.77950  0.31850  0.87020  1.0000
  O   O36       1.0  0.53900  0.22050  0.62980  1.0000
  N   N1        1.0  0.73100  0.74030  0.33500  1.0000
  N   N2        1.0  0.00930  0.26900  0.16500  1.0000
  N   N3        1.0  0.25970  0.99070  0.33500  1.0000
  N   N4        1.0  0.73100  0.74030  0.16500  1.0000
  N   N5        1.0  0.00930  0.26900  0.33500  1.0000
  N   N6        1.0  0.25970  0.99070  0.16500  1.0000
  N   N7        1.0  0.74030  0.73100  0.83500  1.0000
  N   N8        1.0  0.99070  0.25970  0.66500  1.0000
  N   N9        1.0  0.26900  0.00930  0.83500  1.0000
  N   N10       1.0  0.74030  0.73100  0.66500  1.0000
  N   N11       1.0  0.99070  0.25970  0.83500  1.0000
  N   N12       1.0  0.26900  0.00930  0.66500  1.0000
  N   N13       1.0  0.78620  0.75260  0.25000  1.0000
  N   N14       1.0  0.96640  0.21380  0.25000  1.0000
  N   N15       1.0  0.24740  0.03360  0.25000  1.0000
  N   N16       1.0  0.75260  0.78620  0.75000  1.0000
  N   N17       1.0  0.03360  0.24740  0.75000  1.0000
  N   N18       1.0  0.21380  0.96640  0.75000  1.0000
  C   C1        1.0  0.55470  0.69980  0.39150  1.0000
  C   C2        1.0  0.14510  0.44530  0.10850  1.0000
  C   C3        1.0  0.30020  0.85490  0.39150  1.0000
  C   C4        1.0  0.55470  0.69980  0.10850  1.0000
  C   C5        1.0  0.14510  0.44530  0.39150  1.0000
  C   C6        1.0  0.30020  0.85490  0.10850  1.0000
  C   C7        1.0  0.69980  0.55470  0.89150  1.0000
  C   C8        1.0  0.85490  0.30020  0.60850  1.0000
  C   C9        1.0  0.44530  0.14510  0.89150  1.0000
  C   C10       1.0  0.69980  0.55470  0.60850  1.0000
  C   C11       1.0  0.85490  0.30020  0.89150  1.0000
  C   C12       1.0  0.44530  0.14510  0.60850  1.0000
  C   C13       1.0  0.00000  0.85470  0.50000  1.0000
  C   C14       1.0  0.85470  1.00000  0.00000  1.0000
  C   C15       1.0  0.14530  0.14530  0.50000  1.0000
  C   C16       1.0  0.00000  0.85470  0.00000  1.0000
  C   C17       1.0  0.85470  1.00000  0.50000  1.0000
  C   C18       1.0  0.14530  0.14530  0.00000  1.0000
  H   H1        1.0  0.00000  0.91980  0.50000  1.0000
  H   H2        1.0  0.91980  1.00000  0.00000  1.0000
  H   H3        1.0  0.08020  0.08020  0.50000  1.0000
  H   H4        1.0  0.00000  0.91980  0.00000  1.0000
  H   H5        1.0  0.91980  1.00000  0.50000  1.0000
  H   H6        1.0  0.08020  0.08020  0.00000  1.0000
  C   C19       1.0  0.63240  0.71810  0.30640  1.0000
  C   C20       1.0  0.08570  0.36760  0.19360  1.0000
  C   C21       1.0  0.28190  0.91430  0.30640  1.0000
  C   C22       1.0  0.63240  0.71810  0.19360  1.0000
  C   C23       1.0  0.08570  0.36760  0.30640  1.0000
  C   C24       1.0  0.28190  0.91430  0.19360  1.0000
  C   C25       1.0  0.71810  0.63240  0.80640  1.0000
  C   C26       1.0  0.91430  0.28190  0.69360  1.0000
  C   C27       1.0  0.36760  0.08570  0.80640  1.0000
  C   C28       1.0  0.71810  0.63240  0.69360  1.0000
  C   C29       1.0  0.91430  0.28190  0.80640  1.0000
  C   C30       1.0  0.36760  0.08570  0.69360  1.0000
