data_image0
_chemical_formula_structural       Eu2Co6O36N18C18H6C12
_chemical_formula_sum              "Eu2 Co6 O36 N18 C30 H6"
_cell_length_a       14.346
_cell_length_b       14.346
_cell_length_c       12.5958
_cell_angle_alpha    90
_cell_angle_beta     90
_cell_angle_gamma    120

_space_group_name_H-M_alt    "P 1"
_space_group_IT_number       1

loop_
  _space_group_symop_operation_xyz
  'x, y, z'

loop_
  _atom_site_type_symbol
  _atom_site_label
  _atom_site_symmetry_multiplicity
  _atom_site_fract_x
  _atom_site_fract_y
  _atom_site_fract_z
  _atom_site_occupancy
  Eu  Eu1       1.0  0.33330  0.66670  0.25000  1.0000
  Eu  Eu2       1.0  0.66670  0.33330  0.75000  1.0000
  Co  Co1       1.0  0.75337  0.75337  0.50000  1.0000
  Co  Co2       1.0  0.00000  0.24663  0.00000  1.0000
  Co  Co3       1.0  0.24663  1.00000  0.50000  1.0000
  Co  Co4       1.0  0.75337  0.75337  0.00000  1.0000
  Co  Co5       1.0  0.00000  0.24663  0.50000  1.0000
  Co  Co6       1.0  0.24663  1.00000  0.00000  1.0000
  O   O1        1.0  0.91460  0.78470  0.49900  1.0000
  O   O2        1.0  0.87010  0.08540  0.00100  1.0000
  O   O3        1.0  0.21530  0.12990  0.49900  1.0000
  O   O4        1.0  0.91460  0.78470  0.00100  1.0000
  O   O5        1.0  0.87010  0.08540  0.49900  1.0000
  O   O6        1.0  0.21530  0.12990  0.00100  1.0000
  O   O7        1.0  0.78470  0.91460  0.99900  1.0000
  O   O8        1.0  0.12990  0.21530  0.50100  1.0000
  O   O9        1.0  0.08540  0.87010  0.99900  1.0000
  O   O10       1.0  0.78470  0.91460  0.50100  1.0000
  O   O11       1.0  0.12990  0.21530  0.99900  1.0000
  O   O12       1.0  0.08540  0.87010  0.50100  1.0000
  O   O13       1.0  0.58780  0.70890  0.48600  1.0000
  O   O14       1.0  0.12110  0.41220  0.01400  1.0000
  O   O15       1.0  0.29110  0.87890  0.48600  1.0000
  O   O16       1.0  0.58780  0.70890  0.01400  1.0000
  O   O17       1.0  0.12110  0.41220  0.48600  1.0000
  O   O18       1.0  0.29110  0.87890  0.01400  1.0000
  O   O19       1.0  0.70890  0.58780  0.98600  1.0000
  O   O20       1.0  0.87890  0.29110  0.51400  1.0000
  O   O21       1.0  0.41220  0.12110  0.98600  1.0000
  O   O22       1.0  0.70890  0.58780  0.51400  1.0000
  O   O23       1.0  0.87890  0.29110  0.98600  1.0000
  O   O24       1.0  0.41220  0.12110  0.51400  1.0000
  O   O25       1.0  0.46180  0.68210  0.37180  1.0000
  O   O26       1.0  0.22030  0.53820  0.12820  1.0000
  O   O27       1.0  0.31790  0.77970  0.37180  1.0000
  O   O28       1.0  0.46180  0.68210  0.12820  1.0000
  O   O29       1.0  0.22030  0.53820  0.37180  1.0000
  O   O30       1.0  0.31790  0.77970  0.12820  1.0000
  O   O31       1.0  0.68210  0.46180  0.87180  1.0000
  O   O32       1.0  0.77970  0.31790  0.62820  1.0000
  O   O33       1.0  0.53820  0.22030  0.87180  1.0000
  O   O34       1.0  0.68210  0.46180  0.62820  1.0000
  O   O35       1.0  0.77970  0.31790  0.87180  1.0000
  O   O36       1.0  0.53820  0.22030  0.62820  1.0000
  N   N1        1.0  0.73130  0.74100  0.33480  1.0000
  N   N2        1.0  0.00970  0.26870  0.16520  1.0000
  N   N3        1.0  0.25900  0.99030  0.33480  1.0000
  N   N4        1.0  0.73130  0.74100  0.16520  1.0000
  N   N5        1.0  0.00970  0.26870  0.33480  1.0000
  N   N6        1.0  0.25900  0.99030  0.16520  1.0000
  N   N7        1.0  0.74100  0.73130  0.83480  1.0000
  N   N8        1.0  0.99030  0.25900  0.66520  1.0000
  N   N9        1.0  0.26870  0.00970  0.83480  1.0000
  N   N10       1.0  0.74100  0.73130  0.66520  1.0000
  N   N11       1.0  0.99030  0.25900  0.83480  1.0000
  N   N12       1.0  0.26870  0.00970  0.66520  1.0000
  N   N13       1.0  0.78860  0.75160  0.25000  1.0000
  N   N14       1.0  0.96300  0.21140  0.25000  1.0000
  N   N15       1.0  0.24840  0.03700  0.25000  1.0000
  N   N16       1.0  0.75160  0.78860  0.75000  1.0000
  N   N17       1.0  0.03700  0.24840  0.75000  1.0000
  N   N18       1.0  0.21140  0.96300  0.75000  1.0000
  C   C1        1.0  0.55560  0.70280  0.39090  1.0000
  C   C2        1.0  0.14720  0.44440  0.10910  1.0000
  C   C3        1.0  0.29720  0.85280  0.39090  1.0000
  C   C4        1.0  0.55560  0.70280  0.10910  1.0000
  C   C5        1.0  0.14720  0.44440  0.39090  1.0000
  C   C6        1.0  0.29720  0.85280  0.10910  1.0000
  C   C7        1.0  0.70280  0.55560  0.89090  1.0000
  C   C8        1.0  0.85280  0.29720  0.60910  1.0000
  C   C9        1.0  0.44440  0.14720  0.89090  1.0000
  C   C10       1.0  0.70280  0.55560  0.60910  1.0000
  C   C11       1.0  0.85280  0.29720  0.89090  1.0000
  C   C12       1.0  0.44440  0.14720  0.60910  1.0000
  C   C13       1.0  1.00000  0.85590  0.50000  1.0000
  C   C14       1.0  0.85590  0.00000  0.00000  1.0000
  C   C15       1.0  0.14410  0.14410  0.50000  1.0000
  C   C16       1.0  1.00000  0.85590  0.00000  1.0000
  C   C17       1.0  0.85590  0.00000  0.50000  1.0000
  C   C18       1.0  0.14410  0.14410  0.00000  1.0000
  H   H1        1.0  1.00000  0.92070  0.50000  1.0000
  H   H2        1.0  0.92070  0.00000  0.00000  1.0000
  H   H3        1.0  0.07930  0.07930  0.50000  1.0000
  H   H4        1.0  1.00000  0.92070  0.00000  1.0000
  H   H5        1.0  0.92070  0.00000  0.50000  1.0000
  H   H6        1.0  0.07930  0.07930  0.00000  1.0000
  C   C19       1.0  0.63210  0.71740  0.30550  1.0000
  C   C20       1.0  0.08530  0.36790  0.19450  1.0000
  C   C21       1.0  0.28260  0.91470  0.30550  1.0000
  C   C22       1.0  0.63210  0.71740  0.19450  1.0000
  C   C23       1.0  0.08530  0.36790  0.30550  1.0000
  C   C24       1.0  0.28260  0.91470  0.19450  1.0000
  C   C25       1.0  0.71740  0.63210  0.80550  1.0000
  C   C26       1.0  0.91470  0.28260  0.69450  1.0000
  C   C27       1.0  0.36790  0.08530  0.80550  1.0000
  C   C28       1.0  0.71740  0.63210  0.69450  1.0000
  C   C29       1.0  0.91470  0.28260  0.80550  1.0000
  C   C30       1.0  0.36790  0.08530  0.69450  1.0000
