data_image0
_chemical_formula_structural       I20Cu24C4H4N24C4H4C4H4C4H4
_chemical_formula_sum              "I20 Cu24 C16 H16 N24"
_cell_length_a       10.6931
_cell_length_b       14.4122
_cell_length_c       17.5869
_cell_angle_alpha    90
_cell_angle_beta     102.795
_cell_angle_gamma    90

_space_group_name_H-M_alt    "P 1"
_space_group_IT_number       1

loop_
  _space_group_symop_operation_xyz
  'x, y, z'

loop_
  _atom_site_type_symbol
  _atom_site_label
  _atom_site_symmetry_multiplicity
  _atom_site_fract_x
  _atom_site_fract_y
  _atom_site_fract_z
  _atom_site_occupancy
  I   I1        1.0  0.85806  0.25419  0.10501  1.0000
  I   I2        1.0  0.14194  0.75419  0.39499  1.0000
  I   I3        1.0  0.14194  0.74581  0.89499  1.0000
  I   I4        1.0  0.85806  0.24581  0.60501  1.0000
  I   I5        1.0  0.02753  0.49875  0.25368  1.0000
  I   I6        1.0  0.97247  0.99875  0.24632  1.0000
  I   I7        1.0  0.97247  0.50125  0.74632  1.0000
  I   I8        1.0  0.02753  0.00125  0.75368  1.0000
  I   I9        1.0  0.84987  0.25360  0.35634  1.0000
  I   I10       1.0  0.15013  0.75360  0.14366  1.0000
  I   I11       1.0  0.15013  0.74640  0.64366  1.0000
  I   I12       1.0  0.84987  0.24640  0.85634  1.0000
  I   I13       1.0  0.21598  0.25419  0.28131  1.0000
  I   I14       1.0  0.78402  0.75419  0.21869  1.0000
  I   I15       1.0  0.78402  0.74581  0.71869  1.0000
  I   I16       1.0  0.21598  0.24581  0.78131  1.0000
  I   I17       1.0  0.60765  0.45035  0.19456  1.0000
  I   I18       1.0  0.39235  0.95035  0.30544  1.0000
  I   I19       1.0  0.39235  0.54965  0.80544  1.0000
  I   I20       1.0  0.60765  0.04965  0.69456  1.0000
  Cu  Cu1       1.0  0.96737  0.30448  0.24745  1.0000
  Cu  Cu2       1.0  0.03263  0.80448  0.25255  1.0000
  Cu  Cu3       1.0  0.03263  0.69552  0.75255  1.0000
  Cu  Cu4       1.0  0.96737  0.19552  0.74745  1.0000
  Cu  Cu5       1.0  0.06020  0.15157  0.18310  1.0000
  Cu  Cu6       1.0  0.93980  0.65157  0.31690  1.0000
  Cu  Cu7       1.0  0.93980  0.84843  0.81690  1.0000
  Cu  Cu8       1.0  0.06020  0.34843  0.68310  1.0000
  Cu  Cu9       1.0  0.81751  0.42923  0.14666  1.0000
  Cu  Cu10      1.0  0.18249  0.92923  0.35334  1.0000
  Cu  Cu11      1.0  0.18249  0.57077  0.85334  1.0000
  Cu  Cu12      1.0  0.81751  0.07077  0.64666  1.0000
  Cu  Cu13      1.0  0.81189  0.42912  0.30341  1.0000
  Cu  Cu14      1.0  0.18811  0.92912  0.19659  1.0000
  Cu  Cu15      1.0  0.18811  0.57088  0.69659  1.0000
  Cu  Cu16      1.0  0.81189  0.07088  0.80341  1.0000
  Cu  Cu17      1.0  0.94310  0.65237  0.16567  1.0000
  Cu  Cu18      1.0  0.05690  0.15237  0.33433  1.0000
  Cu  Cu19      1.0  0.05690  0.34763  0.83433  1.0000
  Cu  Cu20      1.0  0.94310  0.84763  0.66567  1.0000
  Cu  Cu21      1.0  0.03870  0.24925  0.00549  1.0000
  Cu  Cu22      1.0  0.96130  0.74925  0.49451  1.0000
  Cu  Cu23      1.0  0.96130  0.75075  0.99451  1.0000
  Cu  Cu24      1.0  0.03870  0.25075  0.50549  1.0000
  C   C1        1.0  0.85540  0.56220  0.94050  1.0000
  C   C2        1.0  0.14460  0.06220  0.55950  1.0000
  C   C3        1.0  0.14460  0.43780  0.05950  1.0000
  C   C4        1.0  0.85540  0.93780  0.44050  1.0000
  H   H1        1.0  0.85400  0.56780  0.88760  1.0000
  H   H2        1.0  0.14600  0.06780  0.61240  1.0000
  H   H3        1.0  0.14600  0.43220  0.11240  1.0000
  H   H4        1.0  0.85400  0.93220  0.38760  1.0000
  N   N1        1.0  0.83470  0.50540  0.05350  1.0000
  N   N2        1.0  0.16530  0.00540  0.44650  1.0000
  N   N3        1.0  0.16530  0.49460  0.94650  1.0000
  N   N4        1.0  0.83470  0.99460  0.55350  1.0000
  N   N5        1.0  0.88410  0.58980  0.06420  1.0000
  N   N6        1.0  0.11590  0.08980  0.43580  1.0000
  N   N7        1.0  0.11590  0.41020  0.93580  1.0000
  N   N8        1.0  0.88410  0.91020  0.56420  1.0000
  N   N9        1.0  0.89500  0.62750  0.99640  1.0000
  N   N10       1.0  0.10500  0.12750  0.50360  1.0000
  N   N11       1.0  0.10500  0.37250  0.00360  1.0000
  N   N12       1.0  0.89500  0.87250  0.49640  1.0000
  N   N13       1.0  0.17110  0.00500  0.09860  1.0000
  N   N14       1.0  0.82890  0.50500  0.40140  1.0000
  N   N15       1.0  0.82890  0.99500  0.90140  1.0000
  N   N16       1.0  0.17110  0.49500  0.59860  1.0000
  N   N17       1.0  0.10530  0.12560  0.02660  1.0000
  N   N18       1.0  0.89470  0.62560  0.47340  1.0000
  N   N19       1.0  0.89470  0.87440  0.97340  1.0000
  N   N20       1.0  0.10530  0.37440  0.52660  1.0000
  N   N21       1.0  0.12280  0.09210  0.09720  1.0000
  N   N22       1.0  0.87720  0.59210  0.40280  1.0000
  N   N23       1.0  0.87720  0.90790  0.90280  1.0000
  N   N24       1.0  0.12280  0.40790  0.59720  1.0000
  C   C5        1.0  0.18760  0.98620  0.02800  1.0000
  C   C6        1.0  0.81240  0.48620  0.47200  1.0000
  C   C7        1.0  0.81240  0.01380  0.97200  1.0000
  C   C8        1.0  0.18760  0.51380  0.52800  1.0000
  H   H5        1.0  0.22060  0.93140  0.01250  1.0000
  H   H6        1.0  0.77940  0.43140  0.48750  1.0000
  H   H7        1.0  0.77940  0.06860  0.98750  1.0000
  H   H8        1.0  0.22060  0.56860  0.51250  1.0000
  C   C9        1.0  0.14810  0.06050  0.98230  1.0000
  C   C10       1.0  0.85190  0.56050  0.51770  1.0000
  C   C11       1.0  0.85190  0.93950  0.01770  1.0000
  C   C12       1.0  0.14810  0.43950  0.48230  1.0000
  H   H9        1.0  0.14970  0.06620  0.92980  1.0000
  H   H10       1.0  0.85030  0.56620  0.57020  1.0000
  H   H11       1.0  0.85030  0.93380  0.07020  1.0000
  H   H12       1.0  0.14970  0.43380  0.42980  1.0000
  C   C13       1.0  0.81770  0.48630  0.97690  1.0000
  C   C14       1.0  0.18230  0.98630  0.52310  1.0000
  C   C15       1.0  0.18230  0.51370  0.02310  1.0000
  C   C16       1.0  0.81770  0.01370  0.47690  1.0000
  H   H13       1.0  0.78580  0.43110  0.95290  1.0000
  H   H14       1.0  0.21420  0.93110  0.54710  1.0000
  H   H15       1.0  0.21420  0.56890  0.04710  1.0000
  H   H16       1.0  0.78580  0.06890  0.45290  1.0000
