data_image0
_chemical_formula_structural       Cu8S8C4H4C12H4C4H4C12H4C4H4C12H4N8O16H4
_chemical_formula_sum              "Cu8 S8 C48 H28 N8 O16"
_cell_length_a       11.3797
_cell_length_b       3.8231
_cell_length_c       31.2186
_cell_angle_alpha    90
_cell_angle_beta     90
_cell_angle_gamma    90

_space_group_name_H-M_alt    "P 1"
_space_group_IT_number       1

loop_
  _space_group_symop_operation_xyz
  'x, y, z'

loop_
  _atom_site_type_symbol
  _atom_site_label
  _atom_site_symmetry_multiplicity
  _atom_site_fract_x
  _atom_site_fract_y
  _atom_site_fract_z
  _atom_site_occupancy
  Cu  Cu1       1.0  0.44967  0.72790  0.07389  1.0000
  Cu  Cu2       1.0  0.55033  0.27210  0.57389  1.0000
  Cu  Cu3       1.0  0.05033  0.22790  0.57389  1.0000
  Cu  Cu4       1.0  0.94967  0.77210  0.07389  1.0000
  Cu  Cu5       1.0  0.20163  0.28810  0.03165  1.0000
  Cu  Cu6       1.0  0.79837  0.71190  0.53165  1.0000
  Cu  Cu7       1.0  0.29837  0.78810  0.53165  1.0000
  Cu  Cu8       1.0  0.70163  0.21190  0.03165  1.0000
  S   S1        1.0  0.40340  0.23470  0.03274  1.0000
  S   S2        1.0  0.59660  0.76530  0.53274  1.0000
  S   S3        1.0  0.09660  0.73470  0.53274  1.0000
  S   S4        1.0  0.90340  0.26530  0.03274  1.0000
  S   S5        1.0  0.15190  0.77850  0.07160  1.0000
  S   S6        1.0  0.84810  0.22150  0.57160  1.0000
  S   S7        1.0  0.34810  0.27850  0.57160  1.0000
  S   S8        1.0  0.65190  0.72150  0.07160  1.0000
  C   C1        1.0  0.38740  0.89600  0.16240  1.0000
  C   C2        1.0  0.61260  0.10400  0.66240  1.0000
  C   C3        1.0  0.11260  0.39600  0.66240  1.0000
  C   C4        1.0  0.88740  0.60400  0.16240  1.0000
  H   H1        1.0  0.46790  0.84150  0.16690  1.0000
  H   H2        1.0  0.53210  0.15850  0.66690  1.0000
  H   H3        1.0  0.03210  0.34150  0.66690  1.0000
  H   H4        1.0  0.96790  0.65850  0.16690  1.0000
  C   C5        1.0  0.32840  0.04770  0.19610  1.0000
  C   C6        1.0  0.67160  0.95230  0.69610  1.0000
  C   C7        1.0  0.17160  0.54770  0.69610  1.0000
  C   C8        1.0  0.82840  0.45230  0.19610  1.0000
  C   C9        1.0  0.38720  0.10200  0.23780  1.0000
  C   C10       1.0  0.61280  0.89800  0.73780  1.0000
  C   C11       1.0  0.11280  0.60200  0.73780  1.0000
  C   C12       1.0  0.88720  0.39800  0.23780  1.0000
  C   C13       1.0  0.21100  0.13800  0.18920  1.0000
  C   C14       1.0  0.78900  0.86200  0.68920  1.0000
  C   C15       1.0  0.28900  0.63800  0.68920  1.0000
  C   C16       1.0  0.71100  0.36200  0.18920  1.0000
  H   H5        1.0  0.16720  0.25080  0.21120  1.0000
  H   H6        1.0  0.83280  0.74920  0.71120  1.0000
  H   H7        1.0  0.33280  0.75080  0.71120  1.0000
  H   H8        1.0  0.66720  0.24920  0.21120  1.0000
  C   C17       1.0  0.15970  0.06540  0.15090  1.0000
  C   C18       1.0  0.84030  0.93460  0.65090  1.0000
  C   C19       1.0  0.34030  0.56540  0.65090  1.0000
  C   C20       1.0  0.65970  0.43460  0.15090  1.0000
  H   H9        1.0  0.08050  0.13180  0.14580  1.0000
  H   H10       1.0  0.91950  0.86820  0.64580  1.0000
  H   H11       1.0  0.41950  0.63180  0.64580  1.0000
  H   H12       1.0  0.58050  0.36820  0.14580  1.0000
  C   C21       1.0  0.22420  0.89030  0.11860  1.0000
  C   C22       1.0  0.77580  0.10970  0.61860  1.0000
  C   C23       1.0  0.27580  0.39030  0.61860  1.0000
  C   C24       1.0  0.72420  0.60970  0.11860  1.0000
  C   C25       1.0  0.47620  0.36500  0.98540  1.0000
  C   C26       1.0  0.52380  0.63500  0.48540  1.0000
  C   C27       1.0  0.02380  0.86500  0.48540  1.0000
  C   C28       1.0  0.97620  0.13500  0.98540  1.0000
  C   C29       1.0  0.41300  0.55060  0.95480  1.0000
  C   C30       1.0  0.58700  0.44940  0.45480  1.0000
  C   C31       1.0  0.08700  0.05060  0.45480  1.0000
  C   C32       1.0  0.91300  0.94940  0.95480  1.0000
  H   H13       1.0  0.33390  0.61480  0.96050  1.0000
  H   H14       1.0  0.66610  0.38520  0.46050  1.0000
  H   H15       1.0  0.16610  0.11480  0.46050  1.0000
  H   H16       1.0  0.83390  0.88520  0.96050  1.0000
  C   C33       1.0  0.46310  0.64200  0.91660  1.0000
  C   C34       1.0  0.53690  0.35800  0.41660  1.0000
  C   C35       1.0  0.03690  0.14200  0.41660  1.0000
  C   C36       1.0  0.96310  0.85800  0.91660  1.0000
  H   H17       1.0  0.42010  0.76960  0.89580  1.0000
  H   H18       1.0  0.57990  0.23040  0.39580  1.0000
  H   H19       1.0  0.07990  0.26960  0.39580  1.0000
  H   H20       1.0  0.92010  0.73040  0.89580  1.0000
  C   C37       1.0  0.57960  0.54100  0.90900  1.0000
  C   C38       1.0  0.42040  0.45900  0.40900  1.0000
  C   C39       1.0  0.92040  0.04100  0.40900  1.0000
  C   C40       1.0  0.07960  0.95900  0.90900  1.0000
  C   C41       1.0  0.63890  0.60800  0.86720  1.0000
  C   C42       1.0  0.36110  0.39200  0.36720  1.0000
  C   C43       1.0  0.86110  0.10800  0.36720  1.0000
  C   C44       1.0  0.13890  0.89200  0.86720  1.0000
  C   C45       1.0  0.64030  0.38160  0.94220  1.0000
  C   C46       1.0  0.35970  0.61840  0.44220  1.0000
  C   C47       1.0  0.85970  0.88160  0.44220  1.0000
  C   C48       1.0  0.14030  0.11840  0.94220  1.0000
  H   H21       1.0  0.72120  0.33130  0.93800  1.0000
  H   H22       1.0  0.27880  0.66870  0.43800  1.0000
  H   H23       1.0  0.77880  0.83130  0.43800  1.0000
  H   H24       1.0  0.22120  0.16870  0.93800  1.0000
  N   N1        1.0  0.34230  0.81790  0.12360  1.0000
  N   N2        1.0  0.65770  0.18210  0.62360  1.0000
  N   N3        1.0  0.15770  0.31790  0.62360  1.0000
  N   N4        1.0  0.84230  0.68210  0.12360  1.0000
  N   N5        1.0  0.59160  0.29300  0.98010  1.0000
  N   N6        1.0  0.40840  0.70700  0.48010  1.0000
  N   N7        1.0  0.90840  0.79300  0.48010  1.0000
  N   N8        1.0  0.09160  0.20700  0.98010  1.0000
  O   O1        1.0  0.49350  0.03650  0.24270  1.0000
  O   O2        1.0  0.50650  0.96350  0.74270  1.0000
  O   O3        1.0  0.00650  0.53650  0.74270  1.0000
  O   O4        1.0  0.99350  0.46350  0.24270  1.0000
  O   O5        1.0  0.31970  0.21740  0.26880  1.0000
  O   O6        1.0  0.68030  0.78260  0.76880  1.0000
  O   O7        1.0  0.18030  0.71740  0.76880  1.0000
  O   O8        1.0  0.81970  0.28260  0.26880  1.0000
  O   O9        1.0  0.57410  0.72980  0.83730  1.0000
  O   O10       1.0  0.42590  0.27020  0.33730  1.0000
  O   O11       1.0  0.92590  0.22980  0.33730  1.0000
  O   O12       1.0  0.07410  0.77020  0.83730  1.0000
  O   O13       1.0  0.74510  0.54630  0.86260  1.0000
  O   O14       1.0  0.25490  0.45370  0.36260  1.0000
  O   O15       1.0  0.75490  0.04630  0.36260  1.0000
  O   O16       1.0  0.24510  0.95370  0.86260  1.0000
  H   H25       1.0  0.35900  0.26000  0.29000  1.0000
  H   H26       1.0  0.64100  0.74000  0.79000  1.0000
  H   H27       1.0  0.14100  0.76000  0.79000  1.0000
  H   H28       1.0  0.85900  0.24000  0.29000  1.0000
