data_image0
_chemical_formula_structural       W40O128N56C16H16C16H16C32H16C8H8Co4
_chemical_formula_sum              "W40 O128 N56 C72 H56 Co4"
_cell_length_a       13.0024
_cell_length_b       21.9573
_cell_length_c       22.2526
_cell_angle_alpha    90
_cell_angle_beta     90
_cell_angle_gamma    90

_space_group_name_H-M_alt    "P 1"
_space_group_IT_number       1

loop_
  _space_group_symop_operation_xyz
  'x, y, z'

loop_
  _atom_site_type_symbol
  _atom_site_label
  _atom_site_symmetry_multiplicity
  _atom_site_fract_x
  _atom_site_fract_y
  _atom_site_fract_z
  _atom_site_occupancy
  W   W1        1.0  0.18728  0.07947  0.00000  1.0000
  W   W2        1.0  0.81272  0.92053  0.00000  1.0000
  W   W3        1.0  0.81272  0.07947  0.50000  1.0000
  W   W4        1.0  0.18728  0.92053  0.50000  1.0000
  W   W5        1.0  0.68728  0.57947  0.00000  1.0000
  W   W6        1.0  0.31272  0.42053  0.00000  1.0000
  W   W7        1.0  0.31272  0.57947  0.50000  1.0000
  W   W8        1.0  0.68728  0.42053  0.50000  1.0000
  W   W9        1.0  0.14162  0.97904  0.89566  1.0000
  W   W10       1.0  0.85838  0.02096  0.89566  1.0000
  W   W11       1.0  0.85838  0.97904  0.60434  1.0000
  W   W12       1.0  0.14162  0.02096  0.60434  1.0000
  W   W13       1.0  0.64162  0.47904  0.89566  1.0000
  W   W14       1.0  0.35838  0.52096  0.89566  1.0000
  W   W15       1.0  0.35838  0.47904  0.60434  1.0000
  W   W16       1.0  0.64162  0.52096  0.60434  1.0000
  W   W17       1.0  0.85838  0.02096  0.10434  1.0000
  W   W18       1.0  0.14162  0.97904  0.10434  1.0000
  W   W19       1.0  0.14162  0.02096  0.39566  1.0000
  W   W20       1.0  0.85838  0.97904  0.39566  1.0000
  W   W21       1.0  0.35838  0.52096  0.10434  1.0000
  W   W22       1.0  0.64162  0.47904  0.10434  1.0000
  W   W23       1.0  0.64162  0.52096  0.39566  1.0000
  W   W24       1.0  0.35838  0.47904  0.39566  1.0000
  W   W25       1.0  0.90474  0.12312  0.00000  1.0000
  W   W26       1.0  0.09526  0.87688  0.00000  1.0000
  W   W27       1.0  0.09526  0.12312  0.50000  1.0000
  W   W28       1.0  0.90474  0.87688  0.50000  1.0000
  W   W29       1.0  0.40474  0.62312  0.00000  1.0000
  W   W30       1.0  0.59526  0.37688  0.00000  1.0000
  W   W31       1.0  0.59526  0.62312  0.50000  1.0000
  W   W32       1.0  0.40474  0.37688  0.50000  1.0000
  W   W33       1.0  0.31641  0.95179  0.00000  1.0000
  W   W34       1.0  0.68359  0.04821  0.00000  1.0000
  W   W35       1.0  0.68359  0.95179  0.50000  1.0000
  W   W36       1.0  0.31641  0.04821  0.50000  1.0000
  W   W37       1.0  0.81641  0.45179  0.00000  1.0000
  W   W38       1.0  0.18359  0.54821  0.00000  1.0000
  W   W39       1.0  0.18359  0.45179  0.50000  1.0000
  W   W40       1.0  0.81641  0.54821  0.50000  1.0000
  O   O1        1.0  0.22980  0.15390  0.00000  1.0000
  O   O2        1.0  0.77020  0.84610  0.00000  1.0000
  O   O3        1.0  0.77020  0.15390  0.50000  1.0000
  O   O4        1.0  0.22980  0.84610  0.50000  1.0000
  O   O5        1.0  0.72980  0.65390  0.00000  1.0000
  O   O6        1.0  0.27020  0.34610  0.00000  1.0000
  O   O7        1.0  0.27020  0.65390  0.50000  1.0000
  O   O8        1.0  0.72980  0.34610  0.50000  1.0000
  O   O9        1.0  0.14630  0.98050  0.00000  1.0000
  O   O10       1.0  0.85370  0.01950  0.00000  1.0000
  O   O11       1.0  0.85370  0.98050  0.50000  1.0000
  O   O12       1.0  0.14630  0.01950  0.50000  1.0000
  O   O13       1.0  0.64630  0.48050  0.00000  1.0000
  O   O14       1.0  0.35370  0.51950  0.00000  1.0000
  O   O15       1.0  0.35370  0.48050  0.50000  1.0000
  O   O16       1.0  0.64630  0.51950  0.50000  1.0000
  O   O17       1.0  0.31850  0.04010  0.00000  1.0000
  O   O18       1.0  0.68150  0.95990  0.00000  1.0000
  O   O19       1.0  0.68150  0.04010  0.50000  1.0000
  O   O20       1.0  0.31850  0.95990  0.50000  1.0000
  O   O21       1.0  0.81850  0.54010  0.00000  1.0000
  O   O22       1.0  0.18150  0.45990  0.00000  1.0000
  O   O23       1.0  0.18150  0.54010  0.50000  1.0000
  O   O24       1.0  0.81850  0.45990  0.50000  1.0000
  O   O25       1.0  0.17540  0.06230  0.08340  1.0000
  O   O26       1.0  0.82460  0.93770  0.08340  1.0000
  O   O27       1.0  0.82460  0.06230  0.41660  1.0000
  O   O28       1.0  0.17540  0.93770  0.41660  1.0000
  O   O29       1.0  0.67540  0.56230  0.08340  1.0000
  O   O30       1.0  0.32460  0.43770  0.08340  1.0000
  O   O31       1.0  0.32460  0.56230  0.41660  1.0000
  O   O32       1.0  0.67540  0.43770  0.41660  1.0000
  O   O33       1.0  0.82460  0.93770  0.91660  1.0000
  O   O34       1.0  0.17540  0.06230  0.91660  1.0000
  O   O35       1.0  0.17540  0.93770  0.58340  1.0000
  O   O36       1.0  0.82460  0.06230  0.58340  1.0000
  O   O37       1.0  0.32460  0.43770  0.91660  1.0000
  O   O38       1.0  0.67540  0.56230  0.91660  1.0000
  O   O39       1.0  0.67540  0.43770  0.58340  1.0000
  O   O40       1.0  0.32460  0.56230  0.58340  1.0000
  O   O41       1.0  0.04260  0.09680  0.00000  1.0000
  O   O42       1.0  0.95740  0.90320  0.00000  1.0000
  O   O43       1.0  0.95740  0.09680  0.50000  1.0000
  O   O44       1.0  0.04260  0.90320  0.50000  1.0000
  O   O45       1.0  0.54260  0.59680  0.00000  1.0000
  O   O46       1.0  0.45740  0.40320  0.00000  1.0000
  O   O47       1.0  0.45740  0.59680  0.50000  1.0000
  O   O48       1.0  0.54260  0.40320  0.50000  1.0000
  O   O49       1.0  0.00000  0.00000  0.89860  1.0000
  O   O50       1.0  0.00000  0.00000  0.60140  1.0000
  O   O51       1.0  0.50000  0.50000  0.89860  1.0000
  O   O52       1.0  0.50000  0.50000  0.60140  1.0000
  O   O53       1.0  0.00000  0.00000  0.10140  1.0000
  O   O54       1.0  0.00000  0.00000  0.39860  1.0000
  O   O55       1.0  0.50000  0.50000  0.10140  1.0000
  O   O56       1.0  0.50000  0.50000  0.39860  1.0000
  O   O57       1.0  0.89380  0.10200  0.08320  1.0000
  O   O58       1.0  0.10620  0.89800  0.08320  1.0000
  O   O59       1.0  0.10620  0.10200  0.41680  1.0000
  O   O60       1.0  0.89380  0.89800  0.41680  1.0000
  O   O61       1.0  0.39380  0.60200  0.08320  1.0000
  O   O62       1.0  0.60620  0.39800  0.08320  1.0000
  O   O63       1.0  0.60620  0.60200  0.41680  1.0000
  O   O64       1.0  0.39380  0.39800  0.41680  1.0000
  O   O65       1.0  0.10620  0.89800  0.91680  1.0000
  O   O66       1.0  0.89380  0.10200  0.91680  1.0000
  O   O67       1.0  0.89380  0.89800  0.58320  1.0000
  O   O68       1.0  0.10620  0.10200  0.58320  1.0000
  O   O69       1.0  0.60620  0.39800  0.91680  1.0000
  O   O70       1.0  0.39380  0.60200  0.91680  1.0000
  O   O71       1.0  0.39380  0.39800  0.58320  1.0000
  O   O72       1.0  0.60620  0.60200  0.58320  1.0000
  O   O73       1.0  0.28550  0.95970  0.08420  1.0000
  O   O74       1.0  0.71450  0.04030  0.08420  1.0000
  O   O75       1.0  0.71450  0.95970  0.41580  1.0000
  O   O76       1.0  0.28550  0.04030  0.41580  1.0000
  O   O77       1.0  0.78550  0.45970  0.08420  1.0000
  O   O78       1.0  0.21450  0.54030  0.08420  1.0000
  O   O79       1.0  0.21450  0.45970  0.41580  1.0000
  O   O80       1.0  0.78550  0.54030  0.41580  1.0000
  O   O81       1.0  0.71450  0.04030  0.91580  1.0000
  O   O82       1.0  0.28550  0.95970  0.91580  1.0000
  O   O83       1.0  0.28550  0.04030  0.58420  1.0000
  O   O84       1.0  0.71450  0.95970  0.58420  1.0000
  O   O85       1.0  0.21450  0.54030  0.91580  1.0000
  O   O86       1.0  0.78550  0.45970  0.91580  1.0000
  O   O87       1.0  0.78550  0.54030  0.58420  1.0000
  O   O88       1.0  0.21450  0.45970  0.58420  1.0000
  O   O89       1.0  0.15780  0.97660  0.82020  1.0000
  O   O90       1.0  0.84220  0.02340  0.82020  1.0000
  O   O91       1.0  0.84220  0.97660  0.67980  1.0000
  O   O92       1.0  0.15780  0.02340  0.67980  1.0000
  O   O93       1.0  0.65780  0.47660  0.82020  1.0000
  O   O94       1.0  0.34220  0.52340  0.82020  1.0000
  O   O95       1.0  0.34220  0.47660  0.67980  1.0000
  O   O96       1.0  0.65780  0.52340  0.67980  1.0000
  O   O97       1.0  0.84220  0.02340  0.17980  1.0000
  O   O98       1.0  0.15780  0.97660  0.17980  1.0000
  O   O99       1.0  0.15780  0.02340  0.32020  1.0000
  O   O100      1.0  0.84220  0.97660  0.32020  1.0000
  O   O101      1.0  0.34220  0.52340  0.17980  1.0000
  O   O102      1.0  0.65780  0.47660  0.17980  1.0000
  O   O103      1.0  0.65780  0.52340  0.32020  1.0000
  O   O104      1.0  0.34220  0.47660  0.32020  1.0000
  O   O105      1.0  0.75350  0.12390  0.00000  1.0000
  O   O106      1.0  0.24650  0.87610  0.00000  1.0000
  O   O107      1.0  0.24650  0.12390  0.50000  1.0000
  O   O108      1.0  0.75350  0.87610  0.50000  1.0000
  O   O109      1.0  0.25350  0.62390  0.00000  1.0000
  O   O110      1.0  0.74650  0.37610  0.00000  1.0000
  O   O111      1.0  0.74650  0.62390  0.50000  1.0000
  O   O112      1.0  0.25350  0.37610  0.50000  1.0000
  O   O113      1.0  0.92180  0.19940  0.00000  1.0000
  O   O114      1.0  0.07820  0.80060  0.00000  1.0000
  O   O115      1.0  0.07820  0.19940  0.50000  1.0000
  O   O116      1.0  0.92180  0.80060  0.50000  1.0000
  O   O117      1.0  0.42180  0.69940  0.00000  1.0000
  O   O118      1.0  0.57820  0.30060  0.00000  1.0000
  O   O119      1.0  0.57820  0.69940  0.50000  1.0000
  O   O120      1.0  0.42180  0.30060  0.50000  1.0000
  O   O121      1.0  0.44210  0.93220  0.00000  1.0000
  O   O122      1.0  0.55790  0.06780  0.00000  1.0000
  O   O123      1.0  0.55790  0.93220  0.50000  1.0000
  O   O124      1.0  0.44210  0.06780  0.50000  1.0000
  O   O125      1.0  0.94210  0.43220  0.00000  1.0000
  O   O126      1.0  0.05790  0.56780  0.00000  1.0000
  O   O127      1.0  0.05790  0.43220  0.50000  1.0000
  O   O128      1.0  0.94210  0.56780  0.50000  1.0000
  N   N1        1.0  0.13930  0.26060  0.06790  1.0000
  N   N2        1.0  0.86070  0.73940  0.06790  1.0000
  N   N3        1.0  0.86070  0.26060  0.43210  1.0000
  N   N4        1.0  0.13930  0.73940  0.43210  1.0000
  N   N5        1.0  0.63930  0.76060  0.06790  1.0000
  N   N6        1.0  0.36070  0.23940  0.06790  1.0000
  N   N7        1.0  0.36070  0.76060  0.43210  1.0000
  N   N8        1.0  0.63930  0.23940  0.43210  1.0000
  N   N9        1.0  0.86070  0.73940  0.93210  1.0000
  N   N10       1.0  0.13930  0.26060  0.93210  1.0000
  N   N11       1.0  0.13930  0.73940  0.56790  1.0000
  N   N12       1.0  0.86070  0.26060  0.56790  1.0000
  N   N13       1.0  0.36070  0.23940  0.93210  1.0000
  N   N14       1.0  0.63930  0.76060  0.93210  1.0000
  N   N15       1.0  0.63930  0.23940  0.56790  1.0000
  N   N16       1.0  0.36070  0.76060  0.56790  1.0000
  N   N17       1.0  0.05950  0.23850  0.15070  1.0000
  N   N18       1.0  0.94050  0.76150  0.15070  1.0000
  N   N19       1.0  0.94050  0.23850  0.34930  1.0000
  N   N20       1.0  0.05950  0.76150  0.34930  1.0000
  N   N21       1.0  0.55950  0.73850  0.15070  1.0000
  N   N22       1.0  0.44050  0.26150  0.15070  1.0000
  N   N23       1.0  0.44050  0.73850  0.34930  1.0000
  N   N24       1.0  0.55950  0.26150  0.34930  1.0000
  N   N25       1.0  0.94050  0.76150  0.84930  1.0000
  N   N26       1.0  0.05950  0.23850  0.84930  1.0000
  N   N27       1.0  0.05950  0.76150  0.65070  1.0000
  N   N28       1.0  0.94050  0.23850  0.65070  1.0000
  N   N29       1.0  0.44050  0.26150  0.84930  1.0000
  N   N30       1.0  0.55950  0.73850  0.84930  1.0000
  N   N31       1.0  0.55950  0.26150  0.65070  1.0000
  N   N32       1.0  0.44050  0.73850  0.65070  1.0000
  N   N33       1.0  0.02390  0.29430  0.13490  1.0000
  N   N34       1.0  0.97610  0.70570  0.13490  1.0000
  N   N35       1.0  0.97610  0.29430  0.36510  1.0000
  N   N36       1.0  0.02390  0.70570  0.36510  1.0000
  N   N37       1.0  0.52390  0.79430  0.13490  1.0000
  N   N38       1.0  0.47610  0.20570  0.13490  1.0000
  N   N39       1.0  0.47610  0.79430  0.36510  1.0000
  N   N40       1.0  0.52390  0.20570  0.36510  1.0000
  N   N41       1.0  0.97610  0.70570  0.86510  1.0000
  N   N42       1.0  0.02390  0.29430  0.86510  1.0000
  N   N43       1.0  0.02390  0.70570  0.63490  1.0000
  N   N44       1.0  0.97610  0.29430  0.63490  1.0000
  N   N45       1.0  0.47610  0.20570  0.86510  1.0000
  N   N46       1.0  0.52390  0.79430  0.86510  1.0000
  N   N47       1.0  0.52390  0.20570  0.63490  1.0000
  N   N48       1.0  0.47610  0.79430  0.63490  1.0000
  N   N49       1.0  0.00000  0.23800  0.25000  1.0000
  N   N50       1.0  0.00000  0.76200  0.25000  1.0000
  N   N51       1.0  0.50000  0.73800  0.25000  1.0000
  N   N52       1.0  0.50000  0.26200  0.25000  1.0000
  N   N53       1.0  0.00000  0.76200  0.75000  1.0000
  N   N54       1.0  0.00000  0.23800  0.75000  1.0000
  N   N55       1.0  0.50000  0.26200  0.75000  1.0000
  N   N56       1.0  0.50000  0.73800  0.75000  1.0000
  C   C1        1.0  0.12810  0.21970  0.11160  1.0000
  C   C2        1.0  0.87190  0.78030  0.11160  1.0000
  C   C3        1.0  0.87190  0.21970  0.38840  1.0000
  C   C4        1.0  0.12810  0.78030  0.38840  1.0000
  C   C5        1.0  0.62810  0.71970  0.11160  1.0000
  C   C6        1.0  0.37190  0.28030  0.11160  1.0000
  C   C7        1.0  0.37190  0.71970  0.38840  1.0000
  C   C8        1.0  0.62810  0.28030  0.38840  1.0000
  C   C9        1.0  0.87190  0.78030  0.88840  1.0000
  C   C10       1.0  0.12810  0.21970  0.88840  1.0000
  C   C11       1.0  0.12810  0.78030  0.61160  1.0000
  C   C12       1.0  0.87190  0.21970  0.61160  1.0000
  C   C13       1.0  0.37190  0.28030  0.88840  1.0000
  C   C14       1.0  0.62810  0.71970  0.88840  1.0000
  C   C15       1.0  0.62810  0.28030  0.61160  1.0000
  C   C16       1.0  0.37190  0.71970  0.61160  1.0000
  H   H1        1.0  0.16390  0.18310  0.11420  1.0000
  H   H2        1.0  0.83610  0.81690  0.11420  1.0000
  H   H3        1.0  0.83610  0.18310  0.38580  1.0000
  H   H4        1.0  0.16390  0.81690  0.38580  1.0000
  H   H5        1.0  0.66390  0.68310  0.11420  1.0000
  H   H6        1.0  0.33610  0.31690  0.11420  1.0000
  H   H7        1.0  0.33610  0.68310  0.38580  1.0000
  H   H8        1.0  0.66390  0.31690  0.38580  1.0000
  H   H9        1.0  0.83610  0.81690  0.88580  1.0000
  H   H10       1.0  0.16390  0.18310  0.88580  1.0000
  H   H11       1.0  0.16390  0.81690  0.61420  1.0000
  H   H12       1.0  0.83610  0.18310  0.61420  1.0000
  H   H13       1.0  0.33610  0.31690  0.88580  1.0000
  H   H14       1.0  0.66390  0.68310  0.88580  1.0000
  H   H15       1.0  0.66390  0.31690  0.61420  1.0000
  H   H16       1.0  0.33610  0.68310  0.61420  1.0000
  C   C17       1.0  0.07430  0.30480  0.08450  1.0000
  C   C18       1.0  0.92570  0.69520  0.08450  1.0000
  C   C19       1.0  0.92570  0.30480  0.41550  1.0000
  C   C20       1.0  0.07430  0.69520  0.41550  1.0000
  C   C21       1.0  0.57430  0.80480  0.08450  1.0000
  C   C22       1.0  0.42570  0.19520  0.08450  1.0000
  C   C23       1.0  0.42570  0.80480  0.41550  1.0000
  C   C24       1.0  0.57430  0.19520  0.41550  1.0000
  C   C25       1.0  0.92570  0.69520  0.91550  1.0000
  C   C26       1.0  0.07430  0.30480  0.91550  1.0000
  C   C27       1.0  0.07430  0.69520  0.58450  1.0000
  C   C28       1.0  0.92570  0.30480  0.58450  1.0000
  C   C29       1.0  0.42570  0.19520  0.91550  1.0000
  C   C30       1.0  0.57430  0.80480  0.91550  1.0000
  C   C31       1.0  0.57430  0.19520  0.58450  1.0000
  C   C32       1.0  0.42570  0.80480  0.58450  1.0000
  H   H17       1.0  0.06530  0.34020  0.06220  1.0000
  H   H18       1.0  0.93470  0.65980  0.06220  1.0000
  H   H19       1.0  0.93470  0.34020  0.43780  1.0000
  H   H20       1.0  0.06530  0.65980  0.43780  1.0000
  H   H21       1.0  0.56530  0.84020  0.06220  1.0000
  H   H22       1.0  0.43470  0.15980  0.06220  1.0000
  H   H23       1.0  0.43470  0.84020  0.43780  1.0000
  H   H24       1.0  0.56530  0.15980  0.43780  1.0000
  H   H25       1.0  0.93470  0.65980  0.93780  1.0000
  H   H26       1.0  0.06530  0.34020  0.93780  1.0000
  H   H27       1.0  0.06530  0.65980  0.56220  1.0000
  H   H28       1.0  0.93470  0.34020  0.56220  1.0000
  H   H29       1.0  0.43470  0.15980  0.93780  1.0000
  H   H30       1.0  0.56530  0.84020  0.93780  1.0000
  H   H31       1.0  0.56530  0.15980  0.56220  1.0000
  H   H32       1.0  0.43470  0.84020  0.56220  1.0000
  C   C33       1.0  0.02510  0.20480  0.20230  1.0000
  C   C34       1.0  0.97490  0.79520  0.20230  1.0000
  C   C35       1.0  0.97490  0.20480  0.29770  1.0000
  C   C36       1.0  0.02510  0.79520  0.29770  1.0000
  C   C37       1.0  0.52510  0.70480  0.20230  1.0000
  C   C38       1.0  0.47490  0.29520  0.20230  1.0000
  C   C39       1.0  0.47490  0.70480  0.29770  1.0000
  C   C40       1.0  0.52510  0.29520  0.29770  1.0000
  C   C41       1.0  0.97490  0.79520  0.79770  1.0000
  C   C42       1.0  0.02510  0.20480  0.79770  1.0000
  C   C43       1.0  0.02510  0.79520  0.70230  1.0000
  C   C44       1.0  0.97490  0.20480  0.70230  1.0000
  C   C45       1.0  0.47490  0.29520  0.79770  1.0000
  C   C46       1.0  0.52510  0.70480  0.79770  1.0000
  C   C47       1.0  0.52510  0.29520  0.70230  1.0000
  C   C48       1.0  0.47490  0.70480  0.70230  1.0000
  C   C49       1.0  0.02530  0.14260  0.19870  1.0000
  C   C50       1.0  0.97470  0.85740  0.19870  1.0000
  C   C51       1.0  0.97470  0.14260  0.30130  1.0000
  C   C52       1.0  0.02530  0.85740  0.30130  1.0000
  C   C53       1.0  0.52530  0.64260  0.19870  1.0000
  C   C54       1.0  0.47470  0.35740  0.19870  1.0000
  C   C55       1.0  0.47470  0.64260  0.30130  1.0000
  C   C56       1.0  0.52530  0.35740  0.30130  1.0000
  C   C57       1.0  0.97470  0.85740  0.80130  1.0000
  C   C58       1.0  0.02530  0.14260  0.80130  1.0000
  C   C59       1.0  0.02530  0.85740  0.69870  1.0000
  C   C60       1.0  0.97470  0.14260  0.69870  1.0000
  C   C61       1.0  0.47470  0.35740  0.80130  1.0000
  C   C62       1.0  0.52530  0.64260  0.80130  1.0000
  C   C63       1.0  0.52530  0.35740  0.69870  1.0000
  C   C64       1.0  0.47470  0.64260  0.69870  1.0000
  H   H33       1.0  0.04170  0.12250  0.16320  1.0000
  H   H34       1.0  0.95830  0.87750  0.16320  1.0000
  H   H35       1.0  0.95830  0.12250  0.33680  1.0000
  H   H36       1.0  0.04170  0.87750  0.33680  1.0000
  H   H37       1.0  0.54170  0.62250  0.16320  1.0000
  H   H38       1.0  0.45830  0.37750  0.16320  1.0000
  H   H39       1.0  0.45830  0.62250  0.33680  1.0000
  H   H40       1.0  0.54170  0.37750  0.33680  1.0000
  H   H41       1.0  0.95830  0.87750  0.83680  1.0000
  H   H42       1.0  0.04170  0.12250  0.83680  1.0000
  H   H43       1.0  0.04170  0.87750  0.66320  1.0000
  H   H44       1.0  0.95830  0.12250  0.66320  1.0000
  H   H45       1.0  0.45830  0.37750  0.83680  1.0000
  H   H46       1.0  0.54170  0.62250  0.83680  1.0000
  H   H47       1.0  0.54170  0.37750  0.66320  1.0000
  H   H48       1.0  0.45830  0.62250  0.66320  1.0000
  C   C65       1.0  0.00000  0.11110  0.25000  1.0000
  C   C66       1.0  0.00000  0.88890  0.25000  1.0000
  C   C67       1.0  0.50000  0.61110  0.25000  1.0000
  C   C68       1.0  0.50000  0.38890  0.25000  1.0000
  C   C69       1.0  0.00000  0.88890  0.75000  1.0000
  C   C70       1.0  0.00000  0.11110  0.75000  1.0000
  C   C71       1.0  0.50000  0.38890  0.75000  1.0000
  C   C72       1.0  0.50000  0.61110  0.75000  1.0000
  H   H49       1.0  0.00000  0.06870  0.25000  1.0000
  H   H50       1.0  0.00000  0.93130  0.25000  1.0000
  H   H51       1.0  0.50000  0.56870  0.25000  1.0000
  H   H52       1.0  0.50000  0.43130  0.25000  1.0000
  H   H53       1.0  0.00000  0.93130  0.75000  1.0000
  H   H54       1.0  0.00000  0.06870  0.75000  1.0000
  H   H55       1.0  0.50000  0.43130  0.75000  1.0000
  H   H56       1.0  0.50000  0.56870  0.75000  1.0000
  Co  Co1       1.0  0.25000  0.25000  0.00000  1.0000
  Co  Co2       1.0  0.75000  0.75000  0.00000  1.0000
  Co  Co3       1.0  0.75000  0.25000  0.50000  1.0000
  Co  Co4       1.0  0.25000  0.75000  0.50000  1.0000
