data_image0
_chemical_formula_structural       Cu2O16C2H2C2H2C2H2C6H8
_chemical_formula_sum              "Cu2 O16 C12 H14"
_cell_length_a       7.8519
_cell_length_b       10.0583
_cell_length_c       11.5646
_cell_angle_alpha    78.173
_cell_angle_beta     71.787
_cell_angle_gamma    73.741

_space_group_name_H-M_alt    "P 1"
_space_group_IT_number       1

loop_
  _space_group_symop_operation_xyz
  'x, y, z'

loop_
  _atom_site_type_symbol
  _atom_site_label
  _atom_site_symmetry_multiplicity
  _atom_site_fract_x
  _atom_site_fract_y
  _atom_site_fract_z
  _atom_site_occupancy
  Cu  Cu1       1.0  0.20305  0.24463  0.96300  1.0000
  Cu  Cu2       1.0  0.79695  0.75537  0.03700  1.0000
  O   O1        1.0  0.46760  0.17100  0.94270  1.0000
  O   O2        1.0  0.53240  0.82900  0.05730  1.0000
  O   O3        1.0  0.76570  0.14910  0.88880  1.0000
  O   O4        1.0  0.23430  0.85090  0.11120  1.0000
  O   O5        1.0  0.81310  0.18490  0.14570  1.0000
  O   O6        1.0  0.18690  0.81510  0.85430  1.0000
  O   O7        1.0  0.94090  0.33990  0.99960  1.0000
  O   O8        1.0  0.05910  0.66010  0.00040  1.0000
  O   O9        1.0  0.44290  0.51150  0.71050  1.0000
  O   O10       1.0  0.55710  0.48850  0.28950  1.0000
  O   O11       1.0  0.25350  0.37610  0.81540  1.0000
  O   O12       1.0  0.74650  0.62390  0.18460  1.0000
  O   O13       1.0  0.16710  0.12270  0.11970  1.0000
  O   O14       1.0  0.83290  0.87730  0.88030  1.0000
  O   O15       1.0  0.14370  0.10240  0.85920  1.0000
  O   O16       1.0  0.85630  0.89760  0.14080  1.0000
  C   C1        1.0  0.58460  0.37250  0.93810  1.0000
  C   C2        1.0  0.41540  0.62750  0.06190  1.0000
  H   H1        1.0  0.68030  0.40880  0.87220  1.0000
  H   H2        1.0  0.31970  0.59120  0.12780  1.0000
  C   C3        1.0  0.61520  0.38120  0.06140  1.0000
  C   C4        1.0  0.38480  0.61880  0.93860  1.0000
  H   H3        1.0  0.52010  0.34640  0.12900  1.0000
  H   H4        1.0  0.47990  0.65360  0.87100  1.0000
  C   C5        1.0  0.39670  0.46640  0.92810  1.0000
  C   C6        1.0  0.60330  0.53360  0.07190  1.0000
  H   H5        1.0  0.30090  0.43350  0.99640  1.0000
  H   H6        1.0  0.69910  0.56650  0.00360  1.0000
  C   C7        1.0  0.60590  0.22020  0.92270  1.0000
  C   C8        1.0  0.39410  0.77980  0.07730  1.0000
  C   C9        1.0  0.80480  0.29360  0.07020  1.0000
  C   C10       1.0  0.19520  0.70640  0.92980  1.0000
  C   C11       1.0  0.36290  0.45260  0.80770  1.0000
  C   C12       1.0  0.63710  0.54740  0.19230  1.0000
  H   H7        1.0  0.21800  0.03720  0.11400  1.0000
  H   H8        1.0  0.78200  0.96280  0.88600  1.0000
  H   H9        1.0  0.04100  0.12400  0.87200  1.0000
  H   H10       1.0  0.95900  0.87600  0.12800  1.0000
  H   H11       1.0  0.05060  0.13300  0.14200  1.0000
  H   H12       1.0  0.94940  0.86700  0.85800  1.0000
  H   H13       1.0  0.17500  0.00000  0.87300  1.0000
  H   H14       1.0  0.82500  0.00000  0.12700  1.0000
