data_image0
_chemical_formula_structural       V8Cu4F28O8N16C8H8C8H8C8H8C8H8C8H8C8H8C8H8C8H8C8H8C8H8
_chemical_formula_sum              "V8 Cu4 F28 O8 N16 C80 H80"
_cell_length_a       15.291
_cell_length_b       9.806
_cell_length_c       18.028
_cell_angle_alpha    90
_cell_angle_beta     90
_cell_angle_gamma    90

_space_group_name_H-M_alt    "P 1"
_space_group_IT_number       1

loop_
  _space_group_symop_operation_xyz
  'x, y, z'

loop_
  _atom_site_type_symbol
  _atom_site_label
  _atom_site_symmetry_multiplicity
  _atom_site_fract_x
  _atom_site_fract_y
  _atom_site_fract_z
  _atom_site_occupancy
  V   V1        1.0  0.92360  0.17556  0.30081  1.0000
  V   V2        1.0  0.57640  0.32444  0.80081  1.0000
  V   V3        1.0  0.42360  0.32444  0.69919  1.0000
  V   V4        1.0  0.07640  0.17556  0.19919  1.0000
  V   V5        1.0  0.07640  0.82444  0.69919  1.0000
  V   V6        1.0  0.42360  0.67556  0.19919  1.0000
  V   V7        1.0  0.57640  0.67556  0.30081  1.0000
  V   V8        1.0  0.92360  0.82444  0.80081  1.0000
  Cu  Cu1       1.0  0.00000  0.00000  0.50000  1.0000
  Cu  Cu2       1.0  0.50000  0.50000  0.00000  1.0000
  Cu  Cu3       1.0  0.50000  0.50000  0.50000  1.0000
  Cu  Cu4       1.0  0.00000  0.00000  0.00000  1.0000
  F   F1        1.0  0.90030  0.34890  0.34261  1.0000
  F   F2        1.0  0.59970  0.15110  0.84261  1.0000
  F   F3        1.0  0.40030  0.15110  0.65739  1.0000
  F   F4        1.0  0.09970  0.34890  0.15739  1.0000
  F   F5        1.0  0.09970  0.65110  0.65739  1.0000
  F   F6        1.0  0.40030  0.84890  0.15739  1.0000
  F   F7        1.0  0.59970  0.84890  0.34261  1.0000
  F   F8        1.0  0.90030  0.65110  0.84261  1.0000
  F   F9        1.0  0.96070  0.10910  0.39495  1.0000
  F   F10       1.0  0.53930  0.39090  0.89495  1.0000
  F   F11       1.0  0.46070  0.39090  0.60505  1.0000
  F   F12       1.0  0.03930  0.10910  0.10505  1.0000
  F   F13       1.0  0.03930  0.89090  0.60505  1.0000
  F   F14       1.0  0.46070  0.60910  0.10505  1.0000
  F   F15       1.0  0.53930  0.60910  0.39495  1.0000
  F   F16       1.0  0.96070  0.89090  0.89495  1.0000
  F   F17       1.0  0.00000  0.03940  0.25000  1.0000
  F   F18       1.0  0.50000  0.46060  0.75000  1.0000
  F   F19       1.0  0.00000  0.96060  0.75000  1.0000
  F   F20       1.0  0.50000  0.53940  0.25000  1.0000
  F   F21       1.0  0.93770  0.25980  0.20389  1.0000
  F   F22       1.0  0.56230  0.24020  0.70389  1.0000
  F   F23       1.0  0.43770  0.24020  0.79611  1.0000
  F   F24       1.0  0.06230  0.25980  0.29611  1.0000
  F   F25       1.0  0.06230  0.74020  0.79611  1.0000
  F   F26       1.0  0.43770  0.75980  0.29611  1.0000
  F   F27       1.0  0.56230  0.75980  0.20389  1.0000
  F   F28       1.0  0.93770  0.74020  0.70389  1.0000
  O   O1        1.0  0.82910  0.10640  0.29320  1.0000
  O   O2        1.0  0.67090  0.39360  0.79320  1.0000
  O   O3        1.0  0.32910  0.39360  0.70680  1.0000
  O   O4        1.0  0.17090  0.10640  0.20680  1.0000
  O   O5        1.0  0.17090  0.89360  0.70680  1.0000
  O   O6        1.0  0.32910  0.60640  0.20680  1.0000
  O   O7        1.0  0.67090  0.60640  0.29320  1.0000
  O   O8        1.0  0.82910  0.89360  0.79320  1.0000
  N   N1        1.0  0.89410  0.08950  0.55150  1.0000
  N   N2        1.0  0.60590  0.41050  0.05150  1.0000
  N   N3        1.0  0.39410  0.41050  0.44850  1.0000
  N   N4        1.0  0.10590  0.08950  0.94850  1.0000
  N   N5        1.0  0.10590  0.91050  0.44850  1.0000
  N   N6        1.0  0.39410  0.58950  0.94850  1.0000
  N   N7        1.0  0.60590  0.58950  0.55150  1.0000
  N   N8        1.0  0.89410  0.91050  0.05150  1.0000
  N   N9        1.0  0.07440  0.16540  0.52820  1.0000
  N   N10       1.0  0.42560  0.33460  0.02820  1.0000
  N   N11       1.0  0.57440  0.33460  0.47180  1.0000
  N   N12       1.0  0.92560  0.16540  0.97180  1.0000
  N   N13       1.0  0.92560  0.83460  0.47180  1.0000
  N   N14       1.0  0.57440  0.66540  0.97180  1.0000
  N   N15       1.0  0.42560  0.66540  0.52820  1.0000
  N   N16       1.0  0.07440  0.83460  0.02820  1.0000
  C   C1        1.0  0.85330  0.20010  0.52380  1.0000
  C   C2        1.0  0.64670  0.29990  0.02380  1.0000
  C   C3        1.0  0.35330  0.29990  0.47620  1.0000
  C   C4        1.0  0.14670  0.20010  0.97620  1.0000
  C   C5        1.0  0.14670  0.79990  0.47620  1.0000
  C   C6        1.0  0.35330  0.70010  0.97620  1.0000
  C   C7        1.0  0.64670  0.70010  0.52380  1.0000
  C   C8        1.0  0.85330  0.79990  0.02380  1.0000
  H   H1        1.0  0.87140  0.23450  0.47820  1.0000
  H   H2        1.0  0.62860  0.26550  0.97820  1.0000
  H   H3        1.0  0.37140  0.26550  0.52180  1.0000
  H   H4        1.0  0.12860  0.23450  0.02180  1.0000
  H   H5        1.0  0.12860  0.76550  0.52180  1.0000
  H   H6        1.0  0.37140  0.73450  0.02180  1.0000
  H   H7        1.0  0.62860  0.73450  0.47820  1.0000
  H   H8        1.0  0.87140  0.76550  0.97820  1.0000
  C   C9        1.0  0.78620  0.26390  0.56030  1.0000
  C   C10       1.0  0.71380  0.23610  0.06030  1.0000
  C   C11       1.0  0.28620  0.23610  0.43970  1.0000
  C   C12       1.0  0.21380  0.26390  0.93970  1.0000
  C   C13       1.0  0.21380  0.73610  0.43970  1.0000
  C   C14       1.0  0.28620  0.76390  0.93970  1.0000
  C   C15       1.0  0.71380  0.76390  0.56030  1.0000
  C   C16       1.0  0.78620  0.73610  0.06030  1.0000
  H   H9        1.0  0.76000  0.34080  0.53990  1.0000
  H   H10       1.0  0.74000  0.15920  0.03990  1.0000
  H   H11       1.0  0.26000  0.15920  0.46010  1.0000
  H   H12       1.0  0.24000  0.34080  0.96010  1.0000
  H   H13       1.0  0.24000  0.65920  0.46010  1.0000
  H   H14       1.0  0.26000  0.84080  0.96010  1.0000
  H   H15       1.0  0.74000  0.84080  0.53990  1.0000
  H   H16       1.0  0.76000  0.65920  0.03990  1.0000
  C   C17       1.0  0.75750  0.21330  0.62790  1.0000
  C   C18       1.0  0.74250  0.28670  0.12790  1.0000
  C   C19       1.0  0.25750  0.28670  0.37210  1.0000
  C   C20       1.0  0.24250  0.21330  0.87210  1.0000
  C   C21       1.0  0.24250  0.78670  0.37210  1.0000
  C   C22       1.0  0.25750  0.71330  0.87210  1.0000
  C   C23       1.0  0.74250  0.71330  0.62790  1.0000
  C   C24       1.0  0.75750  0.78670  0.12790  1.0000
  H   H17       1.0  0.71210  0.25510  0.65360  1.0000
  H   H18       1.0  0.78790  0.24490  0.15360  1.0000
  H   H19       1.0  0.21210  0.24490  0.34640  1.0000
  H   H20       1.0  0.28790  0.25510  0.84640  1.0000
  H   H21       1.0  0.28790  0.74490  0.34640  1.0000
  H   H22       1.0  0.21210  0.75510  0.84640  1.0000
  H   H23       1.0  0.78790  0.75510  0.65360  1.0000
  H   H24       1.0  0.71210  0.74490  0.15360  1.0000
  C   C25       1.0  0.79850  0.09870  0.65570  1.0000
  C   C26       1.0  0.70150  0.40130  0.15570  1.0000
  C   C27       1.0  0.29850  0.40130  0.34430  1.0000
  C   C28       1.0  0.20150  0.09870  0.84430  1.0000
  C   C29       1.0  0.20150  0.90130  0.34430  1.0000
  C   C30       1.0  0.29850  0.59870  0.84430  1.0000
  C   C31       1.0  0.70150  0.59870  0.65570  1.0000
  C   C32       1.0  0.79850  0.90130  0.15570  1.0000
  H   H25       1.0  0.78040  0.06150  0.70060  1.0000
  H   H26       1.0  0.71960  0.43850  0.20060  1.0000
  H   H27       1.0  0.28040  0.43850  0.29940  1.0000
  H   H28       1.0  0.21960  0.06150  0.79940  1.0000
  H   H29       1.0  0.21960  0.93850  0.29940  1.0000
  H   H30       1.0  0.28040  0.56150  0.79940  1.0000
  H   H31       1.0  0.71960  0.56150  0.70060  1.0000
  H   H32       1.0  0.78040  0.93850  0.20060  1.0000
  C   C33       1.0  0.86660  0.03920  0.61670  1.0000
  C   C34       1.0  0.63340  0.46080  0.11670  1.0000
  C   C35       1.0  0.36660  0.46080  0.38330  1.0000
  C   C36       1.0  0.13340  0.03920  0.88330  1.0000
  C   C37       1.0  0.13340  0.96080  0.38330  1.0000
  C   C38       1.0  0.36660  0.53920  0.88330  1.0000
  C   C39       1.0  0.63340  0.53920  0.61670  1.0000
  C   C40       1.0  0.86660  0.96080  0.11670  1.0000
  H   H33       1.0  0.89400  0.96250  0.63620  1.0000
  H   H34       1.0  0.60600  0.53750  0.13620  1.0000
  H   H35       1.0  0.39400  0.53750  0.36380  1.0000
  H   H36       1.0  0.10600  0.96250  0.86380  1.0000
  H   H37       1.0  0.10600  0.03750  0.36380  1.0000
  H   H38       1.0  0.39400  0.46250  0.86380  1.0000
  H   H39       1.0  0.60600  0.46250  0.63620  1.0000
  H   H40       1.0  0.89400  0.03750  0.13620  1.0000
  C   C41       1.0  0.06400  0.28950  0.49650  1.0000
  C   C42       1.0  0.43600  0.21050  0.99650  1.0000
  C   C43       1.0  0.56400  0.21050  0.50350  1.0000
  C   C44       1.0  0.93600  0.28950  0.00350  1.0000
  C   C45       1.0  0.93600  0.71050  0.50350  1.0000
  C   C46       1.0  0.56400  0.78950  0.00350  1.0000
  C   C47       1.0  0.43600  0.78950  0.49650  1.0000
  C   C48       1.0  0.06400  0.71050  0.99650  1.0000
  H   H41       1.0  0.02740  0.29840  0.45560  1.0000
  H   H42       1.0  0.47260  0.20160  0.95560  1.0000
  H   H43       1.0  0.52740  0.20160  0.54440  1.0000
  H   H44       1.0  0.97260  0.29840  0.04440  1.0000
  H   H45       1.0  0.97260  0.70160  0.54440  1.0000
  H   H46       1.0  0.52740  0.79840  0.04440  1.0000
  H   H47       1.0  0.47260  0.79840  0.45560  1.0000
  H   H48       1.0  0.02740  0.70160  0.95560  1.0000
  C   C49       1.0  0.10630  0.40260  0.52350  1.0000
  C   C50       1.0  0.39370  0.09740  0.02350  1.0000
  C   C51       1.0  0.60630  0.09740  0.47650  1.0000
  C   C52       1.0  0.89370  0.40260  0.97650  1.0000
  C   C53       1.0  0.89370  0.59740  0.47650  1.0000
  C   C54       1.0  0.60630  0.90260  0.97650  1.0000
  C   C55       1.0  0.39370  0.90260  0.52350  1.0000
  C   C56       1.0  0.10630  0.59740  0.02350  1.0000
  H   H49       1.0  0.09650  0.48720  0.50180  1.0000
  H   H50       1.0  0.40350  0.01280  0.00180  1.0000
  H   H51       1.0  0.59650  0.01280  0.49820  1.0000
  H   H52       1.0  0.90350  0.48720  0.99820  1.0000
  H   H53       1.0  0.90350  0.51280  0.49820  1.0000
  H   H54       1.0  0.59650  0.98720  0.99820  1.0000
  H   H55       1.0  0.40350  0.98720  0.50180  1.0000
  H   H56       1.0  0.09650  0.51280  0.00180  1.0000
  C   C57       1.0  0.16360  0.39180  0.58290  1.0000
  C   C58       1.0  0.33640  0.10820  0.08290  1.0000
  C   C59       1.0  0.66360  0.10820  0.41710  1.0000
  C   C60       1.0  0.83640  0.39180  0.91710  1.0000
  C   C61       1.0  0.83640  0.60820  0.41710  1.0000
  C   C62       1.0  0.66360  0.89180  0.91710  1.0000
  C   C63       1.0  0.33640  0.89180  0.58290  1.0000
  C   C64       1.0  0.16360  0.60820  0.08290  1.0000
  H   H57       1.0  0.19280  0.46760  0.60160  1.0000
  H   H58       1.0  0.30720  0.03240  0.10160  1.0000
  H   H59       1.0  0.69280  0.03240  0.39840  1.0000
  H   H60       1.0  0.80720  0.46760  0.89840  1.0000
  H   H61       1.0  0.80720  0.53240  0.39840  1.0000
  H   H62       1.0  0.69280  0.96760  0.89840  1.0000
  H   H63       1.0  0.30720  0.96760  0.60160  1.0000
  H   H64       1.0  0.19280  0.53240  0.10160  1.0000
  C   C65       1.0  0.17560  0.26320  0.61330  1.0000
  C   C66       1.0  0.32440  0.23680  0.11330  1.0000
  C   C67       1.0  0.67560  0.23680  0.38670  1.0000
  C   C68       1.0  0.82440  0.26320  0.88670  1.0000
  C   C69       1.0  0.82440  0.73680  0.38670  1.0000
  C   C70       1.0  0.67560  0.76320  0.88670  1.0000
  C   C71       1.0  0.32440  0.76320  0.61330  1.0000
  C   C72       1.0  0.17560  0.73680  0.11330  1.0000
  H   H65       1.0  0.21420  0.25110  0.65270  1.0000
  H   H66       1.0  0.28580  0.24890  0.15270  1.0000
  H   H67       1.0  0.71420  0.24890  0.34730  1.0000
  H   H68       1.0  0.78580  0.25110  0.84730  1.0000
  H   H69       1.0  0.78580  0.74890  0.34730  1.0000
  H   H70       1.0  0.71420  0.75110  0.84730  1.0000
  H   H71       1.0  0.28580  0.75110  0.65270  1.0000
  H   H72       1.0  0.21420  0.74890  0.15270  1.0000
  C   C73       1.0  0.13050  0.15400  0.58530  1.0000
  C   C74       1.0  0.36950  0.34600  0.08530  1.0000
  C   C75       1.0  0.63050  0.34600  0.41470  1.0000
  C   C76       1.0  0.86950  0.15400  0.91470  1.0000
  C   C77       1.0  0.86950  0.84600  0.41470  1.0000
  C   C78       1.0  0.63050  0.65400  0.91470  1.0000
  C   C79       1.0  0.36950  0.65400  0.58530  1.0000
  C   C80       1.0  0.13050  0.84600  0.08530  1.0000
  H   H73       1.0  0.13890  0.06870  0.60660  1.0000
  H   H74       1.0  0.36110  0.43130  0.10660  1.0000
  H   H75       1.0  0.63890  0.43130  0.39340  1.0000
  H   H76       1.0  0.86110  0.06870  0.89340  1.0000
  H   H77       1.0  0.86110  0.93130  0.39340  1.0000
  H   H78       1.0  0.63890  0.56870  0.89340  1.0000
  H   H79       1.0  0.36110  0.56870  0.60660  1.0000
  H   H80       1.0  0.13890  0.93130  0.10660  1.0000
