data_image0
_chemical_formula_structural       Cd8O48C24H8C24H8C24H8C16H8C8
_chemical_formula_sum              "Cd8 O48 C96 H32"
_cell_length_a       12.8345
_cell_length_b       15.0989
_cell_length_c       18.261
_cell_angle_alpha    90
_cell_angle_beta     121.521
_cell_angle_gamma    90

_space_group_name_H-M_alt    "P 1"
_space_group_IT_number       1

loop_
  _space_group_symop_operation_xyz
  'x, y, z'

loop_
  _atom_site_type_symbol
  _atom_site_label
  _atom_site_symmetry_multiplicity
  _atom_site_fract_x
  _atom_site_fract_y
  _atom_site_fract_z
  _atom_site_occupancy
  Cd  Cd1       1.0  0.66703  0.45565  0.09027  1.0000
  Cd  Cd2       1.0  0.33297  0.45565  0.40973  1.0000
  Cd  Cd3       1.0  0.16703  0.95565  0.09027  1.0000
  Cd  Cd4       1.0  0.83297  0.95565  0.40973  1.0000
  Cd  Cd5       1.0  0.33297  0.54435  0.90973  1.0000
  Cd  Cd6       1.0  0.66703  0.54435  0.59027  1.0000
  Cd  Cd7       1.0  0.83297  0.04435  0.90973  1.0000
  Cd  Cd8       1.0  0.16703  0.04435  0.59027  1.0000
  O   O1        1.0  0.55930  0.33470  0.08537  1.0000
  O   O2        1.0  0.44070  0.33470  0.41463  1.0000
  O   O3        1.0  0.05930  0.83470  0.08537  1.0000
  O   O4        1.0  0.94070  0.83470  0.41463  1.0000
  O   O5        1.0  0.44070  0.66530  0.91463  1.0000
  O   O6        1.0  0.55930  0.66530  0.58537  1.0000
  O   O7        1.0  0.94070  0.16530  0.91463  1.0000
  O   O8        1.0  0.05930  0.16530  0.58537  1.0000
  O   O9        1.0  0.43860  0.41340  0.97230  1.0000
  O   O10       1.0  0.56140  0.41340  0.52770  1.0000
  O   O11       1.0  0.93860  0.91340  0.97230  1.0000
  O   O12       1.0  0.06140  0.91340  0.52770  1.0000
  O   O13       1.0  0.56140  0.58660  0.02770  1.0000
  O   O14       1.0  0.43860  0.58660  0.47230  1.0000
  O   O15       1.0  0.06140  0.08660  0.02770  1.0000
  O   O16       1.0  0.93860  0.08660  0.47230  1.0000
  O   O17       1.0  0.64630  0.13120  0.91139  1.0000
  O   O18       1.0  0.35370  0.13120  0.58861  1.0000
  O   O19       1.0  0.14630  0.63120  0.91139  1.0000
  O   O20       1.0  0.85370  0.63120  0.58861  1.0000
  O   O21       1.0  0.35370  0.86880  0.08861  1.0000
  O   O22       1.0  0.64630  0.86880  0.41139  1.0000
  O   O23       1.0  0.85370  0.36880  0.08861  1.0000
  O   O24       1.0  0.14630  0.36880  0.41139  1.0000
  O   O25       1.0  0.79280  0.05279  0.01357  1.0000
  O   O26       1.0  0.20720  0.05279  0.48643  1.0000
  O   O27       1.0  0.29280  0.55279  0.01357  1.0000
  O   O28       1.0  0.70720  0.55279  0.48643  1.0000
  O   O29       1.0  0.20720  0.94721  0.98643  1.0000
  O   O30       1.0  0.79280  0.94721  0.51357  1.0000
  O   O31       1.0  0.70720  0.44721  0.98643  1.0000
  O   O32       1.0  0.29280  0.44721  0.51357  1.0000
  O   O33       1.0  0.77910  0.96220  0.26860  1.0000
  O   O34       1.0  0.22090  0.96220  0.23140  1.0000
  O   O35       1.0  0.27910  0.46220  0.26860  1.0000
  O   O36       1.0  0.72090  0.46220  0.23140  1.0000
  O   O37       1.0  0.22090  0.03780  0.73140  1.0000
  O   O38       1.0  0.77910  0.03780  0.76860  1.0000
  O   O39       1.0  0.72090  0.53780  0.73140  1.0000
  O   O40       1.0  0.27910  0.53780  0.76860  1.0000
  O   O41       1.0  0.66630  0.03100  0.29850  1.0000
  O   O42       1.0  0.33370  0.03100  0.20150  1.0000
  O   O43       1.0  0.16630  0.53100  0.29850  1.0000
  O   O44       1.0  0.83370  0.53100  0.20150  1.0000
  O   O45       1.0  0.33370  0.96900  0.70150  1.0000
  O   O46       1.0  0.66630  0.96900  0.79850  1.0000
  O   O47       1.0  0.83370  0.46900  0.70150  1.0000
  O   O48       1.0  0.16630  0.46900  0.79850  1.0000
  C   C1        1.0  0.45600  0.35070  0.02110  1.0000
  C   C2        1.0  0.54400  0.35070  0.47890  1.0000
  C   C3        1.0  0.95600  0.85070  0.02110  1.0000
  C   C4        1.0  0.04400  0.85070  0.47890  1.0000
  C   C5        1.0  0.54400  0.64930  0.97890  1.0000
  C   C6        1.0  0.45600  0.64930  0.52110  1.0000
  C   C7        1.0  0.04400  0.14930  0.97890  1.0000
  C   C8        1.0  0.95600  0.14930  0.52110  1.0000
  C   C9        1.0  0.35030  0.29490  0.00660  1.0000
  C   C10       1.0  0.64970  0.29490  0.49340  1.0000
  C   C11       1.0  0.85030  0.79490  0.00660  1.0000
  C   C12       1.0  0.14970  0.79490  0.49340  1.0000
  C   C13       1.0  0.64970  0.70510  0.99340  1.0000
  C   C14       1.0  0.35030  0.70510  0.50660  1.0000
  C   C15       1.0  0.14970  0.20510  0.99340  1.0000
  C   C16       1.0  0.85030  0.20510  0.50660  1.0000
  C   C17       1.0  0.23990  0.33840  0.98010  1.0000
  C   C18       1.0  0.76010  0.33840  0.51990  1.0000
  C   C19       1.0  0.73990  0.83840  0.98010  1.0000
  C   C20       1.0  0.26010  0.83840  0.51990  1.0000
  C   C21       1.0  0.76010  0.66160  0.01990  1.0000
  C   C22       1.0  0.23990  0.66160  0.48010  1.0000
  C   C23       1.0  0.26010  0.16160  0.01990  1.0000
  C   C24       1.0  0.73990  0.16160  0.48010  1.0000
  H   H1        1.0  0.23360  0.39960  0.96630  1.0000
  H   H2        1.0  0.76640  0.39960  0.53370  1.0000
  H   H3        1.0  0.73360  0.89960  0.96630  1.0000
  H   H4        1.0  0.26640  0.89960  0.53370  1.0000
  H   H5        1.0  0.76640  0.60040  0.03370  1.0000
  H   H6        1.0  0.23360  0.60040  0.46630  1.0000
  H   H7        1.0  0.26640  0.10040  0.03370  1.0000
  H   H8        1.0  0.73360  0.10040  0.46630  1.0000
  C   C25       1.0  0.36100  0.20430  0.02673  1.0000
  C   C26       1.0  0.63900  0.20430  0.47327  1.0000
  C   C27       1.0  0.86100  0.70430  0.02673  1.0000
  C   C28       1.0  0.13900  0.70430  0.47327  1.0000
  C   C29       1.0  0.63900  0.79570  0.97327  1.0000
  C   C30       1.0  0.36100  0.79570  0.52673  1.0000
  C   C31       1.0  0.13900  0.29570  0.97327  1.0000
  C   C32       1.0  0.86100  0.29570  0.52673  1.0000
  C   C33       1.0  0.47400  0.15190  0.05520  1.0000
  C   C34       1.0  0.52600  0.15190  0.44480  1.0000
  C   C35       1.0  0.97400  0.65190  0.05520  1.0000
  C   C36       1.0  0.02600  0.65190  0.44480  1.0000
  C   C37       1.0  0.52600  0.84810  0.94480  1.0000
  C   C38       1.0  0.47400  0.84810  0.55520  1.0000
  C   C39       1.0  0.02600  0.34810  0.94480  1.0000
  C   C40       1.0  0.97400  0.34810  0.55520  1.0000
  C   C41       1.0  0.52980  0.14920  0.00740  1.0000
  C   C42       1.0  0.47020  0.14920  0.49260  1.0000
  C   C43       1.0  0.02980  0.64920  0.00740  1.0000
  C   C44       1.0  0.97020  0.64920  0.49260  1.0000
  C   C45       1.0  0.47020  0.85080  0.99260  1.0000
  C   C46       1.0  0.52980  0.85080  0.50740  1.0000
  C   C47       1.0  0.97020  0.35080  0.99260  1.0000
  C   C48       1.0  0.02980  0.35080  0.50740  1.0000
  H   H9        1.0  0.49620  0.18240  0.95570  1.0000
  H   H10       1.0  0.50380  0.18240  0.54430  1.0000
  H   H11       1.0  0.99620  0.68240  0.95570  1.0000
  H   H12       1.0  0.00380  0.68240  0.54430  1.0000
  H   H13       1.0  0.50380  0.81760  0.04430  1.0000
  H   H14       1.0  0.49620  0.81760  0.45570  1.0000
  H   H15       1.0  0.00380  0.31760  0.04430  1.0000
  H   H16       1.0  0.99620  0.31760  0.45570  1.0000
  C   C49       1.0  0.63420  0.09870  0.03440  1.0000
  C   C50       1.0  0.36580  0.09870  0.46560  1.0000
  C   C51       1.0  0.13420  0.59870  0.03440  1.0000
  C   C52       1.0  0.86580  0.59870  0.46560  1.0000
  C   C53       1.0  0.36580  0.90130  0.96560  1.0000
  C   C54       1.0  0.63420  0.90130  0.53440  1.0000
  C   C55       1.0  0.86580  0.40130  0.96560  1.0000
  C   C56       1.0  0.13420  0.40130  0.53440  1.0000
  C   C57       1.0  0.69310  0.09510  0.98160  1.0000
  C   C58       1.0  0.30690  0.09510  0.51840  1.0000
  C   C59       1.0  0.19310  0.59510  0.98160  1.0000
  C   C60       1.0  0.80690  0.59510  0.51840  1.0000
  C   C61       1.0  0.30690  0.90490  0.01840  1.0000
  C   C62       1.0  0.69310  0.90490  0.48160  1.0000
  C   C63       1.0  0.80690  0.40490  0.01840  1.0000
  C   C64       1.0  0.19310  0.40490  0.48160  1.0000
  C   C65       1.0  0.68370  0.05160  0.11090  1.0000
  C   C66       1.0  0.31630  0.05160  0.38910  1.0000
  C   C67       1.0  0.18370  0.55160  0.11090  1.0000
  C   C68       1.0  0.81630  0.55160  0.38910  1.0000
  C   C69       1.0  0.31630  0.94840  0.88910  1.0000
  C   C70       1.0  0.68370  0.94840  0.61090  1.0000
  C   C71       1.0  0.81630  0.44840  0.88910  1.0000
  C   C72       1.0  0.18370  0.44840  0.61090  1.0000
  H   H17       1.0  0.75530  0.01710  0.13000  1.0000
  H   H18       1.0  0.24470  0.01710  0.37000  1.0000
  H   H19       1.0  0.25530  0.51710  0.13000  1.0000
  H   H20       1.0  0.74470  0.51710  0.37000  1.0000
  H   H21       1.0  0.24470  0.98290  0.87000  1.0000
  H   H22       1.0  0.75530  0.98290  0.63000  1.0000
  H   H23       1.0  0.74470  0.48290  0.87000  1.0000
  H   H24       1.0  0.25530  0.48290  0.63000  1.0000
  C   C73       1.0  0.63010  0.05440  0.15950  1.0000
  C   C74       1.0  0.36990  0.05440  0.34050  1.0000
  C   C75       1.0  0.13010  0.55440  0.15950  1.0000
  C   C76       1.0  0.86990  0.55440  0.34050  1.0000
  C   C77       1.0  0.36990  0.94560  0.84050  1.0000
  C   C78       1.0  0.63010  0.94560  0.65950  1.0000
  C   C79       1.0  0.86990  0.44560  0.84050  1.0000
  C   C80       1.0  0.13010  0.44560  0.65950  1.0000
  C   C81       1.0  0.52350  0.10340  0.13050  1.0000
  C   C82       1.0  0.47650  0.10340  0.36950  1.0000
  C   C83       1.0  0.02350  0.60340  0.13050  1.0000
  C   C84       1.0  0.97650  0.60340  0.36950  1.0000
  C   C85       1.0  0.47650  0.89660  0.86950  1.0000
  C   C86       1.0  0.52350  0.89660  0.63050  1.0000
  C   C87       1.0  0.97650  0.39660  0.86950  1.0000
  C   C88       1.0  0.02350  0.39660  0.63050  1.0000
  H   H25       1.0  0.48450  0.10350  0.16270  1.0000
  H   H26       1.0  0.51550  0.10350  0.33730  1.0000
  H   H27       1.0  0.98450  0.60350  0.16270  1.0000
  H   H28       1.0  0.01550  0.60350  0.33730  1.0000
  H   H29       1.0  0.51550  0.89650  0.83730  1.0000
  H   H30       1.0  0.48450  0.89650  0.66270  1.0000
  H   H31       1.0  0.01550  0.39650  0.83730  1.0000
  H   H32       1.0  0.98450  0.39650  0.66270  1.0000
  C   C89       1.0  0.69160  0.01180  0.24640  1.0000
  C   C90       1.0  0.30840  0.01180  0.25360  1.0000
  C   C91       1.0  0.19160  0.51180  0.24640  1.0000
  C   C92       1.0  0.80840  0.51180  0.25360  1.0000
  C   C93       1.0  0.30840  0.98820  0.75360  1.0000
  C   C94       1.0  0.69160  0.98820  0.74640  1.0000
  C   C95       1.0  0.80840  0.48820  0.75360  1.0000
  C   C96       1.0  0.19160  0.48820  0.74640  1.0000
