data_image0
_chemical_formula_structural       Cu4O24C4H4C4H4C4H4
_chemical_formula_sum              "Cu4 O24 C12 H12"
_cell_length_a       7.0946
_cell_length_b       13.1481
_cell_length_c       8.1225
_cell_angle_alpha    90
_cell_angle_beta     90
_cell_angle_gamma    90

_space_group_name_H-M_alt    "P 1"
_space_group_IT_number       1

loop_
  _space_group_symop_operation_xyz
  'x, y, z'

loop_
  _atom_site_type_symbol
  _atom_site_label
  _atom_site_symmetry_multiplicity
  _atom_site_fract_x
  _atom_site_fract_y
  _atom_site_fract_z
  _atom_site_occupancy
  Cu  Cu1       1.0  0.24524  0.16459  0.76273  1.0000
  Cu  Cu2       1.0  0.25476  0.83541  0.26273  1.0000
  Cu  Cu3       1.0  0.75476  0.66459  0.73727  1.0000
  Cu  Cu4       1.0  0.74524  0.33541  0.23727  1.0000
  O   O1        1.0  0.36500  0.30083  0.59942  1.0000
  O   O2        1.0  0.13500  0.69917  0.09942  1.0000
  O   O3        1.0  0.63500  0.80083  0.90058  1.0000
  O   O4        1.0  0.86500  0.19917  0.40058  1.0000
  O   O5        1.0  0.52322  0.35156  0.37886  1.0000
  O   O6        1.0  0.97678  0.64844  0.87886  1.0000
  O   O7        1.0  0.47678  0.85156  0.12114  1.0000
  O   O8        1.0  0.02322  0.14844  0.62114  1.0000
  O   O9        1.0  0.13931  0.28170  0.88574  1.0000
  O   O10       1.0  0.36069  0.71830  0.38574  1.0000
  O   O11       1.0  0.86069  0.78170  0.61426  1.0000
  O   O12       1.0  0.63931  0.21830  0.11426  1.0000
  O   O13       1.0  0.95958  0.34551  0.08144  1.0000
  O   O14       1.0  0.54042  0.65449  0.58144  1.0000
  O   O15       1.0  0.04042  0.84551  0.41856  1.0000
  O   O16       1.0  0.45958  0.15449  0.91856  1.0000
  O   O17       1.0  0.39149  0.06442  0.63567  1.0000
  O   O18       1.0  0.10851  0.93558  0.13567  1.0000
  O   O19       1.0  0.60851  0.56442  0.86433  1.0000
  O   O20       1.0  0.89149  0.43558  0.36433  1.0000
  O   O21       1.0  0.42640  0.95493  0.43025  1.0000
  O   O22       1.0  0.07360  0.04507  0.93025  1.0000
  O   O23       1.0  0.57360  0.45493  0.06975  1.0000
  O   O24       1.0  0.92640  0.54507  0.56975  1.0000
  C   C1        1.0  0.47240  0.28591  0.48220  1.0000
  C   C2        1.0  0.02760  0.71409  0.98220  1.0000
  C   C3        1.0  0.52760  0.78591  0.01780  1.0000
  C   C4        1.0  0.97240  0.21409  0.51780  1.0000
  H   H1        1.0  0.52040  0.21970  0.46930  1.0000
  H   H2        1.0  0.97960  0.78030  0.96930  1.0000
  H   H3        1.0  0.47960  0.71970  0.03070  1.0000
  H   H4        1.0  0.02040  0.28030  0.53070  1.0000
  C   C5        1.0  0.01690  0.27360  0.99530  1.0000
  C   C6        1.0  0.48310  0.72640  0.49530  1.0000
  C   C7        1.0  0.98310  0.77360  0.50470  1.0000
  C   C8        1.0  0.51690  0.22640  0.00470  1.0000
  H   H5        1.0  0.96470  0.20890  0.01410  1.0000
  H   H6        1.0  0.53530  0.79110  0.51410  1.0000
  H   H7        1.0  0.03530  0.70890  0.48590  1.0000
  H   H8        1.0  0.46470  0.29110  0.98590  1.0000
  C   C9        1.0  0.33000  0.00997  0.52030  1.0000
  C   C10       1.0  0.17000  0.99003  0.02030  1.0000
  C   C11       1.0  0.67000  0.50997  0.97970  1.0000
  C   C12       1.0  0.83000  0.49003  0.47970  1.0000
  H   H9        1.0  0.19940  0.01130  0.50080  1.0000
  H   H10       1.0  0.30060  0.98870  0.00080  1.0000
  H   H11       1.0  0.80060  0.51130  0.99920  1.0000
  H   H12       1.0  0.69940  0.48870  0.49920  1.0000
