data_image0
_chemical_formula_structural       Cu4O24C4H4C4H4C4H4
_chemical_formula_sum              "Cu4 O24 C12 H12"
_cell_length_a       7.2033
_cell_length_b       12.9259
_cell_length_c       8.1354
_cell_angle_alpha    90
_cell_angle_beta     90
_cell_angle_gamma    90

_space_group_name_H-M_alt    "P 1"
_space_group_IT_number       1

loop_
  _space_group_symop_operation_xyz
  'x, y, z'

loop_
  _atom_site_type_symbol
  _atom_site_label
  _atom_site_symmetry_multiplicity
  _atom_site_fract_x
  _atom_site_fract_y
  _atom_site_fract_z
  _atom_site_occupancy
  Cu  Cu1       1.0  0.24448  0.16800  0.76196  1.0000
  Cu  Cu2       1.0  0.25552  0.83200  0.26196  1.0000
  Cu  Cu3       1.0  0.75552  0.66800  0.73804  1.0000
  Cu  Cu4       1.0  0.74448  0.33200  0.23804  1.0000
  O   O1        1.0  0.36160  0.30831  0.59750  1.0000
  O   O2        1.0  0.13840  0.69169  0.09750  1.0000
  O   O3        1.0  0.63840  0.80831  0.90250  1.0000
  O   O4        1.0  0.86160  0.19169  0.40250  1.0000
  O   O5        1.0  0.52100  0.34753  0.37450  1.0000
  O   O6        1.0  0.97900  0.65247  0.87450  1.0000
  O   O7        1.0  0.47900  0.84753  0.12550  1.0000
  O   O8        1.0  0.02100  0.15247  0.62550  1.0000
  O   O9        1.0  0.14230  0.28528  0.89020  1.0000
  O   O10       1.0  0.35770  0.71472  0.39020  1.0000
  O   O11       1.0  0.85770  0.78528  0.60980  1.0000
  O   O12       1.0  0.64230  0.21472  0.10980  1.0000
  O   O13       1.0  0.96100  0.34393  0.08640  1.0000
  O   O14       1.0  0.53900  0.65607  0.58640  1.0000
  O   O15       1.0  0.03900  0.84393  0.41360  1.0000
  O   O16       1.0  0.46100  0.15607  0.91360  1.0000
  O   O17       1.0  0.38510  0.06719  0.63240  1.0000
  O   O18       1.0  0.11490  0.93281  0.13240  1.0000
  O   O19       1.0  0.61490  0.56719  0.86760  1.0000
  O   O20       1.0  0.88510  0.43281  0.36760  1.0000
  O   O21       1.0  0.42380  0.95508  0.43070  1.0000
  O   O22       1.0  0.07620  0.04492  0.93070  1.0000
  O   O23       1.0  0.57620  0.45508  0.06930  1.0000
  O   O24       1.0  0.92380  0.54492  0.56930  1.0000
  C   C1        1.0  0.47910  0.29100  0.49270  1.0000
  C   C2        1.0  0.02090  0.70900  0.99270  1.0000
  C   C3        1.0  0.52090  0.79100  0.00730  1.0000
  C   C4        1.0  0.97910  0.20900  0.50730  1.0000
  H   H1        1.0  0.54400  0.22910  0.50220  1.0000
  H   H2        1.0  0.95600  0.77090  0.00220  1.0000
  H   H3        1.0  0.45600  0.72910  0.99780  1.0000
  H   H4        1.0  0.04400  0.27090  0.49780  1.0000
  C   C5        1.0  0.01340  0.27578  0.99110  1.0000
  C   C6        1.0  0.48660  0.72422  0.49110  1.0000
  C   C7        1.0  0.98660  0.77578  0.50890  1.0000
  C   C8        1.0  0.51340  0.22422  0.00890  1.0000
  H   H5        1.0  0.95210  0.21250  0.99480  1.0000
  H   H6        1.0  0.54790  0.78750  0.49480  1.0000
  H   H7        1.0  0.04790  0.71250  0.50520  1.0000
  H   H8        1.0  0.45210  0.28750  0.00520  1.0000
  C   C9        1.0  0.32980  0.01172  0.51830  1.0000
  C   C10       1.0  0.17020  0.98828  0.01830  1.0000
  C   C11       1.0  0.67020  0.51172  0.98170  1.0000
  C   C12       1.0  0.82980  0.48828  0.48170  1.0000
  H   H9        1.0  0.20310  0.01320  0.49680  1.0000
  H   H10       1.0  0.29690  0.98680  0.99680  1.0000
  H   H11       1.0  0.79690  0.51320  0.00320  1.0000
  H   H12       1.0  0.70310  0.48680  0.50320  1.0000
