data_image0
_chemical_formula_structural       Cu4O24C4H4C4H4C4H4
_chemical_formula_sum              "Cu4 O24 C12 H12"
_cell_length_a       7.1805
_cell_length_b       12.9483
_cell_length_c       8.1402
_cell_angle_alpha    90
_cell_angle_beta     90
_cell_angle_gamma    90

_space_group_name_H-M_alt    "P 1"
_space_group_IT_number       1

loop_
  _space_group_symop_operation_xyz
  'x, y, z'

loop_
  _atom_site_type_symbol
  _atom_site_label
  _atom_site_symmetry_multiplicity
  _atom_site_fract_x
  _atom_site_fract_y
  _atom_site_fract_z
  _atom_site_occupancy
  Cu  Cu1       1.0  0.24444  0.16747  0.76217  1.0000
  Cu  Cu2       1.0  0.25556  0.83254  0.26217  1.0000
  Cu  Cu3       1.0  0.75556  0.66746  0.73783  1.0000
  Cu  Cu4       1.0  0.74444  0.33253  0.23783  1.0000
  O   O1        1.0  0.36210  0.30691  0.59850  1.0000
  O   O2        1.0  0.13790  0.69309  0.09850  1.0000
  O   O3        1.0  0.63790  0.80691  0.90150  1.0000
  O   O4        1.0  0.86210  0.19309  0.40150  1.0000
  O   O5        1.0  0.52110  0.34805  0.37500  1.0000
  O   O6        1.0  0.97890  0.65195  0.87500  1.0000
  O   O7        1.0  0.47890  0.84805  0.12500  1.0000
  O   O8        1.0  0.02110  0.15195  0.62500  1.0000
  O   O9        1.0  0.14150  0.28467  0.88925  1.0000
  O   O10       1.0  0.35850  0.71533  0.38925  1.0000
  O   O11       1.0  0.85850  0.78467  0.61075  1.0000
  O   O12       1.0  0.64150  0.21533  0.11075  1.0000
  O   O13       1.0  0.96050  0.34416  0.08580  1.0000
  O   O14       1.0  0.53950  0.65584  0.58580  1.0000
  O   O15       1.0  0.03950  0.84416  0.41420  1.0000
  O   O16       1.0  0.46050  0.15584  0.91420  1.0000
  O   O17       1.0  0.38610  0.06664  0.63340  1.0000
  O   O18       1.0  0.11390  0.93336  0.13340  1.0000
  O   O19       1.0  0.61390  0.56664  0.86660  1.0000
  O   O20       1.0  0.88610  0.43336  0.36660  1.0000
  O   O21       1.0  0.42420  0.95506  0.43040  1.0000
  O   O22       1.0  0.07580  0.04494  0.93040  1.0000
  O   O23       1.0  0.57580  0.45506  0.06960  1.0000
  O   O24       1.0  0.92420  0.54494  0.56960  1.0000
  C   C1        1.0  0.47710  0.28980  0.49040  1.0000
  C   C2        1.0  0.02290  0.71020  0.99040  1.0000
  C   C3        1.0  0.52290  0.78980  0.00960  1.0000
  C   C4        1.0  0.97710  0.21020  0.50960  1.0000
  H   H1        1.0  0.53800  0.22650  0.49520  1.0000
  H   H2        1.0  0.96200  0.77350  0.99520  1.0000
  H   H3        1.0  0.46200  0.72650  0.00480  1.0000
  H   H4        1.0  0.03800  0.27350  0.50480  1.0000
  C   C5        1.0  0.01380  0.27528  0.99190  1.0000
  C   C6        1.0  0.48620  0.72472  0.49190  1.0000
  C   C7        1.0  0.98620  0.77528  0.50810  1.0000
  C   C8        1.0  0.51380  0.22472  0.00810  1.0000
  H   H5        1.0  0.95410  0.21160  0.99820  1.0000
  H   H6        1.0  0.54590  0.78840  0.49820  1.0000
  H   H7        1.0  0.04590  0.71160  0.50180  1.0000
  H   H8        1.0  0.45410  0.28840  0.00180  1.0000
  C   C9        1.0  0.33030  0.01165  0.51860  1.0000
  C   C10       1.0  0.16970  0.98835  0.01860  1.0000
  C   C11       1.0  0.66970  0.51165  0.98140  1.0000
  C   C12       1.0  0.83030  0.48835  0.48140  1.0000
  H   H9        1.0  0.20310  0.01350  0.49700  1.0000
  H   H10       1.0  0.29690  0.98650  0.99700  1.0000
  H   H11       1.0  0.79690  0.51350  0.00300  1.0000
  H   H12       1.0  0.70310  0.48650  0.50300  1.0000
