data_image0
_chemical_formula_structural       Cu4O24C4H4C4H4C4H4
_chemical_formula_sum              "Cu4 O24 C12 H12"
_cell_length_a       7.0647
_cell_length_b       13.2472
_cell_length_c       8.1032
_cell_angle_alpha    90
_cell_angle_beta     90
_cell_angle_gamma    90

_space_group_name_H-M_alt    "P 1"
_space_group_IT_number       1

loop_
  _space_group_symop_operation_xyz
  'x, y, z'

loop_
  _atom_site_type_symbol
  _atom_site_label
  _atom_site_symmetry_multiplicity
  _atom_site_fract_x
  _atom_site_fract_y
  _atom_site_fract_z
  _atom_site_occupancy
  Cu  Cu1       1.0  0.24604  0.16348  0.76297  1.0000
  Cu  Cu2       1.0  0.25396  0.83652  0.26297  1.0000
  Cu  Cu3       1.0  0.75396  0.66348  0.73703  1.0000
  Cu  Cu4       1.0  0.74604  0.33653  0.23703  1.0000
  O   O1        1.0  0.36730  0.29904  0.60040  1.0000
  O   O2        1.0  0.13270  0.70096  0.10040  1.0000
  O   O3        1.0  0.63270  0.79904  0.89960  1.0000
  O   O4        1.0  0.86730  0.20096  0.39960  1.0000
  O   O5        1.0  0.52484  0.35278  0.38112  1.0000
  O   O6        1.0  0.97516  0.64722  0.88112  1.0000
  O   O7        1.0  0.47516  0.85278  0.11888  1.0000
  O   O8        1.0  0.02484  0.14722  0.61888  1.0000
  O   O9        1.0  0.13840  0.28038  0.88462  1.0000
  O   O10       1.0  0.36160  0.71962  0.38462  1.0000
  O   O11       1.0  0.86160  0.78038  0.61538  1.0000
  O   O12       1.0  0.63840  0.21962  0.11538  1.0000
  O   O13       1.0  0.96010  0.34624  0.07960  1.0000
  O   O14       1.0  0.53990  0.65376  0.57960  1.0000
  O   O15       1.0  0.03990  0.84624  0.42040  1.0000
  O   O16       1.0  0.46010  0.15376  0.92040  1.0000
  O   O17       1.0  0.39450  0.06431  0.63535  1.0000
  O   O18       1.0  0.10550  0.93569  0.13535  1.0000
  O   O19       1.0  0.60550  0.56431  0.86465  1.0000
  O   O20       1.0  0.89450  0.43569  0.36465  1.0000
  O   O21       1.0  0.42680  0.95424  0.43049  1.0000
  O   O22       1.0  0.07320  0.04576  0.93049  1.0000
  O   O23       1.0  0.57320  0.45424  0.06951  1.0000
  O   O24       1.0  0.92680  0.54576  0.56951  1.0000
  C   C1        1.0  0.47160  0.28534  0.47980  1.0000
  C   C2        1.0  0.02840  0.71466  0.97980  1.0000
  C   C3        1.0  0.52840  0.78534  0.02020  1.0000
  C   C4        1.0  0.97160  0.21466  0.52020  1.0000
  H   H1        1.0  0.51490  0.21850  0.46030  1.0000
  H   H2        1.0  0.98510  0.78150  0.96030  1.0000
  H   H3        1.0  0.48510  0.71850  0.03970  1.0000
  H   H4        1.0  0.01490  0.28150  0.53970  1.0000
  C   C5        1.0  0.01840  0.27331  0.99700  1.0000
  C   C6        1.0  0.48160  0.72669  0.49700  1.0000
  C   C7        1.0  0.98160  0.77331  0.50300  1.0000
  C   C8        1.0  0.51840  0.22669  0.00300  1.0000
  H   H5        1.0  0.96860  0.20840  0.02100  1.0000
  H   H6        1.0  0.53140  0.79160  0.52100  1.0000
  H   H7        1.0  0.03140  0.70840  0.47900  1.0000
  H   H8        1.0  0.46860  0.29160  0.97900  1.0000
  C   C9        1.0  0.32980  0.00902  0.52140  1.0000
  C   C10       1.0  0.17020  0.99098  0.02140  1.0000
  C   C11       1.0  0.67020  0.50902  0.97860  1.0000
  C   C12       1.0  0.82980  0.49098  0.47860  1.0000
  H   H9        1.0  0.19680  0.00950  0.50410  1.0000
  H   H10       1.0  0.30320  0.99050  0.00410  1.0000
  H   H11       1.0  0.80320  0.50950  0.99590  1.0000
  H   H12       1.0  0.69680  0.49050  0.49590  1.0000
