data_image0
_chemical_formula_structural       Cu4O24C4H4C4H4C4H4
_chemical_formula_sum              "Cu4 O24 C12 H12"
_cell_length_a       7.1958
_cell_length_b       12.9227
_cell_length_c       8.1376
_cell_angle_alpha    90
_cell_angle_beta     90
_cell_angle_gamma    90

_space_group_name_H-M_alt    "P 1"
_space_group_IT_number       1

loop_
  _space_group_symop_operation_xyz
  'x, y, z'

loop_
  _atom_site_type_symbol
  _atom_site_label
  _atom_site_symmetry_multiplicity
  _atom_site_fract_x
  _atom_site_fract_y
  _atom_site_fract_z
  _atom_site_occupancy
  Cu  Cu1       1.0  0.24445  0.16776  0.76208  1.0000
  Cu  Cu2       1.0  0.25555  0.83224  0.26208  1.0000
  Cu  Cu3       1.0  0.75555  0.66776  0.73792  1.0000
  Cu  Cu4       1.0  0.74445  0.33224  0.23792  1.0000
  O   O1        1.0  0.36130  0.30786  0.59800  1.0000
  O   O2        1.0  0.13870  0.69214  0.09800  1.0000
  O   O3        1.0  0.63870  0.80786  0.90200  1.0000
  O   O4        1.0  0.86130  0.19214  0.40200  1.0000
  O   O5        1.0  0.52110  0.34783  0.37460  1.0000
  O   O6        1.0  0.97890  0.65217  0.87460  1.0000
  O   O7        1.0  0.47890  0.84783  0.12540  1.0000
  O   O8        1.0  0.02110  0.15217  0.62540  1.0000
  O   O9        1.0  0.14200  0.28500  0.88997  1.0000
  O   O10       1.0  0.35800  0.71500  0.38997  1.0000
  O   O11       1.0  0.85800  0.78500  0.61003  1.0000
  O   O12       1.0  0.64200  0.21500  0.11003  1.0000
  O   O13       1.0  0.96040  0.34393  0.08673  1.0000
  O   O14       1.0  0.53960  0.65607  0.58673  1.0000
  O   O15       1.0  0.03960  0.84393  0.41327  1.0000
  O   O16       1.0  0.46040  0.15607  0.91327  1.0000
  O   O17       1.0  0.38580  0.06687  0.63270  1.0000
  O   O18       1.0  0.11420  0.93313  0.13270  1.0000
  O   O19       1.0  0.61420  0.56687  0.86730  1.0000
  O   O20       1.0  0.88580  0.43313  0.36730  1.0000
  O   O21       1.0  0.42420  0.95527  0.43070  1.0000
  O   O22       1.0  0.07580  0.04473  0.93070  1.0000
  O   O23       1.0  0.57580  0.45527  0.06930  1.0000
  O   O24       1.0  0.92420  0.54473  0.56930  1.0000
  C   C1        1.0  0.47790  0.29030  0.49110  1.0000
  C   C2        1.0  0.02210  0.70970  0.99110  1.0000
  C   C3        1.0  0.52210  0.79030  0.00890  1.0000
  C   C4        1.0  0.97790  0.20970  0.50890  1.0000
  H   H1        1.0  0.54020  0.22740  0.49800  1.0000
  H   H2        1.0  0.95980  0.77260  0.99800  1.0000
  H   H3        1.0  0.45980  0.72740  0.00200  1.0000
  H   H4        1.0  0.04020  0.27260  0.50200  1.0000
  C   C5        1.0  0.01340  0.27533  0.99160  1.0000
  C   C6        1.0  0.48660  0.72467  0.49160  1.0000
  C   C7        1.0  0.98660  0.77533  0.50840  1.0000
  C   C8        1.0  0.51340  0.22467  0.00840  1.0000
  H   H5        1.0  0.95290  0.21180  0.99620  1.0000
  H   H6        1.0  0.54710  0.78820  0.49620  1.0000
  H   H7        1.0  0.04710  0.71180  0.50380  1.0000
  H   H8        1.0  0.45290  0.28820  0.00380  1.0000
  C   C9        1.0  0.32990  0.01159  0.51820  1.0000
  C   C10       1.0  0.17010  0.98841  0.01820  1.0000
  C   C11       1.0  0.67010  0.51159  0.98180  1.0000
  C   C12       1.0  0.82990  0.48841  0.48180  1.0000
  H   H9        1.0  0.20300  0.01310  0.49660  1.0000
  H   H10       1.0  0.29700  0.98690  0.99660  1.0000
  H   H11       1.0  0.79700  0.51310  0.00340  1.0000
  H   H12       1.0  0.70300  0.48690  0.50340  1.0000
