data_image0
_chemical_formula_structural       Cu4O24C4H4C4H4C4H4
_chemical_formula_sum              "Cu4 O24 C12 H12"
_cell_length_a       7.1506
_cell_length_b       12.9995
_cell_length_c       8.1452
_cell_angle_alpha    90
_cell_angle_beta     90
_cell_angle_gamma    90

_space_group_name_H-M_alt    "P 1"
_space_group_IT_number       1

loop_
  _space_group_symop_operation_xyz
  'x, y, z'

loop_
  _atom_site_type_symbol
  _atom_site_label
  _atom_site_symmetry_multiplicity
  _atom_site_fract_x
  _atom_site_fract_y
  _atom_site_fract_z
  _atom_site_occupancy
  Cu  Cu1       1.0  0.24457  0.16645  0.76241  1.0000
  Cu  Cu2       1.0  0.25543  0.83355  0.26241  1.0000
  Cu  Cu3       1.0  0.75543  0.66645  0.73759  1.0000
  Cu  Cu4       1.0  0.74457  0.33355  0.23759  1.0000
  O   O1        1.0  0.36250  0.30469  0.59870  1.0000
  O   O2        1.0  0.13750  0.69531  0.09870  1.0000
  O   O3        1.0  0.63750  0.80469  0.90130  1.0000
  O   O4        1.0  0.86250  0.19531  0.40130  1.0000
  O   O5        1.0  0.52187  0.34918  0.37594  1.0000
  O   O6        1.0  0.97813  0.65082  0.87594  1.0000
  O   O7        1.0  0.47813  0.84918  0.12406  1.0000
  O   O8        1.0  0.02187  0.15082  0.62406  1.0000
  O   O9        1.0  0.14086  0.28368  0.88826  1.0000
  O   O10       1.0  0.35914  0.71632  0.38826  1.0000
  O   O11       1.0  0.85914  0.78368  0.61174  1.0000
  O   O12       1.0  0.64086  0.21632  0.11174  1.0000
  O   O13       1.0  0.95994  0.34492  0.08484  1.0000
  O   O14       1.0  0.54006  0.65508  0.58484  1.0000
  O   O15       1.0  0.04006  0.84492  0.41516  1.0000
  O   O16       1.0  0.45994  0.15508  0.91516  1.0000
  O   O17       1.0  0.38803  0.06555  0.63432  1.0000
  O   O18       1.0  0.11197  0.93445  0.13432  1.0000
  O   O19       1.0  0.61197  0.56555  0.86568  1.0000
  O   O20       1.0  0.88803  0.43445  0.36568  1.0000
  O   O21       1.0  0.42540  0.95542  0.42965  1.0000
  O   O22       1.0  0.07460  0.04458  0.92965  1.0000
  O   O23       1.0  0.57460  0.45542  0.07035  1.0000
  O   O24       1.0  0.92540  0.54458  0.57035  1.0000
  C   C1        1.0  0.47560  0.28809  0.48810  1.0000
  C   C2        1.0  0.02440  0.71191  0.98810  1.0000
  C   C3        1.0  0.52440  0.78809  0.01190  1.0000
  C   C4        1.0  0.97560  0.21191  0.51190  1.0000
  H   H1        1.0  0.53260  0.22380  0.48740  1.0000
  H   H2        1.0  0.96740  0.77620  0.98740  1.0000
  H   H3        1.0  0.46740  0.72380  0.01260  1.0000
  H   H4        1.0  0.03260  0.27620  0.51260  1.0000
  C   C5        1.0  0.01480  0.27482  0.99330  1.0000
  C   C6        1.0  0.48520  0.72518  0.49330  1.0000
  C   C7        1.0  0.98520  0.77482  0.50670  1.0000
  C   C8        1.0  0.51480  0.22518  0.00670  1.0000
  H   H5        1.0  0.95770  0.21090  0.00370  1.0000
  H   H6        1.0  0.54230  0.78910  0.50370  1.0000
  H   H7        1.0  0.04230  0.71090  0.49630  1.0000
  H   H8        1.0  0.45770  0.28910  0.99630  1.0000
  C   C9        1.0  0.32970  0.01115  0.51830  1.0000
  C   C10       1.0  0.17030  0.98885  0.01830  1.0000
  C   C11       1.0  0.67030  0.51115  0.98170  1.0000
  C   C12       1.0  0.82970  0.48885  0.48170  1.0000
  H   H9        1.0  0.20190  0.01310  0.49700  1.0000
  H   H10       1.0  0.29810  0.98690  0.99700  1.0000
  H   H11       1.0  0.79810  0.51310  0.00300  1.0000
  H   H12       1.0  0.70190  0.48690  0.50300  1.0000
