data_image0
_chemical_formula_structural       Cu4O24C4H4C4H4C4H4
_chemical_formula_sum              "Cu4 O24 C12 H12"
_cell_length_a       7.046
_cell_length_b       13.3011
_cell_length_c       8.0848
_cell_angle_alpha    90
_cell_angle_beta     90
_cell_angle_gamma    90

_space_group_name_H-M_alt    "P 1"
_space_group_IT_number       1

loop_
  _space_group_symop_operation_xyz
  'x, y, z'

loop_
  _atom_site_type_symbol
  _atom_site_label
  _atom_site_symmetry_multiplicity
  _atom_site_fract_x
  _atom_site_fract_y
  _atom_site_fract_z
  _atom_site_occupancy
  Cu  Cu1       1.0  0.24677  0.16286  0.76296  1.0000
  Cu  Cu2       1.0  0.25323  0.83714  0.26296  1.0000
  Cu  Cu3       1.0  0.75323  0.66286  0.73704  1.0000
  Cu  Cu4       1.0  0.74677  0.33714  0.23704  1.0000
  O   O1        1.0  0.36890  0.29775  0.60137  1.0000
  O   O2        1.0  0.13110  0.70225  0.10137  1.0000
  O   O3        1.0  0.63110  0.79775  0.89863  1.0000
  O   O4        1.0  0.86890  0.20225  0.39863  1.0000
  O   O5        1.0  0.52618  0.35312  0.38243  1.0000
  O   O6        1.0  0.97382  0.64688  0.88243  1.0000
  O   O7        1.0  0.47382  0.85312  0.11757  1.0000
  O   O8        1.0  0.02618  0.14688  0.61757  1.0000
  O   O9        1.0  0.13810  0.27942  0.88374  1.0000
  O   O10       1.0  0.36190  0.72058  0.38374  1.0000
  O   O11       1.0  0.86190  0.77942  0.61626  1.0000
  O   O12       1.0  0.63810  0.22058  0.11626  1.0000
  O   O13       1.0  0.96010  0.34644  0.07859  1.0000
  O   O14       1.0  0.53990  0.65356  0.57859  1.0000
  O   O15       1.0  0.03990  0.84644  0.42141  1.0000
  O   O16       1.0  0.46010  0.15356  0.92141  1.0000
  O   O17       1.0  0.39600  0.06422  0.63467  1.0000
  O   O18       1.0  0.10400  0.93578  0.13467  1.0000
  O   O19       1.0  0.60400  0.56422  0.86533  1.0000
  O   O20       1.0  0.89600  0.43578  0.36533  1.0000
  O   O21       1.0  0.42660  0.95422  0.43032  1.0000
  O   O22       1.0  0.07340  0.04578  0.93032  1.0000
  O   O23       1.0  0.57340  0.45422  0.06968  1.0000
  O   O24       1.0  0.92660  0.54578  0.56968  1.0000
  C   C1        1.0  0.47190  0.28462  0.47920  1.0000
  C   C2        1.0  0.02810  0.71538  0.97920  1.0000
  C   C3        1.0  0.52810  0.78462  0.02080  1.0000
  C   C4        1.0  0.97190  0.21538  0.52080  1.0000
  H   H1        1.0  0.51320  0.21800  0.45680  1.0000
  H   H2        1.0  0.98680  0.78200  0.95680  1.0000
  H   H3        1.0  0.48680  0.71800  0.04320  1.0000
  H   H4        1.0  0.01320  0.28200  0.54320  1.0000
  C   C5        1.0  0.01940  0.27295  0.99790  1.0000
  C   C6        1.0  0.48060  0.72705  0.49790  1.0000
  C   C7        1.0  0.98060  0.77295  0.50210  1.0000
  C   C8        1.0  0.51940  0.22705  0.00210  1.0000
  H   H5        1.0  0.97150  0.20820  0.02490  1.0000
  H   H6        1.0  0.52850  0.79180  0.52490  1.0000
  H   H7        1.0  0.02850  0.70820  0.47510  1.0000
  H   H8        1.0  0.47150  0.29180  0.97510  1.0000
  C   C9        1.0  0.33120  0.00853  0.52230  1.0000
  C   C10       1.0  0.16880  0.99147  0.02230  1.0000
  C   C11       1.0  0.66880  0.50853  0.97770  1.0000
  C   C12       1.0  0.83120  0.49147  0.47770  1.0000
  H   H9        1.0  0.19750  0.00820  0.50690  1.0000
  H   H10       1.0  0.30250  0.99180  0.00690  1.0000
  H   H11       1.0  0.80250  0.50820  0.99310  1.0000
  H   H12       1.0  0.69750  0.49180  0.49310  1.0000
