data_image0
_chemical_formula_structural       Cu4O24C4H4C4H4C4H4
_chemical_formula_sum              "Cu4 O24 C12 H12"
_cell_length_a       7.0201
_cell_length_b       13.3688
_cell_length_c       8.0677
_cell_angle_alpha    90
_cell_angle_beta     90
_cell_angle_gamma    90

_space_group_name_H-M_alt    "P 1"
_space_group_IT_number       1

loop_
  _space_group_symop_operation_xyz
  'x, y, z'

loop_
  _atom_site_type_symbol
  _atom_site_label
  _atom_site_symmetry_multiplicity
  _atom_site_fract_x
  _atom_site_fract_y
  _atom_site_fract_z
  _atom_site_occupancy
  Cu  Cu1       1.0  0.24800  0.16205  0.76283  1.0000
  Cu  Cu2       1.0  0.25200  0.83795  0.26283  1.0000
  Cu  Cu3       1.0  0.75200  0.66205  0.73717  1.0000
  Cu  Cu4       1.0  0.74800  0.33795  0.23717  1.0000
  O   O1        1.0  0.37103  0.29633  0.60346  1.0000
  O   O2        1.0  0.12897  0.70367  0.10346  1.0000
  O   O3        1.0  0.62897  0.79633  0.89654  1.0000
  O   O4        1.0  0.87103  0.20367  0.39654  1.0000
  O   O5        1.0  0.52841  0.35349  0.38422  1.0000
  O   O6        1.0  0.97159  0.64651  0.88422  1.0000
  O   O7        1.0  0.47159  0.85349  0.11578  1.0000
  O   O8        1.0  0.02841  0.14651  0.61578  1.0000
  O   O9        1.0  0.13784  0.27841  0.88293  1.0000
  O   O10       1.0  0.36216  0.72159  0.38293  1.0000
  O   O11       1.0  0.86216  0.77841  0.61707  1.0000
  O   O12       1.0  0.63784  0.22159  0.11707  1.0000
  O   O13       1.0  0.96058  0.34700  0.07745  1.0000
  O   O14       1.0  0.53942  0.65300  0.57745  1.0000
  O   O15       1.0  0.03942  0.84700  0.42255  1.0000
  O   O16       1.0  0.46058  0.15300  0.92255  1.0000
  O   O17       1.0  0.39953  0.06425  0.63334  1.0000
  O   O18       1.0  0.10047  0.93575  0.13334  1.0000
  O   O19       1.0  0.60047  0.56425  0.86666  1.0000
  O   O20       1.0  0.89953  0.43575  0.36666  1.0000
  O   O21       1.0  0.42668  0.95351  0.42920  1.0000
  O   O22       1.0  0.07332  0.04649  0.92920  1.0000
  O   O23       1.0  0.57332  0.45351  0.07080  1.0000
  O   O24       1.0  0.92668  0.54649  0.57080  1.0000
  C   C1        1.0  0.47350  0.28401  0.47870  1.0000
  C   C2        1.0  0.02650  0.71599  0.97870  1.0000
  C   C3        1.0  0.52650  0.78401  0.02130  1.0000
  C   C4        1.0  0.97350  0.21599  0.52130  1.0000
  H   H1        1.0  0.51300  0.21780  0.45320  1.0000
  H   H2        1.0  0.98700  0.78220  0.95320  1.0000
  H   H3        1.0  0.48700  0.71780  0.04680  1.0000
  H   H4        1.0  0.01300  0.28220  0.54680  1.0000
  C   C5        1.0  0.02110  0.27238  0.99960  1.0000
  C   C6        1.0  0.47890  0.72762  0.49960  1.0000
  C   C7        1.0  0.97890  0.77238  0.50040  1.0000
  C   C8        1.0  0.52110  0.22762  0.00040  1.0000
  H   H5        1.0  0.97600  0.20810  0.03070  1.0000
  H   H6        1.0  0.52400  0.79190  0.53070  1.0000
  H   H7        1.0  0.02400  0.70810  0.46930  1.0000
  H   H8        1.0  0.47600  0.29190  0.96930  1.0000
  C   C9        1.0  0.33030  0.00752  0.52280  1.0000
  C   C10       1.0  0.16970  0.99248  0.02280  1.0000
  C   C11       1.0  0.66970  0.50752  0.97720  1.0000
  C   C12       1.0  0.83030  0.49248  0.47720  1.0000
  H   H9        1.0  0.19570  0.00610  0.51050  1.0000
  H   H10       1.0  0.30430  0.99390  0.01050  1.0000
  H   H11       1.0  0.80430  0.50610  0.98950  1.0000
  H   H12       1.0  0.69570  0.49390  0.48950  1.0000
