data_image0
_chemical_formula_structural       Cu4O24C4H4C4H4C4H4
_chemical_formula_sum              "Cu4 O24 C12 H12"
_cell_length_a       7.1963
_cell_length_b       12.9303
_cell_length_c       8.1364
_cell_angle_alpha    90
_cell_angle_beta     90
_cell_angle_gamma    90

_space_group_name_H-M_alt    "P 1"
_space_group_IT_number       1

loop_
  _space_group_symop_operation_xyz
  'x, y, z'

loop_
  _atom_site_type_symbol
  _atom_site_label
  _atom_site_symmetry_multiplicity
  _atom_site_fract_x
  _atom_site_fract_y
  _atom_site_fract_z
  _atom_site_occupancy
  Cu  Cu1       1.0  0.24447  0.16789  0.76199  1.0000
  Cu  Cu2       1.0  0.25553  0.83211  0.26199  1.0000
  Cu  Cu3       1.0  0.75553  0.66789  0.73801  1.0000
  Cu  Cu4       1.0  0.74447  0.33211  0.23801  1.0000
  O   O1        1.0  0.36180  0.30800  0.59760  1.0000
  O   O2        1.0  0.13820  0.69200  0.09760  1.0000
  O   O3        1.0  0.63820  0.80800  0.90240  1.0000
  O   O4        1.0  0.86180  0.19200  0.40240  1.0000
  O   O5        1.0  0.52130  0.34762  0.37460  1.0000
  O   O6        1.0  0.97870  0.65238  0.87460  1.0000
  O   O7        1.0  0.47870  0.84762  0.12540  1.0000
  O   O8        1.0  0.02130  0.15238  0.62540  1.0000
  O   O9        1.0  0.14210  0.28503  0.89040  1.0000
  O   O10       1.0  0.35790  0.71497  0.39040  1.0000
  O   O11       1.0  0.85790  0.78503  0.60960  1.0000
  O   O12       1.0  0.64210  0.21497  0.10960  1.0000
  O   O13       1.0  0.96110  0.34414  0.08710  1.0000
  O   O14       1.0  0.53890  0.65586  0.58710  1.0000
  O   O15       1.0  0.03890  0.84414  0.41290  1.0000
  O   O16       1.0  0.46110  0.15586  0.91290  1.0000
  O   O17       1.0  0.38510  0.06713  0.63220  1.0000
  O   O18       1.0  0.11490  0.93287  0.13220  1.0000
  O   O19       1.0  0.61490  0.56713  0.86780  1.0000
  O   O20       1.0  0.88510  0.43287  0.36780  1.0000
  O   O21       1.0  0.42350  0.95537  0.43030  1.0000
  O   O22       1.0  0.07650  0.04463  0.93030  1.0000
  O   O23       1.0  0.57650  0.45537  0.06970  1.0000
  O   O24       1.0  0.92350  0.54463  0.56970  1.0000
  C   C1        1.0  0.47820  0.29070  0.49120  1.0000
  C   C2        1.0  0.02180  0.70930  0.99120  1.0000
  C   C3        1.0  0.52180  0.79070  0.00880  1.0000
  C   C4        1.0  0.97820  0.20930  0.50880  1.0000
  H   H1        1.0  0.54120  0.22810  0.49870  1.0000
  H   H2        1.0  0.95880  0.77190  0.99870  1.0000
  H   H3        1.0  0.45880  0.72810  0.00130  1.0000
  H   H4        1.0  0.04120  0.27190  0.50130  1.0000
  C   C5        1.0  0.01410  0.27565  0.99050  1.0000
  C   C6        1.0  0.48590  0.72435  0.49050  1.0000
  C   C7        1.0  0.98590  0.77565  0.50950  1.0000
  C   C8        1.0  0.51410  0.22435  0.00950  1.0000
  H   H5        1.0  0.95260  0.21240  0.99390  1.0000
  H   H6        1.0  0.54740  0.78760  0.49390  1.0000
  H   H7        1.0  0.04740  0.71240  0.50610  1.0000
  H   H8        1.0  0.45260  0.28760  0.00610  1.0000
  C   C9        1.0  0.32880  0.01126  0.51780  1.0000
  C   C10       1.0  0.17120  0.98874  0.01780  1.0000
  C   C11       1.0  0.67120  0.51126  0.98220  1.0000
  C   C12       1.0  0.82880  0.48874  0.48220  1.0000
  H   H9        1.0  0.20170  0.01220  0.49690  1.0000
  H   H10       1.0  0.29830  0.98780  0.99690  1.0000
  H   H11       1.0  0.79830  0.51220  0.00310  1.0000
  H   H12       1.0  0.70170  0.48780  0.50310  1.0000
