data_image0
_chemical_formula_structural       In8O48C24O8C36H8C8H8O8C20H8C8H8C24H8C8H8C16H8C8H8C8H8C8H8C24H8C8H8C8H8C8H8C8H8
_chemical_formula_sum              "In8 O64 C224 H120"
_cell_length_a       17.5673
_cell_length_b       25.7031
_cell_length_c       24.4991
_cell_angle_alpha    90
_cell_angle_beta     91.155
_cell_angle_gamma    90

_space_group_name_H-M_alt    "P 1"
_space_group_IT_number       1

loop_
  _space_group_symop_operation_xyz
  'x, y, z'

loop_
  _atom_site_type_symbol
  _atom_site_label
  _atom_site_symmetry_multiplicity
  _atom_site_fract_x
  _atom_site_fract_y
  _atom_site_fract_z
  _atom_site_occupancy
  In  In1       1.0  0.24638  0.38879  0.12646  1.0000
  In  In2       1.0  0.75362  0.38879  0.87354  1.0000
  In  In3       1.0  0.74638  0.88879  0.62646  1.0000
  In  In4       1.0  0.25362  0.88879  0.37354  1.0000
  In  In5       1.0  0.75362  0.61121  0.87354  1.0000
  In  In6       1.0  0.24638  0.61121  0.12646  1.0000
  In  In7       1.0  0.25362  0.11121  0.37354  1.0000
  In  In8       1.0  0.74638  0.11121  0.62646  1.0000
  O   O1        1.0  0.11289  0.40086  0.12383  1.0000
  O   O2        1.0  0.88711  0.40086  0.87617  1.0000
  O   O3        1.0  0.61289  0.90086  0.62383  1.0000
  O   O4        1.0  0.38711  0.90086  0.37617  1.0000
  O   O5        1.0  0.88711  0.59914  0.87617  1.0000
  O   O6        1.0  0.11289  0.59914  0.12383  1.0000
  O   O7        1.0  0.38711  0.09914  0.37617  1.0000
  O   O8        1.0  0.61289  0.09914  0.62383  1.0000
  O   O9        1.0  0.38069  0.41802  0.13501  1.0000
  O   O10       1.0  0.61931  0.41802  0.86499  1.0000
  O   O11       1.0  0.88069  0.91802  0.63501  1.0000
  O   O12       1.0  0.11931  0.91802  0.36499  1.0000
  O   O13       1.0  0.61931  0.58198  0.86499  1.0000
  O   O14       1.0  0.38069  0.58198  0.13501  1.0000
  O   O15       1.0  0.11931  0.08198  0.36499  1.0000
  O   O16       1.0  0.88069  0.08198  0.63501  1.0000
  O   O17       1.0  0.16913  0.35463  0.18832  1.0000
  O   O18       1.0  0.83087  0.35463  0.81168  1.0000
  O   O19       1.0  0.66913  0.85463  0.68832  1.0000
  O   O20       1.0  0.33087  0.85463  0.31168  1.0000
  O   O21       1.0  0.83087  0.64537  0.81168  1.0000
  O   O22       1.0  0.16913  0.64537  0.18832  1.0000
  O   O23       1.0  0.33087  0.14537  0.31168  1.0000
  O   O24       1.0  0.66913  0.14537  0.68832  1.0000
  O   O25       1.0  0.33403  0.34910  0.17379  1.0000
  O   O26       1.0  0.66597  0.34910  0.82621  1.0000
  O   O27       1.0  0.83403  0.84910  0.67379  1.0000
  O   O28       1.0  0.16597  0.84910  0.32621  1.0000
  O   O29       1.0  0.66597  0.65090  0.82621  1.0000
  O   O30       1.0  0.33403  0.65090  0.17379  1.0000
  O   O31       1.0  0.16597  0.15090  0.32621  1.0000
  O   O32       1.0  0.83403  0.15090  0.67379  1.0000
  O   O33       1.0  0.23842  0.45738  0.07322  1.0000
  O   O34       1.0  0.76158  0.45738  0.92678  1.0000
  O   O35       1.0  0.73842  0.95738  0.57322  1.0000
  O   O36       1.0  0.26158  0.95738  0.42678  1.0000
  O   O37       1.0  0.76158  0.54262  0.92678  1.0000
  O   O38       1.0  0.23842  0.54262  0.07322  1.0000
  O   O39       1.0  0.26158  0.04262  0.42678  1.0000
  O   O40       1.0  0.73842  0.04262  0.57322  1.0000
  O   O41       1.0  0.24210  0.45668  0.18308  1.0000
  O   O42       1.0  0.75790  0.45668  0.81692  1.0000
  O   O43       1.0  0.74210  0.95668  0.68308  1.0000
  O   O44       1.0  0.25790  0.95668  0.31692  1.0000
  O   O45       1.0  0.75790  0.54332  0.81692  1.0000
  O   O46       1.0  0.24210  0.54332  0.18308  1.0000
  O   O47       1.0  0.25790  0.04332  0.31692  1.0000
  O   O48       1.0  0.74210  0.04332  0.68308  1.0000
  C   C1        1.0  0.10920  0.37277  0.16650  1.0000
  C   C2        1.0  0.89080  0.37277  0.83350  1.0000
  C   C3        1.0  0.60920  0.87277  0.66650  1.0000
  C   C4        1.0  0.39080  0.87277  0.33350  1.0000
  C   C5        1.0  0.89080  0.62723  0.83350  1.0000
  C   C6        1.0  0.10920  0.62723  0.16650  1.0000
  C   C7        1.0  0.39080  0.12723  0.33350  1.0000
  C   C8        1.0  0.60920  0.12723  0.66650  1.0000
  C   C9        1.0  0.38970  0.37933  0.16444  1.0000
  C   C10       1.0  0.61030  0.37933  0.83556  1.0000
  C   C11       1.0  0.88970  0.87933  0.66444  1.0000
  C   C12       1.0  0.11030  0.87933  0.33556  1.0000
  C   C13       1.0  0.61030  0.62067  0.83556  1.0000
  C   C14       1.0  0.38970  0.62067  0.16444  1.0000
  C   C15       1.0  0.11030  0.12067  0.33556  1.0000
  C   C16       1.0  0.88970  0.12067  0.66444  1.0000
  C   C17       1.0  0.60730  0.34044  0.23507  1.0000
  C   C18       1.0  0.39270  0.34044  0.76493  1.0000
  C   C19       1.0  0.10730  0.84044  0.73507  1.0000
  C   C20       1.0  0.89270  0.84044  0.26493  1.0000
  C   C21       1.0  0.39270  0.65956  0.76493  1.0000
  C   C22       1.0  0.60730  0.65956  0.23507  1.0000
  C   C23       1.0  0.89270  0.15956  0.26493  1.0000
  C   C24       1.0  0.10730  0.15956  0.73507  1.0000
  O   O49       1.0  0.70830  0.17960  0.57401  1.0000
  O   O50       1.0  0.29170  0.17960  0.42599  1.0000
  O   O51       1.0  0.20830  0.67960  0.07401  1.0000
  O   O52       1.0  0.79170  0.67960  0.92599  1.0000
  O   O53       1.0  0.29170  0.82040  0.42599  1.0000
  O   O54       1.0  0.70830  0.82040  0.57401  1.0000
  O   O55       1.0  0.79170  0.32040  0.92599  1.0000
  O   O56       1.0  0.20830  0.32040  0.07401  1.0000
  C   C25       1.0  0.03470  0.36130  0.19002  1.0000
  C   C26       1.0  0.96530  0.36130  0.80998  1.0000
  C   C27       1.0  0.53470  0.86130  0.69002  1.0000
  C   C28       1.0  0.46530  0.86130  0.30998  1.0000
  C   C29       1.0  0.96530  0.63870  0.80998  1.0000
  C   C30       1.0  0.03470  0.63870  0.19002  1.0000
  C   C31       1.0  0.46530  0.13870  0.30998  1.0000
  C   C32       1.0  0.53470  0.13870  0.69002  1.0000
  C   C33       1.0  0.24040  0.50000  0.09649  1.0000
  C   C34       1.0  0.75960  0.50000  0.90351  1.0000
  C   C35       1.0  0.74040  0.00000  0.59649  1.0000
  C   C36       1.0  0.25960  0.00000  0.40351  1.0000
  C   C37       1.0  0.46610  0.36451  0.18777  1.0000
  C   C38       1.0  0.53390  0.36451  0.81223  1.0000
  C   C39       1.0  0.96610  0.86451  0.68777  1.0000
  C   C40       1.0  0.03390  0.86451  0.31223  1.0000
  C   C41       1.0  0.53390  0.63549  0.81223  1.0000
  C   C42       1.0  0.46610  0.63549  0.18777  1.0000
  C   C43       1.0  0.03390  0.13549  0.31223  1.0000
  C   C44       1.0  0.96610  0.13549  0.68777  1.0000
  C   C45       1.0  0.89400  0.33811  0.23696  1.0000
  C   C46       1.0  0.10600  0.33811  0.76304  1.0000
  C   C47       1.0  0.39400  0.83811  0.73696  1.0000
  C   C48       1.0  0.60600  0.83811  0.26304  1.0000
  C   C49       1.0  0.10600  0.66189  0.76304  1.0000
  C   C50       1.0  0.89400  0.66189  0.23696  1.0000
  C   C51       1.0  0.60600  0.16189  0.26304  1.0000
  C   C52       1.0  0.39400  0.16189  0.73696  1.0000
  C   C53       1.0  0.68270  0.29980  0.31109  1.0000
  C   C54       1.0  0.31730  0.29980  0.68891  1.0000
  C   C55       1.0  0.18270  0.79980  0.81109  1.0000
  C   C56       1.0  0.81730  0.79980  0.18891  1.0000
  C   C57       1.0  0.31730  0.70020  0.68891  1.0000
  C   C58       1.0  0.68270  0.70020  0.31109  1.0000
  C   C59       1.0  0.81730  0.20020  0.18891  1.0000
  C   C60       1.0  0.18270  0.20020  0.81109  1.0000
  H   H1        1.0  0.63600  0.29160  0.32800  1.0000
  H   H2        1.0  0.36400  0.29160  0.67200  1.0000
  H   H3        1.0  0.13600  0.79160  0.82800  1.0000
  H   H4        1.0  0.86400  0.79160  0.17200  1.0000
  H   H5        1.0  0.36400  0.70840  0.67200  1.0000
  H   H6        1.0  0.63600  0.70840  0.32800  1.0000
  H   H7        1.0  0.86400  0.20840  0.17200  1.0000
  H   H8        1.0  0.13600  0.20840  0.82800  1.0000
  C   C61       1.0  0.81950  0.29710  0.31074  1.0000
  C   C62       1.0  0.18050  0.29710  0.68926  1.0000
  C   C63       1.0  0.31950  0.79710  0.81074  1.0000
  C   C64       1.0  0.68050  0.79710  0.18926  1.0000
  C   C65       1.0  0.18050  0.70290  0.68926  1.0000
  C   C66       1.0  0.81950  0.70290  0.31074  1.0000
  C   C67       1.0  0.68050  0.20290  0.18926  1.0000
  C   C68       1.0  0.31950  0.20290  0.81074  1.0000
  H   H9        1.0  0.86630  0.28560  0.32670  1.0000
  H   H10       1.0  0.13370  0.28560  0.67330  1.0000
  H   H11       1.0  0.36630  0.78560  0.82670  1.0000
  H   H12       1.0  0.63370  0.78560  0.17330  1.0000
  H   H13       1.0  0.13370  0.71440  0.67330  1.0000
  H   H14       1.0  0.86630  0.71440  0.32670  1.0000
  H   H15       1.0  0.63370  0.21440  0.17330  1.0000
  H   H16       1.0  0.36630  0.21440  0.82670  1.0000
  O   O57       1.0  0.80570  0.13830  0.54765  1.0000
  O   O58       1.0  0.19430  0.13830  0.45235  1.0000
  O   O59       1.0  0.30570  0.63830  0.04765  1.0000
  O   O60       1.0  0.69430  0.63830  0.95235  1.0000
  O   O61       1.0  0.19430  0.86170  0.45235  1.0000
  O   O62       1.0  0.80570  0.86170  0.54765  1.0000
  O   O63       1.0  0.69430  0.36170  0.95235  1.0000
  O   O64       1.0  0.30570  0.36170  0.04765  1.0000
  C   C69       1.0  0.24230  0.50000  0.16036  1.0000
  C   C70       1.0  0.75770  0.50000  0.83964  1.0000
  C   C71       1.0  0.74230  0.00000  0.66036  1.0000
  C   C72       1.0  0.25770  0.00000  0.33964  1.0000
  C   C73       1.0  0.68140  0.32658  0.26152  1.0000
  C   C74       1.0  0.31860  0.32658  0.73848  1.0000
  C   C75       1.0  0.18140  0.82658  0.76152  1.0000
  C   C76       1.0  0.81860  0.82658  0.23848  1.0000
  C   C77       1.0  0.31860  0.67342  0.73848  1.0000
  C   C78       1.0  0.68140  0.67342  0.26152  1.0000
  C   C79       1.0  0.81860  0.17342  0.23848  1.0000
  C   C80       1.0  0.18140  0.17342  0.76152  1.0000
  C   C81       1.0  0.03010  0.35150  0.24585  1.0000
  C   C82       1.0  0.96990  0.35150  0.75415  1.0000
  C   C83       1.0  0.53010  0.85150  0.74585  1.0000
  C   C84       1.0  0.46990  0.85150  0.25415  1.0000
  C   C85       1.0  0.96990  0.64850  0.75415  1.0000
  C   C86       1.0  0.03010  0.64850  0.24585  1.0000
  C   C87       1.0  0.46990  0.14850  0.25415  1.0000
  C   C88       1.0  0.53010  0.14850  0.74585  1.0000
  H   H17       1.0  0.07530  0.35140  0.26790  1.0000
  H   H18       1.0  0.92470  0.35140  0.73210  1.0000
  H   H19       1.0  0.57530  0.85140  0.76790  1.0000
  H   H20       1.0  0.42470  0.85140  0.23210  1.0000
  H   H21       1.0  0.92470  0.64860  0.73210  1.0000
  H   H22       1.0  0.07530  0.64860  0.26790  1.0000
  H   H23       1.0  0.42470  0.14860  0.23210  1.0000
  H   H24       1.0  0.57530  0.14860  0.76790  1.0000
  C   C89       1.0  0.75070  0.33956  0.23781  1.0000
  C   C90       1.0  0.24930  0.33956  0.76219  1.0000
  C   C91       1.0  0.25070  0.83956  0.73781  1.0000
  C   C92       1.0  0.74930  0.83956  0.26219  1.0000
  C   C93       1.0  0.24930  0.66044  0.76219  1.0000
  C   C94       1.0  0.75070  0.66044  0.23781  1.0000
  C   C95       1.0  0.74930  0.16044  0.26219  1.0000
  C   C96       1.0  0.25070  0.16044  0.73781  1.0000
  H   H25       1.0  0.75040  0.35810  0.20420  1.0000
  H   H26       1.0  0.24960  0.35810  0.79580  1.0000
  H   H27       1.0  0.25040  0.85810  0.70420  1.0000
  H   H28       1.0  0.74960  0.85810  0.29580  1.0000
  H   H29       1.0  0.24960  0.64190  0.79580  1.0000
  H   H30       1.0  0.75040  0.64190  0.20420  1.0000
  H   H31       1.0  0.74960  0.14190  0.29580  1.0000
  H   H32       1.0  0.25040  0.14190  0.70420  1.0000
  C   C97       1.0  0.82050  0.32593  0.26232  1.0000
  C   C98       1.0  0.17950  0.32593  0.73768  1.0000
  C   C99       1.0  0.32050  0.82593  0.76232  1.0000
  C   C100      1.0  0.67950  0.82593  0.23768  1.0000
  C   C101      1.0  0.17950  0.67407  0.73768  1.0000
  C   C102      1.0  0.82050  0.67407  0.26232  1.0000
  C   C103      1.0  0.67950  0.17407  0.23768  1.0000
  C   C104      1.0  0.32050  0.17407  0.76232  1.0000
  C   C105      1.0  0.75140  0.25540  0.38821  1.0000
  C   C106      1.0  0.24860  0.25540  0.61179  1.0000
  C   C107      1.0  0.25140  0.75540  0.88821  1.0000
  C   C108      1.0  0.74860  0.75540  0.11179  1.0000
  C   C109      1.0  0.24860  0.74460  0.61179  1.0000
  C   C110      1.0  0.75140  0.74460  0.38821  1.0000
  C   C111      1.0  0.74860  0.24460  0.11179  1.0000
  C   C112      1.0  0.25140  0.24460  0.88821  1.0000
  C   C113      1.0  0.95980  0.34170  0.26997  1.0000
  C   C114      1.0  0.04020  0.34170  0.73003  1.0000
  C   C115      1.0  0.45980  0.84170  0.76997  1.0000
  C   C116      1.0  0.54020  0.84170  0.23003  1.0000
  C   C117      1.0  0.04020  0.65830  0.73003  1.0000
  C   C118      1.0  0.95980  0.65830  0.26997  1.0000
  C   C119      1.0  0.54020  0.15830  0.23003  1.0000
  C   C120      1.0  0.45980  0.15830  0.76997  1.0000
  H   H33       1.0  0.95680  0.33760  0.30840  1.0000
  H   H34       1.0  0.04320  0.33760  0.69160  1.0000
  H   H35       1.0  0.45680  0.83760  0.80840  1.0000
  H   H36       1.0  0.54320  0.83760  0.19160  1.0000
  H   H37       1.0  0.04320  0.66240  0.69160  1.0000
  H   H38       1.0  0.95680  0.66240  0.30840  1.0000
  H   H39       1.0  0.54320  0.16240  0.19160  1.0000
  H   H40       1.0  0.45680  0.16240  0.80840  1.0000
  C   C121      1.0  0.52810  0.39780  0.18260  1.0000
  C   C122      1.0  0.47190  0.39780  0.81740  1.0000
  C   C123      1.0  0.02810  0.89780  0.68260  1.0000
  C   C124      1.0  0.97190  0.89780  0.31740  1.0000
  C   C125      1.0  0.47190  0.60220  0.81740  1.0000
  C   C126      1.0  0.52810  0.60220  0.18260  1.0000
  C   C127      1.0  0.97190  0.10220  0.31740  1.0000
  C   C128      1.0  0.02810  0.10220  0.68260  1.0000
  H   H41       1.0  0.52230  0.42920  0.16250  1.0000
  H   H42       1.0  0.47770  0.42920  0.83750  1.0000
  H   H43       1.0  0.02230  0.92920  0.66250  1.0000
  H   H44       1.0  0.97770  0.92920  0.33750  1.0000
  H   H45       1.0  0.47770  0.57080  0.83750  1.0000
  H   H46       1.0  0.52230  0.57080  0.16250  1.0000
  H   H47       1.0  0.97770  0.07080  0.33750  1.0000
  H   H48       1.0  0.02230  0.07080  0.66250  1.0000
  C   C129      1.0  0.75090  0.28480  0.33625  1.0000
  C   C130      1.0  0.24910  0.28480  0.66375  1.0000
  C   C131      1.0  0.25090  0.78480  0.83625  1.0000
  C   C132      1.0  0.74910  0.78480  0.16375  1.0000
  C   C133      1.0  0.24910  0.71520  0.66375  1.0000
  C   C134      1.0  0.75090  0.71520  0.33625  1.0000
  C   C135      1.0  0.74910  0.21520  0.16375  1.0000
  C   C136      1.0  0.25090  0.21520  0.83625  1.0000
  C   C137      1.0  0.59740  0.38600  0.20620  1.0000
  C   C138      1.0  0.40260  0.38600  0.79380  1.0000
  C   C139      1.0  0.09740  0.88600  0.70620  1.0000
  C   C140      1.0  0.90260  0.88600  0.29380  1.0000
  C   C141      1.0  0.40260  0.61400  0.79380  1.0000
  C   C142      1.0  0.59740  0.61400  0.20620  1.0000
  C   C143      1.0  0.90260  0.11400  0.29380  1.0000
  C   C144      1.0  0.09740  0.11400  0.70620  1.0000
  H   H49       1.0  0.63890  0.40930  0.20250  1.0000
  H   H50       1.0  0.36110  0.40930  0.79750  1.0000
  H   H51       1.0  0.13890  0.90930  0.70250  1.0000
  H   H52       1.0  0.86110  0.90930  0.29750  1.0000
  H   H53       1.0  0.36110  0.59070  0.79750  1.0000
  H   H54       1.0  0.63890  0.59070  0.20250  1.0000
  H   H55       1.0  0.86110  0.09070  0.29750  1.0000
  H   H56       1.0  0.13890  0.09070  0.70250  1.0000
  C   C145      1.0  0.89970  0.34550  0.18182  1.0000
  C   C146      1.0  0.10030  0.34550  0.81818  1.0000
  C   C147      1.0  0.39970  0.84550  0.68182  1.0000
  C   C148      1.0  0.60030  0.84550  0.31818  1.0000
  C   C149      1.0  0.10030  0.65450  0.81818  1.0000
  C   C150      1.0  0.89970  0.65450  0.18182  1.0000
  C   C151      1.0  0.60030  0.15450  0.31818  1.0000
  C   C152      1.0  0.39970  0.15450  0.68182  1.0000
  H   H57       1.0  0.85520  0.34330  0.15920  1.0000
  H   H58       1.0  0.14480  0.34330  0.84080  1.0000
  H   H59       1.0  0.35520  0.84330  0.65920  1.0000
  H   H60       1.0  0.64480  0.84330  0.34080  1.0000
  H   H61       1.0  0.14480  0.65670  0.84080  1.0000
  H   H62       1.0  0.85520  0.65670  0.15920  1.0000
  H   H63       1.0  0.64480  0.15670  0.34080  1.0000
  H   H64       1.0  0.35520  0.15670  0.65920  1.0000
  C   C153      1.0  0.96920  0.35600  0.15846  1.0000
  C   C154      1.0  0.03080  0.35600  0.84154  1.0000
  C   C155      1.0  0.46920  0.85600  0.65846  1.0000
  C   C156      1.0  0.53080  0.85600  0.34154  1.0000
  C   C157      1.0  0.03080  0.64400  0.84154  1.0000
  C   C158      1.0  0.96920  0.64400  0.15846  1.0000
  C   C159      1.0  0.53080  0.14400  0.34154  1.0000
  C   C160      1.0  0.46920  0.14400  0.65846  1.0000
  H   H65       1.0  0.97180  0.35970  0.12000  1.0000
  H   H66       1.0  0.02820  0.35970  0.88000  1.0000
  H   H67       1.0  0.47180  0.85970  0.62000  1.0000
  H   H68       1.0  0.52820  0.85970  0.38000  1.0000
  H   H69       1.0  0.02820  0.64030  0.88000  1.0000
  H   H70       1.0  0.97180  0.64030  0.12000  1.0000
  H   H71       1.0  0.52820  0.14030  0.38000  1.0000
  H   H72       1.0  0.47180  0.14030  0.62000  1.0000
  C   C161      1.0  0.47630  0.31890  0.21550  1.0000
  C   C162      1.0  0.52370  0.31890  0.78450  1.0000
  C   C163      1.0  0.97630  0.81890  0.71550  1.0000
  C   C164      1.0  0.02370  0.81890  0.28450  1.0000
  C   C165      1.0  0.52370  0.68110  0.78450  1.0000
  C   C166      1.0  0.47630  0.68110  0.21550  1.0000
  C   C167      1.0  0.02370  0.18110  0.28450  1.0000
  C   C168      1.0  0.97630  0.18110  0.71550  1.0000
  H   H73       1.0  0.43470  0.29560  0.21920  1.0000
  H   H74       1.0  0.56530  0.29560  0.78080  1.0000
  H   H75       1.0  0.93470  0.79560  0.71920  1.0000
  H   H76       1.0  0.06530  0.79560  0.28080  1.0000
  H   H77       1.0  0.56530  0.70440  0.78080  1.0000
  H   H78       1.0  0.43470  0.70440  0.21920  1.0000
  H   H79       1.0  0.06530  0.20440  0.28080  1.0000
  H   H80       1.0  0.93470  0.20440  0.71920  1.0000
  C   C169      1.0  0.75300  0.20160  0.48725  1.0000
  C   C170      1.0  0.24700  0.20160  0.51275  1.0000
  C   C171      1.0  0.25300  0.70160  0.98725  1.0000
  C   C172      1.0  0.74700  0.70160  0.01275  1.0000
  C   C173      1.0  0.24700  0.79840  0.51275  1.0000
  C   C174      1.0  0.75300  0.79840  0.48725  1.0000
  C   C175      1.0  0.74700  0.29840  0.01275  1.0000
  C   C176      1.0  0.25300  0.29840  0.98725  1.0000
  C   C177      1.0  0.75620  0.17070  0.53900  1.0000
  C   C178      1.0  0.24380  0.17070  0.46100  1.0000
  C   C179      1.0  0.25620  0.67070  0.03900  1.0000
  C   C180      1.0  0.74380  0.67070  0.96100  1.0000
  C   C181      1.0  0.24380  0.82930  0.46100  1.0000
  C   C182      1.0  0.75620  0.82930  0.53900  1.0000
  C   C183      1.0  0.74380  0.32930  0.96100  1.0000
  C   C184      1.0  0.25620  0.32930  0.03900  1.0000
  C   C185      1.0  0.54670  0.30640  0.23850  1.0000
  C   C186      1.0  0.45330  0.30640  0.76150  1.0000
  C   C187      1.0  0.04670  0.80640  0.73850  1.0000
  C   C188      1.0  0.95330  0.80640  0.26150  1.0000
  C   C189      1.0  0.45330  0.69360  0.76150  1.0000
  C   C190      1.0  0.54670  0.69360  0.23850  1.0000
  C   C191      1.0  0.95330  0.19360  0.26150  1.0000
  C   C192      1.0  0.04670  0.19360  0.73850  1.0000
  H   H81       1.0  0.55330  0.27400  0.25670  1.0000
  H   H82       1.0  0.44670  0.27400  0.74330  1.0000
  H   H83       1.0  0.05330  0.77400  0.75670  1.0000
  H   H84       1.0  0.94670  0.77400  0.24330  1.0000
  H   H85       1.0  0.44670  0.72600  0.74330  1.0000
  H   H86       1.0  0.55330  0.72600  0.25670  1.0000
  H   H87       1.0  0.94670  0.22600  0.24330  1.0000
  H   H88       1.0  0.05330  0.22600  0.75670  1.0000
  C   C193      1.0  0.80790  0.18980  0.44770  1.0000
  C   C194      1.0  0.19210  0.18980  0.55230  1.0000
  C   C195      1.0  0.30790  0.68980  0.94770  1.0000
  C   C196      1.0  0.69210  0.68980  0.05230  1.0000
  C   C197      1.0  0.19210  0.81020  0.55230  1.0000
  C   C198      1.0  0.80790  0.81020  0.44770  1.0000
  C   C199      1.0  0.69210  0.31020  0.05230  1.0000
  C   C200      1.0  0.30790  0.31020  0.94770  1.0000
  H   H89       1.0  0.84590  0.16430  0.45500  1.0000
  H   H90       1.0  0.15410  0.16430  0.54500  1.0000
  H   H91       1.0  0.34590  0.66430  0.95500  1.0000
  H   H92       1.0  0.65410  0.66430  0.04500  1.0000
  H   H93       1.0  0.15410  0.83570  0.54500  1.0000
  H   H94       1.0  0.84590  0.83570  0.45500  1.0000
  H   H95       1.0  0.65410  0.33570  0.04500  1.0000
  H   H96       1.0  0.34590  0.33570  0.95500  1.0000
  C   C201      1.0  0.80570  0.21600  0.39750  1.0000
  C   C202      1.0  0.19430  0.21600  0.60250  1.0000
  C   C203      1.0  0.30570  0.71600  0.89750  1.0000
  C   C204      1.0  0.69430  0.71600  0.10250  1.0000
  C   C205      1.0  0.19430  0.78400  0.60250  1.0000
  C   C206      1.0  0.80570  0.78400  0.39750  1.0000
  C   C207      1.0  0.69430  0.28400  0.10250  1.0000
  C   C208      1.0  0.30570  0.28400  0.89750  1.0000
  H   H97       1.0  0.84080  0.20730  0.37000  1.0000
  H   H98       1.0  0.15920  0.20730  0.63000  1.0000
  H   H99       1.0  0.34080  0.70730  0.87000  1.0000
  H   H100      1.0  0.65920  0.70730  0.13000  1.0000
  H   H101      1.0  0.15920  0.79270  0.63000  1.0000
  H   H102      1.0  0.84080  0.79270  0.37000  1.0000
  H   H103      1.0  0.65920  0.29270  0.13000  1.0000
  H   H104      1.0  0.34080  0.29270  0.87000  1.0000
  C   C209      1.0  0.70120  0.23850  0.47640  1.0000
  C   C210      1.0  0.29880  0.23850  0.52360  1.0000
  C   C211      1.0  0.20120  0.73850  0.97640  1.0000
  C   C212      1.0  0.79880  0.73850  0.02360  1.0000
  C   C213      1.0  0.29880  0.76150  0.52360  1.0000
  C   C214      1.0  0.70120  0.76150  0.47640  1.0000
  C   C215      1.0  0.79880  0.26150  0.02360  1.0000
  C   C216      1.0  0.20120  0.26150  0.97640  1.0000
  H   H105      1.0  0.66400  0.24560  0.50300  1.0000
  H   H106      1.0  0.33600  0.24560  0.49700  1.0000
  H   H107      1.0  0.16400  0.74560  0.00300  1.0000
  H   H108      1.0  0.83600  0.74560  0.99700  1.0000
  H   H109      1.0  0.33600  0.75440  0.49700  1.0000
  H   H110      1.0  0.66400  0.75440  0.50300  1.0000
  H   H111      1.0  0.83600  0.25440  0.99700  1.0000
  H   H112      1.0  0.16400  0.25440  0.00300  1.0000
  C   C217      1.0  0.69930  0.26650  0.42850  1.0000
  C   C218      1.0  0.30070  0.26650  0.57150  1.0000
  C   C219      1.0  0.19930  0.76650  0.92850  1.0000
  C   C220      1.0  0.80070  0.76650  0.07150  1.0000
  C   C221      1.0  0.30070  0.73350  0.57150  1.0000
  C   C222      1.0  0.69930  0.73350  0.42850  1.0000
  C   C223      1.0  0.80070  0.23350  0.07150  1.0000
  C   C224      1.0  0.19930  0.23350  0.92850  1.0000
  H   H113      1.0  0.66270  0.29320  0.42310  1.0000
  H   H114      1.0  0.33730  0.29320  0.57690  1.0000
  H   H115      1.0  0.16270  0.79320  0.92310  1.0000
  H   H116      1.0  0.83730  0.79320  0.07690  1.0000
  H   H117      1.0  0.33730  0.70680  0.57690  1.0000
  H   H118      1.0  0.66270  0.70680  0.42310  1.0000
  H   H119      1.0  0.83730  0.20680  0.07690  1.0000
  H   H120      1.0  0.16270  0.20680  0.92310  1.0000
