data_image0
_chemical_formula_structural       In4C4H2C2H2C2H2C2H2C4H2N2C2H2C2H2C2H2C6H2C8H2C10H2C2H2C2H2C4H2C2H2C2H2C2H2C4H2C2H2O28C6H2C2H2C4H2C4H2C8H2O2C2H2C2H2C2H2C10H2C2H2C2H2C2H2C2H2C2H2O2C2H2C4H2C2H2C4N2C2H2C4H2
_chemical_formula_sum              "In4 C132 H76 N4 O32"
_cell_length_a       9.0282
_cell_length_b       15.3282
_cell_length_c       26.6329
_cell_angle_alpha    90.906
_cell_angle_beta     91.479
_cell_angle_gamma    98.927

_space_group_name_H-M_alt    "P 1"
_space_group_IT_number       1

loop_
  _space_group_symop_operation_xyz
  'x, y, z'

loop_
  _atom_site_type_symbol
  _atom_site_label
  _atom_site_symmetry_multiplicity
  _atom_site_fract_x
  _atom_site_fract_y
  _atom_site_fract_z
  _atom_site_occupancy
  In  In1       1.0  0.80376  0.90836  0.34930  1.0000
  In  In2       1.0  0.19624  0.09164  0.65070  1.0000
  In  In3       1.0  0.64490  0.57840  0.84298  1.0000
  In  In4       1.0  0.35510  0.42160  0.15701  1.0000
  C   C1        1.0  0.14990  0.89330  0.97760  1.0000
  C   C2        1.0  0.85010  0.10670  0.02240  1.0000
  C   C3        1.0  0.49160  0.36230  0.97970  1.0000
  C   C4        1.0  0.50840  0.63770  0.02030  1.0000
  H   H1        1.0  0.50680  0.41680  0.99800  1.0000
  H   H2        1.0  0.49320  0.58320  0.00200  1.0000
  C   C5        1.0  0.39420  0.95290  0.15970  1.0000
  C   C6        1.0  0.60580  0.04710  0.84030  1.0000
  H   H3        1.0  0.29240  0.92860  0.15240  1.0000
  H   H4        1.0  0.70760  0.07140  0.84760  1.0000
  C   C7        1.0  0.46350  0.93230  0.20480  1.0000
  C   C8        1.0  0.53650  0.06770  0.79520  1.0000
  H   H5        1.0  0.40910  0.89460  0.22820  1.0000
  H   H6        1.0  0.59090  0.10540  0.77180  1.0000
  C   C9        1.0  0.43790  0.10750  0.05310  1.0000
  C   C10       1.0  0.56210  0.89250  0.94690  1.0000
  H   H7        1.0  0.50030  0.15530  0.06990  1.0000
  H   H8        1.0  0.49970  0.84470  0.93010  1.0000
  C   C11       1.0  0.56220  0.44340  0.90130  1.0000
  C   C12       1.0  0.43780  0.55660  0.09870  1.0000
  C   C13       1.0  0.49820  0.27960  0.90200  1.0000
  C   C14       1.0  0.50180  0.72040  0.09800  1.0000
  H   H9        1.0  0.51930  0.27790  0.86730  1.0000
  H   H10       1.0  0.48070  0.72210  0.13270  1.0000
  N   N1        1.0  0.08890  0.80740  0.75810  1.0000
  N   N2        1.0  0.91110  0.19260  0.24190  1.0000
  C   C15       1.0  0.30900  0.95770  0.05120  1.0000
  C   C16       1.0  0.69100  0.04230  0.94880  1.0000
  H   H11       1.0  0.28500  0.90260  0.06720  1.0000
  H   H12       1.0  0.71500  0.09740  0.93280  1.0000
  C   C17       1.0  0.28210  0.04820  0.98030  1.0000
  C   C18       1.0  0.71790  0.95180  0.01970  1.0000
  H   H13       1.0  0.24000  0.05620  0.94790  1.0000
  H   H14       1.0  0.76000  0.94380  0.05210  1.0000
  C   C19       1.0  0.08600  0.73670  0.95910  1.0000
  C   C20       1.0  0.91400  0.26330  0.04090  1.0000
  H   H15       1.0  0.10940  0.67850  0.96130  1.0000
  H   H16       1.0  0.89060  0.32150  0.03870  1.0000
  C   C21       1.0  0.95910  0.75140  0.93170  1.0000
  C   C22       1.0  0.04090  0.24860  0.06830  1.0000
  C   C23       1.0  0.37840  0.11820  0.00400  1.0000
  C   C24       1.0  0.62160  0.88180  0.99600  1.0000
  C   C25       1.0  0.93120  0.83830  0.92520  1.0000
  C   C26       1.0  0.06880  0.16170  0.07480  1.0000
  H   H17       1.0  0.84770  0.84930  0.90520  1.0000
  H   H18       1.0  0.15230  0.15070  0.09480  1.0000
  C   C27       1.0  0.51730  0.36090  0.92880  1.0000
  C   C28       1.0  0.48270  0.63910  0.07120  1.0000
  C   C29       1.0  0.47340  0.00880  0.12540  1.0000
  C   C30       1.0  0.52660  0.99120  0.87460  1.0000
  C   C31       1.0  0.61450  0.96810  0.21490  1.0000
  C   C32       1.0  0.38550  0.03190  0.78510  1.0000
  C   C33       1.0  0.44340  0.28410  0.00420  1.0000
  C   C34       1.0  0.55660  0.71590  0.99580  1.0000
  H   H19       1.0  0.42530  0.28570  0.03920  1.0000
  H   H20       1.0  0.57470  0.71430  0.96080  1.0000
  C   C35       1.0  0.40380  0.02560  0.07640  1.0000
  C   C36       1.0  0.59620  0.97440  0.92360  1.0000
  C   C37       1.0  0.24780  0.96750  0.00340  1.0000
  C   C38       1.0  0.75220  0.03250  0.99660  1.0000
  C   C39       1.0  0.68810  0.94610  0.26190  1.0000
  C   C40       1.0  0.31190  0.05390  0.73810  1.0000
  C   C41       1.0  0.42130  0.20350  0.97830  1.0000
  C   C42       1.0  0.57870  0.79650  0.02170  1.0000
  C   C43       1.0  0.17790  0.80600  0.98290  1.0000
  C   C44       1.0  0.82210  0.19400  0.01710  1.0000
  H   H21       1.0  0.26090  0.79480  0.00320  1.0000
  H   H22       1.0  0.73910  0.20520  0.99680  1.0000
  C   C45       1.0  0.02680  0.90770  0.94820  1.0000
  C   C46       1.0  0.97320  0.09230  0.05180  1.0000
  H   H23       1.0  0.00790  0.96630  0.94390  1.0000
  H   H24       1.0  0.99210  0.03370  0.05610  1.0000
  C   C47       1.0  0.33220  0.76740  0.74640  1.0000
  C   C48       1.0  0.66780  0.23260  0.25360  1.0000
  H   H25       1.0  0.42060  0.77220  0.72730  1.0000
  H   H26       1.0  0.57940  0.22780  0.27270  1.0000
  C   C49       1.0  0.31620  0.71570  0.78900  1.0000
  C   C50       1.0  0.68380  0.28430  0.21100  1.0000
  C   C51       1.0  0.44840  0.20250  0.92690  1.0000
  C   C52       1.0  0.55160  0.79750  0.07310  1.0000
  H   H27       1.0  0.43230  0.14790  0.90860  1.0000
  H   H28       1.0  0.56770  0.85210  0.09140  1.0000
  C   C53       1.0  0.69260  0.02250  0.18030  1.0000
  C   C54       1.0  0.30740  0.97750  0.81970  1.0000
  H   H29       1.0  0.79510  0.04570  0.18710  1.0000
  H   H30       1.0  0.20490  0.95430  0.81290  1.0000
  C   C55       1.0  0.62390  0.04370  0.13600  1.0000
  C   C56       1.0  0.37610  0.95630  0.86400  1.0000
  H   H31       1.0  0.67870  0.08180  0.11280  1.0000
  H   H32       1.0  0.32130  0.91820  0.88720  1.0000
  C   C57       1.0  0.21540  0.81180  0.73250  1.0000
  C   C58       1.0  0.78460  0.18820  0.26750  1.0000
  H   H33       1.0  0.22560  0.84700  0.70340  1.0000
  H   H34       1.0  0.77440  0.15300  0.29660  1.0000
  C   C59       1.0  0.43980  0.66840  0.80500  1.0000
  C   C60       1.0  0.56020  0.33160  0.19500  1.0000
  C   C61       1.0  0.07480  0.75630  0.79890  1.0000
  C   C62       1.0  0.92520  0.24370  0.20110  1.0000
  H   H35       1.0  0.98470  0.75180  0.81700  1.0000
  H   H36       1.0  0.01530  0.24820  0.18300  1.0000
  C   C63       1.0  0.18540  0.71010  0.81560  1.0000
  C   C64       1.0  0.81460  0.28990  0.18440  1.0000
  H   H37       1.0  0.17220  0.67520  0.84470  1.0000
  H   H38       1.0  0.82780  0.32480  0.15530  1.0000
  O   O1        1.0  0.55900  0.51740  0.92000  1.0000
  O   O2        1.0  0.44100  0.48260  0.08000  1.0000
  O   O3        1.0  0.61260  0.91020  0.29750  1.0000
  O   O4        1.0  0.38740  0.08980  0.70250  1.0000
  O   O5        1.0  0.82930  0.96630  0.26740  1.0000
  O   O6        1.0  0.17070  0.03370  0.73260  1.0000
  O   O7        1.0  0.60900  0.43720  0.85600  1.0000
  O   O8        1.0  0.39100  0.56280  0.14400  1.0000
  O   O9        1.0  0.56880  0.69120  0.78920  1.0000
  O   O10       1.0  0.43120  0.30880  0.21080  1.0000
  O   O11       1.0  0.41280  0.60320  0.83590  1.0000
  O   O12       1.0  0.58720  0.39680  0.16410  1.0000
  O   O13       1.0  0.59810  0.88470  0.41010  1.0000
  O   O14       1.0  0.40190  0.11530  0.58990  1.0000
  O   O15       1.0  0.92480  0.97520  0.41930  1.0000
  O   O16       1.0  0.07520  0.02480  0.58070  1.0000
  O   O17       1.0  0.74180  0.69560  0.88210  1.0000
  O   O18       1.0  0.25820  0.30440  0.11790  1.0000
  O   O19       1.0  0.62940  0.51810  0.75970  1.0000
  O   O20       1.0  0.37060  0.48190  0.24030  1.0000
  O   O21       1.0  0.84320  0.57780  0.79680  1.0000
  O   O22       1.0  0.15680  0.42220  0.20320  1.0000
  O   O23       1.0  0.72110  0.78350  0.38060  1.0000
  O   O24       1.0  0.27890  0.21650  0.61940  1.0000
  O   O25       1.0  0.00920  0.86100  0.33490  1.0000
  O   O26       1.0  0.99080  0.13900  0.66510  1.0000
  O   O27       1.0  0.82380  0.05100  0.36280  1.0000
  O   O28       1.0  0.17620  0.94900  0.63720  1.0000
  C   C65       1.0  0.95770  0.13280  0.43100  1.0000
  C   C66       1.0  0.04230  0.86720  0.56900  1.0000
  C   C67       1.0  0.90230  0.04870  0.40330  1.0000
  C   C68       1.0  0.09770  0.95130  0.59670  1.0000
  C   C69       1.0  0.99640  0.13280  0.48200  1.0000
  C   C70       1.0  0.00360  0.86720  0.51800  1.0000
  H   H39       1.0  0.98750  0.07860  0.49920  1.0000
  H   H40       1.0  0.01250  0.92140  0.50080  1.0000
  C   C71       1.0  0.04760  0.21090  0.50750  1.0000
  C   C72       1.0  0.95240  0.78910  0.49250  1.0000
  H   H41       1.0  0.07000  0.21040  0.54260  1.0000
  H   H42       1.0  0.93000  0.78960  0.45740  1.0000
  C   C73       1.0  0.11240  0.37580  0.50950  1.0000
  C   C74       1.0  0.88760  0.62420  0.49050  1.0000
  C   C75       1.0  0.03470  0.28980  0.43040  1.0000
  C   C76       1.0  0.96530  0.71020  0.56960  1.0000
  H   H43       1.0  0.05200  0.34320  0.41230  1.0000
  H   H44       1.0  0.94800  0.65680  0.58770  1.0000
  C   C77       1.0  0.06680  0.29090  0.48220  1.0000
  C   C78       1.0  0.93320  0.70910  0.51780  1.0000
  C   C79       1.0  0.18600  0.54090  0.55760  1.0000
  C   C80       1.0  0.81400  0.45910  0.44240  1.0000
  H   H45       1.0  0.21080  0.59680  0.57420  1.0000
  H   H46       1.0  0.78920  0.40320  0.42580  1.0000
  C   C81       1.0  0.01280  0.49200  0.62750  1.0000
  C   C82       1.0  0.98720  0.50800  0.37250  1.0000
  C   C83       1.0  0.08870  0.47320  0.58020  1.0000
  C   C84       1.0  0.91130  0.52680  0.41980  1.0000
  C   C85       1.0  0.24660  0.52680  0.51080  1.0000
  C   C86       1.0  0.75340  0.47320  0.48920  1.0000
  C   C87       1.0  0.20750  0.44460  0.48720  1.0000
  C   C88       1.0  0.79250  0.55540  0.51280  1.0000
  H   H47       1.0  0.24620  0.43480  0.45510  1.0000
  H   H48       1.0  0.75380  0.56520  0.54490  1.0000
  O   O29       1.0  0.88450  0.60010  0.90820  1.0000
  O   O30       1.0  0.11550  0.39990  0.09180  1.0000
  C   C89       1.0  0.86440  0.45000  0.63330  1.0000
  C   C90       1.0  0.13560  0.55000  0.36670  1.0000
  H   H49       1.0  0.81910  0.40790  0.60880  1.0000
  H   H50       1.0  0.18090  0.59210  0.39120  1.0000
  C   C91       1.0  0.05510  0.39220  0.55540  1.0000
  C   C92       1.0  0.94490  0.60780  0.44460  1.0000
  H   H51       1.0  0.99000  0.34610  0.57070  1.0000
  H   H52       1.0  0.01000  0.65390  0.42930  1.0000
  C   C93       1.0  0.45610  0.58100  0.45410  1.0000
  C   C94       1.0  0.54390  0.41900  0.54590  1.0000
  H   H53       1.0  0.47050  0.52140  0.44910  1.0000
  H   H54       1.0  0.52950  0.47860  0.55090  1.0000
  C   C95       1.0  0.34560  0.59880  0.48580  1.0000
  C   C96       1.0  0.65440  0.40120  0.51420  1.0000
  C   C97       1.0  0.85360  0.52460  0.71240  1.0000
  C   C98       1.0  0.14640  0.47540  0.28760  1.0000
  C   C99       1.0  0.76930  0.54120  0.75840  1.0000
  C   C100      1.0  0.23070  0.45880  0.24160  1.0000
  C   C101      1.0  0.85730  0.67690  0.90630  1.0000
  C   C102      1.0  0.14270  0.32310  0.09370  1.0000
  C   C103      1.0  0.32610  0.68740  0.49250  1.0000
  C   C104      1.0  0.67390  0.31260  0.50750  1.0000
  H   H55       1.0  0.25140  0.70160  0.51440  1.0000
  H   H56       1.0  0.74860  0.29840  0.48560  1.0000
  C   C105      1.0  0.54590  0.64640  0.42960  1.0000
  C   C106      1.0  0.45410  0.35360  0.57040  1.0000
  H   H57       1.0  0.62260  0.63210  0.40860  1.0000
  H   H58       1.0  0.37740  0.36790  0.59140  1.0000
  C   C107      1.0  0.41470  0.75470  0.46760  1.0000
  C   C108      1.0  0.58530  0.24530  0.53240  1.0000
  H   H59       1.0  0.40070  0.81440  0.47230  1.0000
  H   H60       1.0  0.59930  0.18560  0.52770  1.0000
  C   C109      1.0  0.78300  0.46970  0.67500  1.0000
  C   C110      1.0  0.21700  0.53030  0.32500  1.0000
  H   H61       1.0  0.68010  0.44530  0.67730  1.0000
  H   H62       1.0  0.31990  0.55470  0.32270  1.0000
  C   C111      1.0  0.97760  0.21130  0.40540  1.0000
  C   C112      1.0  0.02240  0.78870  0.59460  1.0000
  H   H63       1.0  0.95210  0.21140  0.37060  1.0000
  H   H64       1.0  0.04790  0.78860  0.62940  1.0000
  C   C113      1.0  0.07890  0.54970  0.66440  1.0000
  C   C114      1.0  0.92110  0.45030  0.33560  1.0000
  H   H65       1.0  0.17870  0.57880  0.66050  1.0000
  H   H66       1.0  0.82130  0.42120  0.33950  1.0000
  O   O31       1.0  0.85950  0.77690  0.28000  1.0000
  O   O32       1.0  0.14050  0.22310  0.72000  1.0000
  C   C115      1.0  0.00310  0.56660  0.70730  1.0000
  C   C116      1.0  0.99690  0.43340  0.29270  1.0000
  H   H67       1.0  0.05100  0.60580  0.73280  1.0000
  H   H68       1.0  0.94900  0.39420  0.26720  1.0000
  C   C117      1.0  0.98500  0.80210  0.30070  1.0000
  C   C118      1.0  0.01500  0.19790  0.69930  1.0000
  C   C119      1.0  0.25200  0.77520  0.31290  1.0000
  C   C120      1.0  0.74800  0.22480  0.68710  1.0000
  H   H69       1.0  0.25990  0.80820  0.34370  1.0000
  H   H70       1.0  0.74010  0.19180  0.65630  1.0000
  C   C121      1.0  0.11480  0.71390  0.23970  1.0000
  C   C122      1.0  0.88520  0.28610  0.76030  1.0000
  H   H71       1.0  0.02580  0.70270  0.21930  1.0000
  H   H72       1.0  0.97420  0.29730  0.78070  1.0000
  C   C123      1.0  0.52370  0.73350  0.43570  1.0000
  C   C124      1.0  0.47630  0.26650  0.56430  1.0000
  C   C125      1.0  0.11850  0.76260  0.28450  1.0000
  C   C126      1.0  0.88150  0.23740  0.71550  1.0000
  N   N3        1.0  0.36970  0.69440  0.25210  1.0000
  N   N4        1.0  0.63030  0.30560  0.74790  1.0000
  C   C127      1.0  0.37220  0.73920  0.29590  1.0000
  C   C128      1.0  0.62780  0.26080  0.70410  1.0000
  H   H73       1.0  0.46160  0.74640  0.31610  1.0000
  H   H74       1.0  0.53840  0.25360  0.68390  1.0000
  C   C129      1.0  0.62060  0.80470  0.40770  1.0000
  C   C130      1.0  0.37940  0.19530  0.59230  1.0000
  C   C131      1.0  0.24340  0.68220  0.22550  1.0000
  C   C132      1.0  0.75660  0.31780  0.77450  1.0000
  H   H75       1.0  0.24010  0.64970  0.19470  1.0000
  H   H76       1.0  0.75990  0.35030  0.80530  1.0000
