data_image0
_chemical_formula_structural       Cu2V4F14O4N8C2H2C2H2C2H2C2H2C2H2C2H2C2H2C2H2C2H2C2H2C2H2C2H2C2H2C2H2C2H2C2H2C2H2C2H2C2H2C2H2
_chemical_formula_sum              "Cu2 V4 F14 O4 N8 C40 H40"
_cell_length_a       8.981
_cell_length_b       13.533
_cell_length_c       13.545
_cell_angle_alpha    89.15
_cell_angle_beta     70.64
_cell_angle_gamma    74.19

_space_group_name_H-M_alt    "P 1"
_space_group_IT_number       1

loop_
  _space_group_symop_operation_xyz
  'x, y, z'

loop_
  _atom_site_type_symbol
  _atom_site_label
  _atom_site_symmetry_multiplicity
  _atom_site_fract_x
  _atom_site_fract_y
  _atom_site_fract_z
  _atom_site_occupancy
  Cu  Cu1       1.0  0.50000  0.00000  0.50000  1.0000
  Cu  Cu2       1.0  0.50000  0.50000  0.00000  1.0000
  V   V1        1.0  0.69474  0.72889  0.62544  1.0000
  V   V2        1.0  0.30526  0.27111  0.37456  1.0000
  V   V3        1.0  0.42514  0.63141  0.72743  1.0000
  V   V4        1.0  0.57486  0.36859  0.27257  1.0000
  F   F1        1.0  0.82640  0.67540  0.48580  1.0000
  F   F2        1.0  0.17360  0.32460  0.51420  1.0000
  F   F3        1.0  0.59750  0.85480  0.57570  1.0000
  F   F4        1.0  0.40250  0.14520  0.42430  1.0000
  F   F5        1.0  0.49460  0.75560  0.75560  1.0000
  F   F6        1.0  0.50540  0.24440  0.24440  1.0000
  F   F7        1.0  0.70640  0.58860  0.66570  1.0000
  F   F8        1.0  0.29360  0.41140  0.33430  1.0000
  F   F9        1.0  0.49550  0.67520  0.58600  1.0000
  F   F10       1.0  0.50450  0.32480  0.41400  1.0000
  F   F11       1.0  0.44470  0.49800  0.67130  1.0000
  F   F12       1.0  0.55530  0.50200  0.32870  1.0000
  F   F13       1.0  0.46060  0.57320  0.85090  1.0000
  F   F14       1.0  0.53940  0.42680  0.14910  1.0000
  O   O1        1.0  0.81710  0.76100  0.67310  1.0000
  O   O2        1.0  0.18290  0.23900  0.32690  1.0000
  O   O3        1.0  0.23050  0.68350  0.76800  1.0000
  O   O4        1.0  0.76950  0.31650  0.23200  1.0000
  N   N1        1.0  0.51940  0.91120  0.37220  1.0000
  N   N2        1.0  0.48060  0.08880  0.62780  1.0000
  N   N3        1.0  0.73600  0.00900  0.42900  1.0000
  N   N4        1.0  0.26400  0.99100  0.57100  1.0000
  N   N5        1.0  0.68400  0.38030  0.90840  1.0000
  N   N6        1.0  0.31600  0.61970  0.09160  1.0000
  N   N7        1.0  0.67170  0.57580  0.99200  1.0000
  N   N8        1.0  0.32830  0.42420  0.00800  1.0000
  C   C1        1.0  0.52560  0.81070  0.37730  1.0000
  C   C2        1.0  0.47440  0.18930  0.62270  1.0000
  H   H1        1.0  0.53560  0.77870  0.43700  1.0000
  H   H2        1.0  0.46440  0.22130  0.56300  1.0000
  C   C3        1.0  0.51760  0.75400  0.29620  1.0000
  C   C4        1.0  0.48240  0.24600  0.70380  1.0000
  H   H3        1.0  0.51750  0.68550  0.30270  1.0000
  H   H4        1.0  0.48250  0.31450  0.69730  1.0000
  C   C5        1.0  0.50990  0.79860  0.20740  1.0000
  C   C6        1.0  0.49010  0.20140  0.79260  1.0000
  H   H5        1.0  0.50580  0.76070  0.15200  1.0000
  H   H6        1.0  0.49420  0.23930  0.84800  1.0000
  C   C7        1.0  0.50810  0.90160  0.19920  1.0000
  C   C8        1.0  0.49190  0.09840  0.80080  1.0000
  H   H7        1.0  0.50170  0.93410  0.13920  1.0000
  H   H8        1.0  0.49830  0.06590  0.86080  1.0000
  C   C9        1.0  0.51610  0.95410  0.28360  1.0000
  C   C10       1.0  0.48390  0.04590  0.71640  1.0000
  H   H9        1.0  0.51940  0.02210  0.27800  1.0000
  H   H10       1.0  0.48060  0.97790  0.72200  1.0000
  C   C11       1.0  0.86560  0.93100  0.43080  1.0000
  C   C12       1.0  0.13440  0.06900  0.56920  1.0000
  H   H11       1.0  0.84780  0.87100  0.46040  1.0000
  H   H12       1.0  0.15220  0.12900  0.53960  1.0000
  C   C13       1.0  0.02700  0.93880  0.38880  1.0000
  C   C14       1.0  0.97300  0.06120  0.61120  1.0000
  H   H13       1.0  0.11450  0.88560  0.39360  1.0000
  H   H14       1.0  0.88550  0.11440  0.60640  1.0000
  C   C15       1.0  0.05560  0.02580  0.34040  1.0000
  C   C16       1.0  0.94440  0.97420  0.65960  1.0000
  H   H15       1.0  0.16220  0.03040  0.30880  1.0000
  H   H16       1.0  0.83780  0.96960  0.69120  1.0000
  C   C17       1.0  0.92210  0.10540  0.34020  1.0000
  C   C18       1.0  0.07790  0.89460  0.65980  1.0000
  H   H17       1.0  0.93630  0.16630  0.31110  1.0000
  H   H18       1.0  0.06370  0.83370  0.68890  1.0000
  C   C19       1.0  0.76780  0.09290  0.38380  1.0000
  C   C20       1.0  0.23220  0.90710  0.61620  1.0000
  H   H19       1.0  0.67890  0.14660  0.38170  1.0000
  H   H20       1.0  0.32110  0.85340  0.61830  1.0000
  C   C21       1.0  0.73830  0.29250  0.95000  1.0000
  C   C22       1.0  0.26170  0.70750  0.05000  1.0000
  H   H21       1.0  0.67950  0.28270  0.01840  1.0000
  H   H22       1.0  0.32050  0.71730  0.98160  1.0000
  C   C23       1.0  0.87740  0.21760  0.89460  1.0000
  C   C24       1.0  0.12260  0.78240  0.10540  1.0000
  H   H23       1.0  0.91320  0.15730  0.92440  1.0000
  H   H24       1.0  0.08680  0.84270  0.07560  1.0000
  C   C25       1.0  0.96730  0.23380  0.78920  1.0000
  C   C26       1.0  0.03270  0.76620  0.21080  1.0000
  H   H25       1.0  0.06700  0.18660  0.75160  1.0000
  H   H26       1.0  0.93300  0.81340  0.24840  1.0000
  C   C27       1.0  0.90840  0.31480  0.74710  1.0000
  C   C28       1.0  0.09160  0.68520  0.25290  1.0000
  H   H27       1.0  0.96070  0.32290  0.67690  1.0000
  H   H28       1.0  0.03930  0.67710  0.32310  1.0000
  C   C29       1.0  0.76870  0.38870  0.80580  1.0000
  C   C30       1.0  0.23130  0.61130  0.19420  1.0000
  H   H29       1.0  0.73000  0.44710  0.77430  1.0000
  H   H30       1.0  0.27000  0.55290  0.22570  1.0000
  C   C31       1.0  0.74530  0.56710  0.06320  1.0000
  C   C32       1.0  0.25470  0.43290  0.93680  1.0000
  H   H31       1.0  0.71470  0.52820  0.11970  1.0000
  H   H32       1.0  0.28530  0.47180  0.88030  1.0000
  C   C33       1.0  0.86760  0.61490  0.05520  1.0000
  C   C34       1.0  0.13240  0.38510  0.94480  1.0000
  H   H33       1.0  0.91820  0.60660  0.10580  1.0000
  H   H34       1.0  0.08180  0.39340  0.89420  1.0000
  C   C35       1.0  0.91400  0.67370  0.97400  1.0000
  C   C36       1.0  0.08600  0.32630  0.02600  1.0000
  H   H35       1.0  0.99410  0.70690  0.96870  1.0000
  H   H36       1.0  0.00590  0.29310  0.03130  1.0000
  C   C37       1.0  0.83790  0.68140  0.90170  1.0000
  C   C38       1.0  0.16210  0.31860  0.09830  1.0000
  H   H37       1.0  0.86740  0.72020  0.84490  1.0000
  H   H38       1.0  0.13260  0.27980  0.15510  1.0000
  C   C39       1.0  0.71940  0.63370  0.91040  1.0000
  C   C40       1.0  0.28060  0.36630  0.08960  1.0000
  H   H39       1.0  0.66960  0.64080  0.85950  1.0000
  H   H40       1.0  0.33040  0.35920  0.14050  1.0000
