data_image0
_chemical_formula_structural       Fe2O12Na2O12C12H12
_chemical_formula_sum              "Fe2 O24 Na2 C12 H12"
_cell_length_a       8.2617
_cell_length_b       9.0797
_cell_length_c       12.293
_cell_angle_alpha    95.37
_cell_angle_beta     90.43
_cell_angle_gamma    89.91

_space_group_name_H-M_alt    "P 1"
_space_group_IT_number       1

loop_
  _space_group_symop_operation_xyz
  'x, y, z'

loop_
  _atom_site_type_symbol
  _atom_site_label
  _atom_site_symmetry_multiplicity
  _atom_site_fract_x
  _atom_site_fract_y
  _atom_site_fract_z
  _atom_site_occupancy
  Fe  Fe1       1.0  0.26415  0.25420  0.25218  1.0000
  Fe  Fe2       1.0  0.73585  0.74580  0.74782  1.0000
  O   O1        1.0  0.35110  0.45400  0.19879  1.0000
  O   O2        1.0  0.64890  0.54600  0.80121  1.0000
  O   O3        1.0  0.14690  0.24140  0.10989  1.0000
  O   O4        1.0  0.85310  0.75860  0.89011  1.0000
  O   O5        1.0  0.37570  0.25780  0.39789  1.0000
  O   O6        1.0  0.62430  0.74220  0.60211  1.0000
  O   O7        1.0  0.06540  0.34570  0.31012  1.0000
  O   O8        1.0  0.93460  0.65430  0.68988  1.0000
  O   O9        1.0  0.18080  0.05020  0.30612  1.0000
  O   O10       1.0  0.81920  0.94980  0.69388  1.0000
  O   O11       1.0  0.46460  0.16290  0.19170  1.0000
  O   O12       1.0  0.53540  0.83710  0.80830  1.0000
  Na  Na1       1.0  0.76474  0.75443  0.24933  1.0000
  Na  Na2       1.0  0.23526  0.24557  0.75067  1.0000
  O   O13       1.0  0.87450  0.51920  0.30850  1.0000
  O   O14       1.0  0.12550  0.48080  0.69150  1.0000
  O   O15       1.0  0.66490  0.99800  0.19150  1.0000
  O   O16       1.0  0.33510  0.00200  0.80850  1.0000
  O   O17       1.0  0.00540  0.86690  0.31670  1.0000
  O   O18       1.0  0.99460  0.13310  0.68330  1.0000
  O   O19       1.0  0.53430  0.63270  0.18600  1.0000
  O   O20       1.0  0.46570  0.36730  0.81400  1.0000
  O   O21       1.0  0.37710  0.22780  0.57972  1.0000
  O   O22       1.0  0.62290  0.77220  0.42028  1.0000
  O   O23       1.0  0.12110  0.24180  0.93110  1.0000
  O   O24       1.0  0.87890  0.75820  0.06890  1.0000
  C   C1        1.0  0.20060  0.25950  0.01260  1.0000
  C   C2        1.0  0.79940  0.74050  0.98740  1.0000
  C   C3        1.0  0.04590  0.99360  0.28500  1.0000
  C   C4        1.0  0.95410  0.00640  0.71500  1.0000
  C   C5        1.0  0.99460  0.46240  0.27110  1.0000
  C   C6        1.0  0.00540  0.53760  0.72890  1.0000
  C   C7        1.0  0.48870  0.51030  0.21990  1.0000
  C   C8        1.0  0.51130  0.48970  0.78010  1.0000
  C   C9        1.0  0.53810  0.04800  0.22800  1.0000
  C   C10       1.0  0.46190  0.95200  0.77200  1.0000
  C   C11       1.0  0.30850  0.24080  0.49170  1.0000
  C   C12       1.0  0.69150  0.75920  0.50830  1.0000
  H   H1        1.0  0.29470  0.30110  0.99860  1.0000
  H   H2        1.0  0.70530  0.69890  0.00140  1.0000
  H   H3        1.0  0.97280  0.04070  0.25320  1.0000
  H   H4        1.0  0.02720  0.95930  0.74680  1.0000
  H   H5        1.0  0.03220  0.49870  0.20160  1.0000
  H   H6        1.0  0.96780  0.50130  0.79840  1.0000
  H   H7        1.0  0.55200  0.44820  0.26240  1.0000
  H   H8        1.0  0.44800  0.55180  0.73760  1.0000
  H   H9        1.0  0.49860  0.99950  0.27640  1.0000
  H   H10       1.0  0.50140  0.00050  0.72360  1.0000
  H   H11       1.0  0.22150  0.23460  0.49130  1.0000
  H   H12       1.0  0.77850  0.76540  0.50870  1.0000
