data_image0
_chemical_formula_structural       Gd4Zn4N16C8H4C4H4C16H4C4H4C16H4C4H4C16H4C4H4C16H4C8H4C4H4C4H4C4O8C8H4C4H4C8H4C4H4C4O8C8H4C8H4C4H4C4H4C4O8C8H4C4H4C8H4C4H4C4O8C2H2O4C2H2O4
_chemical_formula_sum              "Gd4 Zn4 N16 C196 H100 O40"
_cell_length_a       17.903
_cell_length_b       16.7851
_cell_length_c       21.149
_cell_angle_alpha    90
_cell_angle_beta     96.467
_cell_angle_gamma    90

_space_group_name_H-M_alt    "P 1"
_space_group_IT_number       1

loop_
  _space_group_symop_operation_xyz
  'x, y, z'

loop_
  _atom_site_type_symbol
  _atom_site_label
  _atom_site_symmetry_multiplicity
  _atom_site_fract_x
  _atom_site_fract_y
  _atom_site_fract_z
  _atom_site_occupancy
  Gd  Gd1       1.0  0.72052  0.94285  0.08634  1.0000
  Gd  Gd2       1.0  0.77948  0.94285  0.41366  1.0000
  Gd  Gd3       1.0  0.27948  0.05715  0.91366  1.0000
  Gd  Gd4       1.0  0.22052  0.05715  0.58634  1.0000
  Zn  Zn1       1.0  0.41359  0.50360  0.29163  1.0000
  Zn  Zn2       1.0  0.08641  0.50360  0.20837  1.0000
  Zn  Zn3       1.0  0.58641  0.49640  0.70837  1.0000
  Zn  Zn4       1.0  0.91359  0.49640  0.79163  1.0000
  N   N1        1.0  0.47230  0.48850  0.21360  1.0000
  N   N2        1.0  0.02770  0.48850  0.28640  1.0000
  N   N3        1.0  0.52770  0.51150  0.78640  1.0000
  N   N4        1.0  0.97230  0.51150  0.71360  1.0000
  N   N5        1.0  0.40280  0.62350  0.26870  1.0000
  N   N6        1.0  0.09720  0.62350  0.23130  1.0000
  N   N7        1.0  0.59720  0.37650  0.73130  1.0000
  N   N8        1.0  0.90280  0.37650  0.76870  1.0000
  N   N9        1.0  0.38670  0.53050  0.38180  1.0000
  N   N10       1.0  0.11330  0.53050  0.11820  1.0000
  N   N11       1.0  0.61330  0.46950  0.61820  1.0000
  N   N12       1.0  0.88670  0.46950  0.88180  1.0000
  N   N13       1.0  0.45740  0.39730  0.32640  1.0000
  N   N14       1.0  0.04260  0.39730  0.17360  1.0000
  N   N15       1.0  0.54260  0.60270  0.67360  1.0000
  N   N16       1.0  0.95740  0.60270  0.82640  1.0000
  C   C1        1.0  0.50070  0.41900  0.19490  1.0000
  C   C2        1.0  0.99930  0.41900  0.30510  1.0000
  C   C3        1.0  0.49930  0.58100  0.80510  1.0000
  C   C4        1.0  0.00070  0.58100  0.69490  1.0000
  C   C5        1.0  0.52430  0.42920  0.13200  1.0000
  C   C6        1.0  0.97570  0.42920  0.36800  1.0000
  C   C7        1.0  0.47570  0.57080  0.86800  1.0000
  C   C8        1.0  0.02430  0.57080  0.63200  1.0000
  H   H1        1.0  0.54754  0.39008  0.10831  1.0000
  H   H2        1.0  0.95246  0.39008  0.39169  1.0000
  H   H3        1.0  0.45246  0.60992  0.89169  1.0000
  H   H4        1.0  0.04754  0.60992  0.60831  1.0000
  C   C9        1.0  0.50710  0.50410  0.11360  1.0000
  C   C10       1.0  0.99290  0.50410  0.38640  1.0000
  C   C11       1.0  0.49290  0.49590  0.88640  1.0000
  C   C12       1.0  0.00710  0.49590  0.61360  1.0000
  H   H5        1.0  0.51400  0.52809  0.07405  1.0000
  H   H6        1.0  0.98600  0.52809  0.42595  1.0000
  H   H7        1.0  0.48600  0.47191  0.92595  1.0000
  H   H8        1.0  0.01400  0.47191  0.57405  1.0000
  C   C13       1.0  0.47670  0.53950  0.16520  1.0000
  C   C14       1.0  0.02330  0.53950  0.33480  1.0000
  C   C15       1.0  0.52330  0.46050  0.83480  1.0000
  C   C16       1.0  0.97670  0.46050  0.66520  1.0000
  C   C17       1.0  0.45220  0.62270  0.16550  1.0000
  C   C18       1.0  0.04780  0.62270  0.33450  1.0000
  C   C19       1.0  0.54780  0.37730  0.83450  1.0000
  C   C20       1.0  0.95220  0.37730  0.66550  1.0000
  C   C21       1.0  0.42260  0.65950  0.21610  1.0000
  C   C22       1.0  0.07740  0.65950  0.28390  1.0000
  C   C23       1.0  0.57740  0.34050  0.78390  1.0000
  C   C24       1.0  0.92260  0.34050  0.71610  1.0000
  C   C25       1.0  0.40370  0.74350  0.21590  1.0000
  C   C26       1.0  0.09630  0.74350  0.28410  1.0000
  C   C27       1.0  0.59630  0.25650  0.78410  1.0000
  C   C28       1.0  0.90370  0.25650  0.71590  1.0000
  H   H9        1.0  0.40912  0.78097  0.18303  1.0000
  H   H10       1.0  0.09088  0.78097  0.31697  1.0000
  H   H11       1.0  0.59088  0.21903  0.81697  1.0000
  H   H12       1.0  0.90912  0.21903  0.68303  1.0000
  C   C29       1.0  0.37680  0.75740  0.27160  1.0000
  C   C30       1.0  0.12320  0.75740  0.22840  1.0000
  C   C31       1.0  0.62320  0.24260  0.72840  1.0000
  C   C32       1.0  0.87680  0.24260  0.77160  1.0000
  H   H13       1.0  0.36077  0.80730  0.28645  1.0000
  H   H14       1.0  0.13923  0.80730  0.21355  1.0000
  H   H15       1.0  0.63923  0.19270  0.71355  1.0000
  H   H16       1.0  0.86077  0.19270  0.78645  1.0000
  C   C33       1.0  0.37690  0.68220  0.30490  1.0000
  C   C34       1.0  0.12310  0.68220  0.19510  1.0000
  C   C35       1.0  0.62310  0.31780  0.69510  1.0000
  C   C36       1.0  0.87690  0.31780  0.80490  1.0000
  C   C37       1.0  0.35060  0.67230  0.36550  1.0000
  C   C38       1.0  0.14940  0.67230  0.13450  1.0000
  C   C39       1.0  0.64940  0.32770  0.63450  1.0000
  C   C40       1.0  0.85060  0.32770  0.86550  1.0000
  C   C41       1.0  0.35600  0.60090  0.40010  1.0000
  C   C42       1.0  0.14400  0.60090  0.09990  1.0000
  C   C43       1.0  0.64400  0.39910  0.59990  1.0000
  C   C44       1.0  0.85600  0.39910  0.90010  1.0000
  C   C45       1.0  0.33250  0.59190  0.46270  1.0000
  C   C46       1.0  0.16750  0.59190  0.03730  1.0000
  C   C47       1.0  0.66750  0.40810  0.53730  1.0000
  C   C48       1.0  0.83250  0.40810  0.96270  1.0000
  H   H17       1.0  0.30923  0.63109  0.48621  1.0000
  H   H18       1.0  0.19077  0.63109  0.01379  1.0000
  H   H19       1.0  0.69077  0.36891  0.51379  1.0000
  H   H20       1.0  0.80923  0.36891  0.98621  1.0000
  C   C49       1.0  0.35050  0.51550  0.48140  1.0000
  C   C50       1.0  0.14950  0.51550  0.01860  1.0000
  C   C51       1.0  0.64950  0.48450  0.51860  1.0000
  C   C52       1.0  0.85050  0.48450  0.98140  1.0000
  H   H21       1.0  0.34141  0.49127  0.52043  1.0000
  H   H22       1.0  0.15859  0.49127  0.97957  1.0000
  H   H23       1.0  0.65859  0.50873  0.47957  1.0000
  H   H24       1.0  0.84141  0.50873  0.02043  1.0000
  C   C53       1.0  0.38540  0.47910  0.43130  1.0000
  C   C54       1.0  0.11460  0.47910  0.06870  1.0000
  C   C55       1.0  0.61460  0.52090  0.56870  1.0000
  C   C56       1.0  0.88540  0.52090  0.93130  1.0000
  C   C57       1.0  0.41540  0.40140  0.43290  1.0000
  C   C58       1.0  0.08460  0.40140  0.06710  1.0000
  C   C59       1.0  0.58460  0.59860  0.56710  1.0000
  C   C60       1.0  0.91540  0.59860  0.93290  1.0000
  C   C61       1.0  0.45170  0.36540  0.38510  1.0000
  C   C62       1.0  0.04830  0.36540  0.11490  1.0000
  C   C63       1.0  0.54830  0.63460  0.61490  1.0000
  C   C64       1.0  0.95170  0.63460  0.88510  1.0000
  C   C65       1.0  0.48400  0.28530  0.38860  1.0000
  C   C66       1.0  0.01600  0.28530  0.11140  1.0000
  C   C67       1.0  0.51600  0.71470  0.61140  1.0000
  C   C68       1.0  0.98400  0.71470  0.88860  1.0000
  H   H25       1.0  0.48412  0.24981  0.42359  1.0000
  H   H26       1.0  0.01588  0.24981  0.07641  1.0000
  H   H27       1.0  0.51588  0.75019  0.57641  1.0000
  H   H28       1.0  0.98412  0.75019  0.92359  1.0000
  C   C69       1.0  0.51290  0.27040  0.33480  1.0000
  C   C70       1.0  0.98710  0.27040  0.16520  1.0000
  C   C71       1.0  0.48710  0.72960  0.66520  1.0000
  C   C72       1.0  0.01290  0.72960  0.83480  1.0000
  H   H29       1.0  0.54044  0.22472  0.32455  1.0000
  H   H30       1.0  0.95956  0.22472  0.17545  1.0000
  H   H31       1.0  0.45956  0.77528  0.67545  1.0000
  H   H32       1.0  0.04044  0.77528  0.82455  1.0000
  C   C73       1.0  0.49260  0.34210  0.29380  1.0000
  C   C74       1.0  0.00740  0.34210  0.20620  1.0000
  C   C75       1.0  0.50740  0.65790  0.70620  1.0000
  C   C76       1.0  0.99260  0.65790  0.79380  1.0000
  C   C77       1.0  0.51320  0.35280  0.23150  1.0000
  C   C78       1.0  0.98680  0.35280  0.26850  1.0000
  C   C79       1.0  0.48680  0.64720  0.76850  1.0000
  C   C80       1.0  0.01320  0.64720  0.73150  1.0000
  C   C81       1.0  0.46660  0.67130  0.10940  1.0000
  C   C82       1.0  0.03340  0.67130  0.39060  1.0000
  C   C83       1.0  0.53340  0.32870  0.89060  1.0000
  C   C84       1.0  0.96660  0.32870  0.60940  1.0000
  C   C85       1.0  0.52200  0.72250  0.11080  1.0000
  C   C86       1.0  0.97800  0.72250  0.38920  1.0000
  C   C87       1.0  0.47800  0.27750  0.88920  1.0000
  C   C88       1.0  0.02200  0.27750  0.61080  1.0000
  H   H33       1.0  0.55660  0.72539  0.14823  1.0000
  H   H34       1.0  0.94340  0.72539  0.35177  1.0000
  H   H35       1.0  0.44340  0.27461  0.85177  1.0000
  H   H36       1.0  0.05660  0.27461  0.64823  1.0000
  C   C89       1.0  0.53290  0.77370  0.05940  1.0000
  C   C90       1.0  0.96710  0.77370  0.44060  1.0000
  C   C91       1.0  0.46710  0.22630  0.94060  1.0000
  C   C92       1.0  0.03290  0.22630  0.55940  1.0000
  C   C93       1.0  0.48790  0.76870  0.00590  1.0000
  C   C94       1.0  0.01210  0.76870  0.49410  1.0000
  C   C95       1.0  0.51210  0.23130  0.99410  1.0000
  C   C96       1.0  0.98790  0.23130  0.50590  1.0000
  H   H37       1.0  0.49795  0.79931  0.97000  1.0000
  H   H38       1.0  0.00205  0.79931  0.53000  1.0000
  H   H39       1.0  0.50205  0.20069  0.03000  1.0000
  H   H40       1.0  0.99795  0.20069  0.47000  1.0000
  C   C97       1.0  0.42710  0.71980  0.00210  1.0000
  C   C98       1.0  0.07290  0.71980  0.49790  1.0000
  C   C99       1.0  0.57290  0.28020  0.99790  1.0000
  C   C100      1.0  0.92710  0.28020  0.50210  1.0000
  H   H41       1.0  0.39241  0.72106  0.96467  1.0000
  H   H42       1.0  0.10759  0.72106  0.53533  1.0000
  H   H43       1.0  0.60759  0.27894  0.03533  1.0000
  H   H44       1.0  0.89241  0.27894  0.46467  1.0000
  C   C101      1.0  0.41390  0.66800  0.05090  1.0000
  C   C102      1.0  0.08610  0.66800  0.44910  1.0000
  C   C103      1.0  0.58610  0.33200  0.94910  1.0000
  C   C104      1.0  0.91390  0.33200  0.55090  1.0000
  H   H45       1.0  0.37253  0.63219  0.04669  1.0000
  H   H46       1.0  0.12747  0.63219  0.45331  1.0000
  H   H47       1.0  0.62747  0.36781  0.95331  1.0000
  H   H48       1.0  0.87253  0.36781  0.54669  1.0000
  C   C105      1.0  0.60150  0.83000  0.06820  1.0000
  C   C106      1.0  0.89850  0.83000  0.43180  1.0000
  C   C107      1.0  0.39850  0.17000  0.93180  1.0000
  C   C108      1.0  0.10150  0.17000  0.56820  1.0000
  O   O1        1.0  0.61000  0.88150  0.02410  1.0000
  O   O2        1.0  0.89000  0.88150  0.47590  1.0000
  O   O3        1.0  0.39000  0.11850  0.97590  1.0000
  O   O4        1.0  0.11000  0.11850  0.52410  1.0000
  O   O5        1.0  0.64920  0.82850  0.11510  1.0000
  O   O6        1.0  0.85080  0.82850  0.38490  1.0000
  O   O7        1.0  0.35080  0.17150  0.88490  1.0000
  O   O8        1.0  0.14920  0.17150  0.61510  1.0000
  C   C109      1.0  0.32880  0.74210  0.39950  1.0000
  C   C110      1.0  0.17120  0.74210  0.10050  1.0000
  C   C111      1.0  0.67120  0.25790  0.60050  1.0000
  C   C112      1.0  0.82880  0.25790  0.89950  1.0000
  C   C113      1.0  0.37470  0.78310  0.44370  1.0000
  C   C114      1.0  0.12530  0.78310  0.05630  1.0000
  C   C115      1.0  0.62530  0.21690  0.55630  1.0000
  C   C116      1.0  0.87470  0.21690  0.94370  1.0000
  H   H49       1.0  0.42554  0.76576  0.44970  1.0000
  H   H50       1.0  0.07446  0.76576  0.05030  1.0000
  H   H51       1.0  0.57446  0.23424  0.55030  1.0000
  H   H52       1.0  0.92554  0.23424  0.94970  1.0000
  C   C117      1.0  0.35800  0.84450  0.48000  1.0000
  C   C118      1.0  0.14200  0.84450  0.02000  1.0000
  C   C119      1.0  0.64200  0.15550  0.52000  1.0000
  C   C120      1.0  0.85800  0.15550  0.98000  1.0000
  H   H53       1.0  0.39219  0.86195  0.51486  1.0000
  H   H54       1.0  0.10781  0.86195  0.98514  1.0000
  H   H55       1.0  0.60781  0.13805  0.48514  1.0000
  H   H56       1.0  0.89219  0.13805  0.01486  1.0000
  C   C121      1.0  0.29460  0.87880  0.46620  1.0000
  C   C122      1.0  0.20540  0.87880  0.03380  1.0000
  C   C123      1.0  0.70540  0.12120  0.53380  1.0000
  C   C124      1.0  0.79460  0.12120  0.96620  1.0000
  C   C125      1.0  0.24010  0.84710  0.42150  1.0000
  C   C126      1.0  0.25990  0.84710  0.07850  1.0000
  C   C127      1.0  0.75990  0.15290  0.57850  1.0000
  C   C128      1.0  0.74010  0.15290  0.92150  1.0000
  H   H57       1.0  0.19163  0.87034  0.41345  1.0000
  H   H58       1.0  0.30837  0.87034  0.08655  1.0000
  H   H59       1.0  0.80837  0.12966  0.58655  1.0000
  H   H60       1.0  0.69163  0.12966  0.91345  1.0000
  C   C129      1.0  0.26120  0.77470  0.38680  1.0000
  C   C130      1.0  0.23880  0.77470  0.11320  1.0000
  C   C131      1.0  0.73880  0.22530  0.61320  1.0000
  C   C132      1.0  0.76120  0.22530  0.88680  1.0000
  H   H61       1.0  0.22584  0.75161  0.35515  1.0000
  H   H62       1.0  0.27416  0.75161  0.14485  1.0000
  H   H63       1.0  0.77416  0.24839  0.64485  1.0000
  H   H64       1.0  0.72584  0.24839  0.85515  1.0000
  C   C133      1.0  0.26850  0.95490  0.50190  1.0000
  C   C134      1.0  0.23150  0.95490  0.99810  1.0000
  C   C135      1.0  0.73150  0.04510  0.49810  1.0000
  C   C136      1.0  0.76850  0.04510  0.00190  1.0000
  O   O9        1.0  0.20870  0.98330  0.48830  1.0000
  O   O10       1.0  0.29130  0.98330  0.01170  1.0000
  O   O11       1.0  0.79130  0.01670  0.51170  1.0000
  O   O12       1.0  0.70870  0.01670  0.98830  1.0000
  O   O13       1.0  0.32140  0.98390  0.54410  1.0000
  O   O14       1.0  0.17860  0.98390  0.95590  1.0000
  O   O15       1.0  0.67860  0.01610  0.45590  1.0000
  O   O16       1.0  0.82140  0.01610  0.04410  1.0000
  C   C137      1.0  0.41360  0.35740  0.49430  1.0000
  C   C138      1.0  0.08640  0.35740  0.00570  1.0000
  C   C139      1.0  0.58640  0.64260  0.50570  1.0000
  C   C140      1.0  0.91360  0.64260  0.99430  1.0000
  C   C141      1.0  0.36680  0.28930  0.49810  1.0000
  C   C142      1.0  0.13320  0.28930  0.00190  1.0000
  C   C143      1.0  0.63320  0.71070  0.50190  1.0000
  C   C144      1.0  0.86680  0.71070  0.99810  1.0000
  H   H65       1.0  0.33811  0.26867  0.46122  1.0000
  H   H66       1.0  0.16189  0.26867  0.03878  1.0000
  H   H67       1.0  0.66189  0.73133  0.53878  1.0000
  H   H68       1.0  0.83811  0.73133  0.96122  1.0000
  C   C145      1.0  0.36420  0.25320  0.55840  1.0000
  C   C146      1.0  0.13580  0.25320  0.94160  1.0000
  C   C147      1.0  0.63580  0.74680  0.44160  1.0000
  C   C148      1.0  0.86420  0.74680  0.05840  1.0000
  C   C149      1.0  0.40930  0.28290  0.61050  1.0000
  C   C150      1.0  0.09070  0.28290  0.88950  1.0000
  C   C151      1.0  0.59070  0.71710  0.38950  1.0000
  C   C152      1.0  0.90930  0.71710  0.11050  1.0000
  H   H69       1.0  0.40982  0.25783  0.65078  1.0000
  H   H70       1.0  0.09018  0.25783  0.84922  1.0000
  H   H71       1.0  0.59018  0.74217  0.34922  1.0000
  H   H72       1.0  0.90982  0.74217  0.15078  1.0000
  C   C153      1.0  0.45340  0.34850  0.60400  1.0000
  C   C154      1.0  0.04660  0.34850  0.89600  1.0000
  C   C155      1.0  0.54660  0.65150  0.39600  1.0000
  C   C156      1.0  0.95340  0.65150  0.10400  1.0000
  H   H73       1.0  0.48303  0.36860  0.64054  1.0000
  H   H74       1.0  0.01697  0.36860  0.85946  1.0000
  H   H75       1.0  0.51697  0.63140  0.35946  1.0000
  H   H76       1.0  0.98303  0.63140  0.14054  1.0000
  C   C157      1.0  0.45630  0.38490  0.54890  1.0000
  C   C158      1.0  0.04370  0.38490  0.95110  1.0000
  C   C159      1.0  0.54370  0.61510  0.45110  1.0000
  C   C160      1.0  0.95630  0.61510  0.04890  1.0000
  H   H77       1.0  0.48772  0.43021  0.54666  1.0000
  H   H78       1.0  0.01228  0.43021  0.95334  1.0000
  H   H79       1.0  0.51228  0.56979  0.45334  1.0000
  H   H80       1.0  0.98772  0.56979  0.04666  1.0000
  C   C161      1.0  0.31740  0.18380  0.56390  1.0000
  C   C162      1.0  0.18260  0.18380  0.93610  1.0000
  C   C163      1.0  0.68260  0.81620  0.43610  1.0000
  C   C164      1.0  0.81740  0.81620  0.06390  1.0000
  O   O17       1.0  0.27480  0.15860  0.51800  1.0000
  O   O18       1.0  0.22520  0.15860  0.98200  1.0000
  O   O19       1.0  0.72520  0.84140  0.48200  1.0000
  O   O20       1.0  0.77480  0.84140  0.01800  1.0000
  O   O21       1.0  0.32050  0.14830  0.61780  1.0000
  O   O22       1.0  0.17950  0.14830  0.88220  1.0000
  O   O23       1.0  0.67950  0.85170  0.38220  1.0000
  O   O24       1.0  0.82050  0.85170  0.11780  1.0000
  C   C165      1.0  0.54910  0.28000  0.20410  1.0000
  C   C166      1.0  0.95090  0.28000  0.29590  1.0000
  C   C167      1.0  0.45090  0.72000  0.79590  1.0000
  C   C168      1.0  0.04910  0.72000  0.70410  1.0000
  C   C169      1.0  0.50290  0.21360  0.18240  1.0000
  C   C170      1.0  0.99710  0.21360  0.31760  1.0000
  C   C171      1.0  0.49710  0.78640  0.81760  1.0000
  C   C172      1.0  0.00290  0.78640  0.68240  1.0000
  H   H81       1.0  0.45034  0.21457  0.18523  1.0000
  H   H82       1.0  0.04966  0.21457  0.31477  1.0000
  H   H83       1.0  0.54966  0.78543  0.81477  1.0000
  H   H84       1.0  0.95034  0.78543  0.68523  1.0000
  C   C173      1.0  0.53530  0.14920  0.15760  1.0000
  C   C174      1.0  0.96470  0.14920  0.34240  1.0000
  C   C175      1.0  0.46470  0.85080  0.84240  1.0000
  C   C176      1.0  0.03530  0.85080  0.65760  1.0000
  H   H85       1.0  0.50610  0.10434  0.14269  1.0000
  H   H86       1.0  0.99390  0.10434  0.35731  1.0000
  H   H87       1.0  0.49390  0.89566  0.85731  1.0000
  H   H88       1.0  0.00610  0.89566  0.64269  1.0000
  C   C177      1.0  0.61520  0.15120  0.15470  1.0000
  C   C178      1.0  0.88480  0.15120  0.34530  1.0000
  C   C179      1.0  0.38480  0.84880  0.84530  1.0000
  C   C180      1.0  0.11520  0.84880  0.65470  1.0000
  C   C181      1.0  0.65760  0.21370  0.17440  1.0000
  C   C182      1.0  0.84240  0.21370  0.32560  1.0000
  C   C183      1.0  0.34240  0.78630  0.82560  1.0000
  C   C184      1.0  0.15760  0.78630  0.67440  1.0000
  H   H89       1.0  0.71012  0.21324  0.17148  1.0000
  H   H90       1.0  0.78988  0.21324  0.32852  1.0000
  H   H91       1.0  0.28988  0.78676  0.82852  1.0000
  H   H92       1.0  0.21012  0.78676  0.67148  1.0000
  C   C185      1.0  0.62320  0.28100  0.19980  1.0000
  C   C186      1.0  0.87680  0.28100  0.30020  1.0000
  C   C187      1.0  0.37680  0.71900  0.80020  1.0000
  C   C188      1.0  0.12320  0.71900  0.69980  1.0000
  H   H93       1.0  0.65249  0.32621  0.21361  1.0000
  H   H94       1.0  0.84751  0.32621  0.28639  1.0000
  H   H95       1.0  0.34751  0.67379  0.78639  1.0000
  H   H96       1.0  0.15249  0.67379  0.71361  1.0000
  C   C189      1.0  0.65030  0.07790  0.12580  1.0000
  C   C190      1.0  0.84970  0.07790  0.37420  1.0000
  C   C191      1.0  0.34970  0.92210  0.87420  1.0000
  C   C192      1.0  0.15030  0.92210  0.62580  1.0000
  O   O25       1.0  0.61230  0.02200  0.10820  1.0000
  O   O26       1.0  0.88770  0.02200  0.39180  1.0000
  O   O27       1.0  0.38770  0.97800  0.89180  1.0000
  O   O28       1.0  0.11230  0.97800  0.60820  1.0000
  O   O29       1.0  0.72170  0.08140  0.12350  1.0000
  O   O30       1.0  0.77830  0.08140  0.37650  1.0000
  O   O31       1.0  0.27830  0.91860  0.87650  1.0000
  O   O32       1.0  0.22170  0.91860  0.62350  1.0000
  C   C193      1.0  0.75000  0.96690  0.25000  1.0000
  C   C194      1.0  0.25000  0.03310  0.75000  1.0000
  H   H97       1.0  0.75000  0.02348  0.25000  1.0000
  H   H98       1.0  0.25000  0.97652  0.75000  1.0000
  O   O33       1.0  0.73970  0.93770  0.19730  1.0000
  O   O34       1.0  0.76030  0.93770  0.30270  1.0000
  O   O35       1.0  0.26030  0.06230  0.80270  1.0000
  O   O36       1.0  0.23970  0.06230  0.69730  1.0000
  C   C195      1.0  0.25000  0.49090  0.25000  1.0000
  C   C196      1.0  0.75000  0.50910  0.75000  1.0000
  H   H99       1.0  0.25000  0.54751  0.25000  1.0000
  H   H100      1.0  0.75000  0.45249  0.75000  1.0000
  O   O37       1.0  0.31200  0.45480  0.25880  1.0000
  O   O38       1.0  0.18800  0.45480  0.24120  1.0000
  O   O39       1.0  0.68800  0.54520  0.74120  1.0000
  O   O40       1.0  0.81200  0.54520  0.75880  1.0000
