data_image0
_chemical_formula_structural       U4O32C4H8C8H8C8H16C4H4C12
_chemical_formula_sum              "U4 O32 C36 H36"
_cell_length_a       10.0413
_cell_length_b       15.5554
_cell_length_c       10.0309
_cell_angle_alpha    90
_cell_angle_beta     90
_cell_angle_gamma    90

_space_group_name_H-M_alt    "P 1"
_space_group_IT_number       1

loop_
  _space_group_symop_operation_xyz
  'x, y, z'

loop_
  _atom_site_type_symbol
  _atom_site_label
  _atom_site_symmetry_multiplicity
  _atom_site_fract_x
  _atom_site_fract_y
  _atom_site_fract_z
  _atom_site_occupancy
  U   U1        1.0  0.62714  0.15176  0.00000  1.0000
  U   U2        1.0  0.37286  0.84825  0.00000  1.0000
  U   U3        1.0  0.87286  0.65175  0.50000  1.0000
  U   U4        1.0  0.12714  0.34825  0.50000  1.0000
  O   O1        1.0  0.77190  0.21680  0.00000  1.0000
  O   O2        1.0  0.22810  0.78320  0.00000  1.0000
  O   O3        1.0  0.72810  0.71680  0.50000  1.0000
  O   O4        1.0  0.27190  0.28320  0.50000  1.0000
  O   O5        1.0  0.47720  0.09300  0.00000  1.0000
  O   O6        1.0  0.52280  0.90700  0.00000  1.0000
  O   O7        1.0  0.02280  0.59300  0.50000  1.0000
  O   O8        1.0  0.97720  0.40700  0.50000  1.0000
  O   O9        1.0  0.63220  0.16150  0.24420  1.0000
  O   O10       1.0  0.36780  0.83850  0.24420  1.0000
  O   O11       1.0  0.86780  0.66150  0.25580  1.0000
  O   O12       1.0  0.13220  0.33850  0.25580  1.0000
  O   O13       1.0  0.36780  0.83850  0.75580  1.0000
  O   O14       1.0  0.63220  0.16150  0.75580  1.0000
  O   O15       1.0  0.13220  0.33850  0.74420  1.0000
  O   O16       1.0  0.86780  0.66150  0.74420  1.0000
  O   O17       1.0  0.52660  0.26470  0.14060  1.0000
  O   O18       1.0  0.47340  0.73530  0.14060  1.0000
  O   O19       1.0  0.97340  0.76470  0.35940  1.0000
  O   O20       1.0  0.02660  0.23530  0.35940  1.0000
  O   O21       1.0  0.47340  0.73530  0.85940  1.0000
  O   O22       1.0  0.52660  0.26470  0.85940  1.0000
  O   O23       1.0  0.02660  0.23530  0.64060  1.0000
  O   O24       1.0  0.97340  0.76470  0.64060  1.0000
  O   O25       1.0  0.75160  0.53200  0.39160  1.0000
  O   O26       1.0  0.24840  0.46800  0.39160  1.0000
  O   O27       1.0  0.74840  0.03200  0.10840  1.0000
  O   O28       1.0  0.25160  0.96800  0.10840  1.0000
  O   O29       1.0  0.24840  0.46800  0.60840  1.0000
  O   O30       1.0  0.75160  0.53200  0.60840  1.0000
  O   O31       1.0  0.25160  0.96800  0.89160  1.0000
  O   O32       1.0  0.74840  0.03200  0.89160  1.0000
  C   C1        1.0  0.58180  0.22920  0.50000  1.0000
  C   C2        1.0  0.41820  0.77080  0.50000  1.0000
  C   C3        1.0  0.91820  0.72920  0.00000  1.0000
  C   C4        1.0  0.08180  0.27080  0.00000  1.0000
  H   H1        1.0  0.67220  0.20380  0.50000  1.0000
  H   H2        1.0  0.32780  0.79620  0.50000  1.0000
  H   H3        1.0  0.82780  0.70380  0.00000  1.0000
  H   H4        1.0  0.17220  0.29620  0.00000  1.0000
  H   H5        1.0  0.51630  0.18160  0.50000  1.0000
  H   H6        1.0  0.48370  0.81840  0.50000  1.0000
  H   H7        1.0  0.98370  0.68160  0.00000  1.0000
  H   H8        1.0  0.01630  0.31840  0.00000  1.0000
  C   C5        1.0  0.56310  0.28390  0.37530  1.0000
  C   C6        1.0  0.43690  0.71610  0.37530  1.0000
  C   C7        1.0  0.93690  0.78390  0.12470  1.0000
  C   C8        1.0  0.06310  0.21610  0.12470  1.0000
  C   C9        1.0  0.43690  0.71610  0.62470  1.0000
  C   C10       1.0  0.56310  0.28390  0.62470  1.0000
  C   C11       1.0  0.06310  0.21610  0.87530  1.0000
  C   C12       1.0  0.93690  0.78390  0.87530  1.0000
  H   H9        1.0  0.47130  0.30870  0.37890  1.0000
  H   H10       1.0  0.52870  0.69130  0.37890  1.0000
  H   H11       1.0  0.02870  0.80870  0.12110  1.0000
  H   H12       1.0  0.97130  0.19130  0.12110  1.0000
  H   H13       1.0  0.52870  0.69130  0.62110  1.0000
  H   H14       1.0  0.47130  0.30870  0.62110  1.0000
  H   H15       1.0  0.97130  0.19130  0.87890  1.0000
  H   H16       1.0  0.02870  0.80870  0.87890  1.0000
  C   C13       1.0  0.66170  0.35970  0.37420  1.0000
  C   C14       1.0  0.33830  0.64030  0.37420  1.0000
  C   C15       1.0  0.83830  0.85970  0.12580  1.0000
  C   C16       1.0  0.16170  0.14030  0.12580  1.0000
  C   C17       1.0  0.33830  0.64030  0.62580  1.0000
  C   C18       1.0  0.66170  0.35970  0.62580  1.0000
  C   C19       1.0  0.16170  0.14030  0.87420  1.0000
  C   C20       1.0  0.83830  0.85970  0.87420  1.0000
  H   H17       1.0  0.75410  0.33770  0.37080  1.0000
  H   H18       1.0  0.24590  0.66230  0.37080  1.0000
  H   H19       1.0  0.74590  0.83770  0.12920  1.0000
  H   H20       1.0  0.25410  0.16230  0.12920  1.0000
  H   H21       1.0  0.24590  0.66230  0.62920  1.0000
  H   H22       1.0  0.75410  0.33770  0.62920  1.0000
  H   H23       1.0  0.25410  0.16230  0.87080  1.0000
  H   H24       1.0  0.74590  0.83770  0.87080  1.0000
  H   H25       1.0  0.64630  0.39570  0.29430  1.0000
  H   H26       1.0  0.35370  0.60430  0.29430  1.0000
  H   H27       1.0  0.85370  0.89570  0.20570  1.0000
  H   H28       1.0  0.14630  0.10430  0.20570  1.0000
  H   H29       1.0  0.35370  0.60430  0.70570  1.0000
  H   H30       1.0  0.64630  0.39570  0.70570  1.0000
  H   H31       1.0  0.14630  0.10430  0.79430  1.0000
  H   H32       1.0  0.85370  0.89570  0.79430  1.0000
  C   C21       1.0  0.64190  0.41350  0.50000  1.0000
  C   C22       1.0  0.35810  0.58650  0.50000  1.0000
  C   C23       1.0  0.85810  0.91350  0.00000  1.0000
  C   C24       1.0  0.14190  0.08650  0.00000  1.0000
  H   H33       1.0  0.54590  0.43060  0.50000  1.0000
  H   H34       1.0  0.45410  0.56940  0.50000  1.0000
  H   H35       1.0  0.95410  0.93060  0.00000  1.0000
  H   H36       1.0  0.04590  0.06940  0.00000  1.0000
  C   C25       1.0  0.57430  0.23410  0.24790  1.0000
  C   C26       1.0  0.42570  0.76590  0.24790  1.0000
  C   C27       1.0  0.92570  0.73410  0.25210  1.0000
  C   C28       1.0  0.07430  0.26590  0.25210  1.0000
  C   C29       1.0  0.42570  0.76590  0.75210  1.0000
  C   C30       1.0  0.57430  0.23410  0.75210  1.0000
  C   C31       1.0  0.07430  0.26590  0.74790  1.0000
  C   C32       1.0  0.92570  0.73410  0.74790  1.0000
  C   C33       1.0  0.72010  0.49700  0.50000  1.0000
  C   C34       1.0  0.27990  0.50300  0.50000  1.0000
  C   C35       1.0  0.77990  0.99700  0.00000  1.0000
  C   C36       1.0  0.22010  0.00300  0.00000  1.0000
