data_image0
_chemical_formula_structural       U4O32C28H8C8H4C8H24C4H16C8H4C4H8C12O8H8O16U4O8U4O32C4H8C8H8C8H16C4H4C12
_chemical_formula_sum              "U12 O96 C108 H108"
_cell_length_a       31.0331
_cell_length_b       10.0992
_cell_length_c       16.5477
_cell_angle_alpha    90
_cell_angle_beta     90
_cell_angle_gamma    90

_space_group_name_H-M_alt    "P 1"
_space_group_IT_number       1

loop_
  _space_group_symop_operation_xyz
  'x, y, z'

loop_
  _atom_site_type_symbol
  _atom_site_label
  _atom_site_symmetry_multiplicity
  _atom_site_fract_x
  _atom_site_fract_y
  _atom_site_fract_z
  _atom_site_occupancy
  U   U1        1.0  0.38955  0.75000  0.31243  1.0000
  U   U2        1.0  0.11045  0.25000  0.81243  1.0000
  U   U3        1.0  0.61045  0.25000  0.68757  1.0000
  U   U4        1.0  0.88955  0.75000  0.18757  1.0000
  O   O1        1.0  0.44330  0.75000  0.35010  1.0000
  O   O2        1.0  0.05670  0.25000  0.85010  1.0000
  O   O3        1.0  0.55670  0.25000  0.64990  1.0000
  O   O4        1.0  0.94330  0.75000  0.14990  1.0000
  O   O5        1.0  0.33550  0.75000  0.27800  1.0000
  O   O6        1.0  0.16450  0.25000  0.77800  1.0000
  O   O7        1.0  0.66450  0.25000  0.72200  1.0000
  O   O8        1.0  0.83550  0.75000  0.22200  1.0000
  O   O9        1.0  0.36700  0.89020  0.42640  1.0000
  O   O10       1.0  0.13300  0.10980  0.92640  1.0000
  O   O11       1.0  0.63300  0.39020  0.57360  1.0000
  O   O12       1.0  0.86700  0.60980  0.07360  1.0000
  O   O13       1.0  0.63300  0.10980  0.57360  1.0000
  O   O14       1.0  0.86700  0.89020  0.07360  1.0000
  O   O15       1.0  0.36700  0.60980  0.42640  1.0000
  O   O16       1.0  0.13300  0.39020  0.92640  1.0000
  O   O17       1.0  0.39078  0.99580  0.32140  1.0000
  O   O18       1.0  0.10922  0.00420  0.82140  1.0000
  O   O19       1.0  0.60922  0.49580  0.67860  1.0000
  O   O20       1.0  0.89078  0.50420  0.17860  1.0000
  O   O21       1.0  0.60922  0.00420  0.67860  1.0000
  O   O22       1.0  0.89078  0.99580  0.17860  1.0000
  O   O23       1.0  0.39078  0.50420  0.32140  1.0000
  O   O24       1.0  0.10922  0.49580  0.82140  1.0000
  O   O25       1.0  0.41314  0.85820  0.18680  1.0000
  O   O26       1.0  0.08686  0.14180  0.68680  1.0000
  O   O27       1.0  0.58686  0.35820  0.81320  1.0000
  O   O28       1.0  0.91314  0.64180  0.31320  1.0000
  O   O29       1.0  0.58686  0.14180  0.81320  1.0000
  O   O30       1.0  0.91314  0.85820  0.31320  1.0000
  O   O31       1.0  0.41314  0.64180  0.18680  1.0000
  O   O32       1.0  0.08686  0.35820  0.68680  1.0000
  C   C1        1.0  0.37660  0.99870  0.39220  1.0000
  C   C2        1.0  0.12340  0.00130  0.89220  1.0000
  C   C3        1.0  0.62340  0.49870  0.60780  1.0000
  C   C4        1.0  0.87660  0.50130  0.10780  1.0000
  C   C5        1.0  0.62340  0.00130  0.60780  1.0000
  C   C6        1.0  0.87660  0.99870  0.10780  1.0000
  C   C7        1.0  0.37660  0.50130  0.39220  1.0000
  C   C8        1.0  0.12340  0.49870  0.89220  1.0000
  C   C9        1.0  0.42120  0.75000  0.15100  1.0000
  C   C10       1.0  0.07880  0.25000  0.65100  1.0000
  C   C11       1.0  0.57880  0.25000  0.84900  1.0000
  C   C12       1.0  0.92120  0.75000  0.34900  1.0000
  C   C13       1.0  0.36830  0.12740  0.43560  1.0000
  C   C14       1.0  0.13170  0.87260  0.93560  1.0000
  C   C15       1.0  0.63170  0.62740  0.56440  1.0000
  C   C16       1.0  0.86830  0.37260  0.06440  1.0000
  C   C17       1.0  0.63170  0.87260  0.56440  1.0000
  C   C18       1.0  0.86830  0.12740  0.06440  1.0000
  C   C19       1.0  0.36830  0.37260  0.43560  1.0000
  C   C20       1.0  0.13170  0.62740  0.93560  1.0000
  C   C21       1.0  0.44190  0.75000  0.06660  1.0000
  C   C22       1.0  0.05810  0.25000  0.56660  1.0000
  C   C23       1.0  0.55810  0.25000  0.93340  1.0000
  C   C24       1.0  0.94190  0.75000  0.43340  1.0000
  C   C25       1.0  0.38120  0.25000  0.38890  1.0000
  C   C26       1.0  0.11880  0.75000  0.88890  1.0000
  C   C27       1.0  0.61880  0.75000  0.61110  1.0000
  C   C28       1.0  0.88120  0.25000  0.11110  1.0000
  H   H1        1.0  0.33640  0.13310  0.44310  1.0000
  H   H2        1.0  0.16360  0.86690  0.94310  1.0000
  H   H3        1.0  0.66360  0.63310  0.55690  1.0000
  H   H4        1.0  0.83640  0.36690  0.05690  1.0000
  H   H5        1.0  0.66360  0.86690  0.55690  1.0000
  H   H6        1.0  0.83640  0.13310  0.05690  1.0000
  H   H7        1.0  0.33640  0.36690  0.44310  1.0000
  H   H8        1.0  0.16360  0.63310  0.94310  1.0000
  C   C29       1.0  0.38780  0.12420  0.52040  1.0000
  C   C30       1.0  0.11220  0.87580  0.02040  1.0000
  C   C31       1.0  0.61220  0.62420  0.47960  1.0000
  C   C32       1.0  0.88780  0.37580  0.97960  1.0000
  C   C33       1.0  0.61220  0.87580  0.47960  1.0000
  C   C34       1.0  0.88780  0.12420  0.97960  1.0000
  C   C35       1.0  0.38780  0.37580  0.52040  1.0000
  C   C36       1.0  0.11220  0.62420  0.02040  1.0000
  H   H9        1.0  0.47380  0.75000  0.07520  1.0000
  H   H10       1.0  0.02620  0.25000  0.57520  1.0000
  H   H11       1.0  0.52620  0.25000  0.92480  1.0000
  H   H12       1.0  0.97380  0.75000  0.42480  1.0000
  C   C37       1.0  0.43150  0.87560  0.02060  1.0000
  C   C38       1.0  0.06850  0.12440  0.52060  1.0000
  C   C39       1.0  0.56850  0.37560  0.97940  1.0000
  C   C40       1.0  0.93150  0.62440  0.47940  1.0000
  C   C41       1.0  0.56850  0.12440  0.97940  1.0000
  C   C42       1.0  0.93150  0.87560  0.47940  1.0000
  C   C43       1.0  0.43150  0.62440  0.02060  1.0000
  C   C44       1.0  0.06850  0.37560  0.52060  1.0000
  H   H13       1.0  0.41280  0.25000  0.38010  1.0000
  H   H14       1.0  0.08720  0.75000  0.88010  1.0000
  H   H15       1.0  0.58720  0.75000  0.61990  1.0000
  H   H16       1.0  0.91280  0.25000  0.11990  1.0000
  H   H17       1.0  0.36690  0.25000  0.33550  1.0000
  H   H18       1.0  0.13310  0.75000  0.83550  1.0000
  H   H19       1.0  0.63310  0.75000  0.66450  1.0000
  H   H20       1.0  0.86690  0.25000  0.16450  1.0000
  H   H21       1.0  0.37590  0.04750  0.55030  1.0000
  H   H22       1.0  0.12410  0.95250  0.05030  1.0000
  H   H23       1.0  0.62410  0.54750  0.44970  1.0000
  H   H24       1.0  0.87590  0.45250  0.94970  1.0000
  H   H25       1.0  0.62410  0.95250  0.44970  1.0000
  H   H26       1.0  0.87590  0.04750  0.94970  1.0000
  H   H27       1.0  0.37590  0.45250  0.55030  1.0000
  H   H28       1.0  0.12410  0.54750  0.05030  1.0000
  H   H29       1.0  0.41940  0.11220  0.51620  1.0000
  H   H30       1.0  0.08060  0.88780  0.01620  1.0000
  H   H31       1.0  0.58060  0.61220  0.48380  1.0000
  H   H32       1.0  0.91940  0.38780  0.98380  1.0000
  H   H33       1.0  0.58060  0.88780  0.48380  1.0000
  H   H34       1.0  0.91940  0.11220  0.98380  1.0000
  H   H35       1.0  0.41940  0.38780  0.51620  1.0000
  H   H36       1.0  0.08060  0.61220  0.01620  1.0000
  C   C45       1.0  0.37840  0.25000  0.56720  1.0000
  C   C46       1.0  0.12160  0.75000  0.06720  1.0000
  C   C47       1.0  0.62160  0.75000  0.43280  1.0000
  C   C48       1.0  0.87840  0.25000  0.93280  1.0000
  H   H37       1.0  0.44060  0.95360  0.05250  1.0000
  H   H38       1.0  0.05940  0.04640  0.55250  1.0000
  H   H39       1.0  0.55940  0.45360  0.94750  1.0000
  H   H40       1.0  0.94060  0.54640  0.44750  1.0000
  H   H41       1.0  0.55940  0.04640  0.94750  1.0000
  H   H42       1.0  0.94060  0.95360  0.44750  1.0000
  H   H43       1.0  0.44060  0.54640  0.05250  1.0000
  H   H44       1.0  0.05940  0.45360  0.55250  1.0000
  H   H45       1.0  0.40010  0.88170  0.01130  1.0000
  H   H46       1.0  0.09990  0.11830  0.51130  1.0000
  H   H47       1.0  0.59990  0.38170  0.98870  1.0000
  H   H48       1.0  0.90010  0.61830  0.48870  1.0000
  H   H49       1.0  0.59990  0.11830  0.98870  1.0000
  H   H50       1.0  0.90010  0.88170  0.48870  1.0000
  H   H51       1.0  0.40010  0.61830  0.01130  1.0000
  H   H52       1.0  0.09990  0.38170  0.51130  1.0000
  C   C49       1.0  0.45570  0.87410  0.93810  1.0000
  C   C50       1.0  0.04430  0.12590  0.43810  1.0000
  C   C51       1.0  0.54430  0.37410  0.06190  1.0000
  C   C52       1.0  0.95570  0.62590  0.56190  1.0000
  C   C53       1.0  0.54430  0.12590  0.06190  1.0000
  C   C54       1.0  0.95570  0.87410  0.56190  1.0000
  C   C55       1.0  0.45570  0.62590  0.93810  1.0000
  C   C56       1.0  0.04430  0.37410  0.43810  1.0000
  H   H53       1.0  0.34640  0.25000  0.57490  1.0000
  H   H54       1.0  0.15360  0.75000  0.07490  1.0000
  H   H55       1.0  0.65360  0.75000  0.42510  1.0000
  H   H56       1.0  0.84640  0.25000  0.92510  1.0000
  C   C57       1.0  0.39670  0.25000  0.65170  1.0000
  C   C58       1.0  0.10330  0.75000  0.15170  1.0000
  C   C59       1.0  0.60330  0.75000  0.34830  1.0000
  C   C60       1.0  0.89670  0.25000  0.84830  1.0000
  H   H57       1.0  0.48730  0.87140  0.94990  1.0000
  H   H58       1.0  0.01270  0.12860  0.44990  1.0000
  H   H59       1.0  0.51270  0.37140  0.05010  1.0000
  H   H60       1.0  0.98730  0.62860  0.55010  1.0000
  H   H61       1.0  0.51270  0.12860  0.05010  1.0000
  H   H62       1.0  0.98730  0.87140  0.55010  1.0000
  H   H63       1.0  0.48730  0.62860  0.94990  1.0000
  H   H64       1.0  0.01270  0.37140  0.44990  1.0000
  C   C61       1.0  0.44470  0.75000  0.88980  1.0000
  C   C62       1.0  0.05530  0.25000  0.38980  1.0000
  C   C63       1.0  0.55530  0.25000  0.11020  1.0000
  C   C64       1.0  0.94470  0.75000  0.61020  1.0000
  C   C65       1.0  0.44660  0.00240  0.89440  1.0000
  C   C66       1.0  0.05340  0.99760  0.39440  1.0000
  C   C67       1.0  0.55340  0.50240  0.10560  1.0000
  C   C68       1.0  0.94660  0.49760  0.60560  1.0000
  C   C69       1.0  0.55340  0.99760  0.10560  1.0000
  C   C70       1.0  0.94660  0.00240  0.60560  1.0000
  C   C71       1.0  0.44660  0.49760  0.89440  1.0000
  C   C72       1.0  0.05340  0.50240  0.39440  1.0000
  O   O33       1.0  0.40370  0.14300  0.68940  1.0000
  O   O34       1.0  0.09630  0.85700  0.18940  1.0000
  O   O35       1.0  0.59630  0.64300  0.31060  1.0000
  O   O36       1.0  0.90370  0.35700  0.81060  1.0000
  O   O37       1.0  0.59630  0.85700  0.31060  1.0000
  O   O38       1.0  0.90370  0.14300  0.81060  1.0000
  O   O39       1.0  0.40370  0.35700  0.68940  1.0000
  O   O40       1.0  0.09630  0.64300  0.18940  1.0000
  H   H65       1.0  0.46110  0.75000  0.83850  1.0000
  H   H66       1.0  0.03890  0.25000  0.33850  1.0000
  H   H67       1.0  0.53890  0.25000  0.16150  1.0000
  H   H68       1.0  0.96110  0.75000  0.66150  1.0000
  H   H69       1.0  0.41360  0.75000  0.87650  1.0000
  H   H70       1.0  0.08640  0.25000  0.37650  1.0000
  H   H71       1.0  0.58640  0.25000  0.12350  1.0000
  H   H72       1.0  0.91360  0.75000  0.62350  1.0000
  O   O41       1.0  0.45776  0.11200  0.92610  1.0000
  O   O42       1.0  0.04224  0.88800  0.42610  1.0000
  O   O43       1.0  0.54224  0.61200  0.07390  1.0000
  O   O44       1.0  0.95776  0.38800  0.57390  1.0000
  O   O45       1.0  0.54224  0.88800  0.07390  1.0000
  O   O46       1.0  0.95776  0.11200  0.57390  1.0000
  O   O47       1.0  0.45776  0.38800  0.92610  1.0000
  O   O48       1.0  0.04224  0.61200  0.42610  1.0000
  O   O49       1.0  0.42793  0.00520  0.82630  1.0000
  O   O50       1.0  0.07207  0.99480  0.32630  1.0000
  O   O51       1.0  0.57207  0.50520  0.17370  1.0000
  O   O52       1.0  0.92793  0.49480  0.67370  1.0000
  O   O53       1.0  0.57207  0.99480  0.17370  1.0000
  O   O54       1.0  0.92793  0.00520  0.67370  1.0000
  O   O55       1.0  0.42793  0.49480  0.82630  1.0000
  O   O56       1.0  0.07207  0.50520  0.32630  1.0000
  U   U5        1.0  0.43182  0.25000  0.81385  1.0000
  U   U6        1.0  0.06818  0.75000  0.31385  1.0000
  U   U7        1.0  0.56818  0.75000  0.18615  1.0000
  U   U8        1.0  0.93182  0.25000  0.68615  1.0000
  O   O57       1.0  0.48440  0.25000  0.77200  1.0000
  O   O58       1.0  0.01560  0.75000  0.27200  1.0000
  O   O59       1.0  0.51560  0.75000  0.22800  1.0000
  O   O60       1.0  0.98440  0.25000  0.72800  1.0000
  O   O61       1.0  0.37920  0.25000  0.85520  1.0000
  O   O62       1.0  0.12080  0.75000  0.35520  1.0000
  O   O63       1.0  0.62080  0.75000  0.14480  1.0000
  O   O64       1.0  0.87920  0.25000  0.64480  1.0000
  U   U9        1.0  0.22346  0.25000  0.55462  1.0000
  U   U10       1.0  0.27654  0.75000  0.05462  1.0000
  U   U11       1.0  0.77654  0.75000  0.44538  1.0000
  U   U12       1.0  0.72346  0.25000  0.94538  1.0000
  O   O65       1.0  0.16940  0.25000  0.58500  1.0000
  O   O66       1.0  0.33060  0.75000  0.08500  1.0000
  O   O67       1.0  0.83060  0.75000  0.41500  1.0000
  O   O68       1.0  0.66940  0.25000  0.91500  1.0000
  O   O69       1.0  0.27720  0.25000  0.52080  1.0000
  O   O70       1.0  0.22280  0.75000  0.02080  1.0000
  O   O71       1.0  0.72280  0.75000  0.47920  1.0000
  O   O72       1.0  0.77720  0.25000  0.97920  1.0000
  O   O73       1.0  0.23029  0.49310  0.54180  1.0000
  O   O74       1.0  0.26971  0.50690  0.04180  1.0000
  O   O75       1.0  0.76971  0.99310  0.45820  1.0000
  O   O76       1.0  0.73029  0.00690  0.95820  1.0000
  O   O77       1.0  0.76971  0.50690  0.45820  1.0000
  O   O78       1.0  0.73029  0.49310  0.95820  1.0000
  O   O79       1.0  0.23029  0.00690  0.54180  1.0000
  O   O80       1.0  0.26971  0.99310  0.04180  1.0000
  O   O81       1.0  0.20207  0.39070  0.43830  1.0000
  O   O82       1.0  0.29793  0.60930  0.93830  1.0000
  O   O83       1.0  0.79793  0.89070  0.56170  1.0000
  O   O84       1.0  0.70207  0.10930  0.06170  1.0000
  O   O85       1.0  0.79793  0.60930  0.56170  1.0000
  O   O86       1.0  0.70207  0.39070  0.06170  1.0000
  O   O87       1.0  0.20207  0.10930  0.43830  1.0000
  O   O88       1.0  0.29793  0.89070  0.93830  1.0000
  O   O89       1.0  0.25362  0.64240  0.18100  1.0000
  O   O90       1.0  0.24638  0.35760  0.68100  1.0000
  O   O91       1.0  0.74638  0.14240  0.81900  1.0000
  O   O92       1.0  0.75362  0.85760  0.31900  1.0000
  O   O93       1.0  0.74638  0.35760  0.81900  1.0000
  O   O94       1.0  0.75362  0.64240  0.31900  1.0000
  O   O95       1.0  0.25362  0.85760  0.18100  1.0000
  O   O96       1.0  0.24638  0.14240  0.68100  1.0000
  C   C73       1.0  0.21780  0.75000  0.47780  1.0000
  C   C74       1.0  0.28220  0.25000  0.97780  1.0000
  C   C75       1.0  0.78220  0.25000  0.52220  1.0000
  C   C76       1.0  0.71780  0.75000  0.02220  1.0000
  H   H73       1.0  0.24800  0.75000  0.49670  1.0000
  H   H74       1.0  0.25200  0.25000  0.99670  1.0000
  H   H75       1.0  0.75200  0.25000  0.50330  1.0000
  H   H76       1.0  0.74800  0.75000  0.00330  1.0000
  H   H77       1.0  0.19870  0.75000  0.52590  1.0000
  H   H78       1.0  0.30130  0.25000  0.02590  1.0000
  H   H79       1.0  0.80130  0.25000  0.47410  1.0000
  H   H80       1.0  0.69870  0.75000  0.97410  1.0000
  C   C77       1.0  0.20910  0.62640  0.42660  1.0000
  C   C78       1.0  0.29090  0.37360  0.92660  1.0000
  C   C79       1.0  0.79090  0.12640  0.57340  1.0000
  C   C80       1.0  0.70910  0.87360  0.07340  1.0000
  C   C81       1.0  0.79090  0.37360  0.57340  1.0000
  C   C82       1.0  0.70910  0.62640  0.07340  1.0000
  C   C83       1.0  0.20910  0.87360  0.42660  1.0000
  C   C84       1.0  0.29090  0.12640  0.92660  1.0000
  H   H81       1.0  0.17810  0.63090  0.41040  1.0000
  H   H82       1.0  0.32190  0.36910  0.91040  1.0000
  H   H83       1.0  0.82190  0.13090  0.58960  1.0000
  H   H84       1.0  0.67810  0.86910  0.08960  1.0000
  H   H85       1.0  0.82190  0.36910  0.58960  1.0000
  H   H86       1.0  0.67810  0.63090  0.08960  1.0000
  H   H87       1.0  0.17810  0.86910  0.41040  1.0000
  H   H88       1.0  0.32190  0.13090  0.91040  1.0000
  C   C85       1.0  0.23520  0.62510  0.34760  1.0000
  C   C86       1.0  0.26480  0.37490  0.84760  1.0000
  C   C87       1.0  0.76480  0.12510  0.65240  1.0000
  C   C88       1.0  0.73520  0.87490  0.15240  1.0000
  C   C89       1.0  0.76480  0.37490  0.65240  1.0000
  C   C90       1.0  0.73520  0.62510  0.15240  1.0000
  C   C91       1.0  0.23520  0.87490  0.34760  1.0000
  C   C92       1.0  0.26480  0.12510  0.84760  1.0000
  H   H89       1.0  0.26630  0.61960  0.36020  1.0000
  H   H90       1.0  0.23370  0.38040  0.86020  1.0000
  H   H91       1.0  0.73370  0.11960  0.63980  1.0000
  H   H92       1.0  0.76630  0.88040  0.13980  1.0000
  H   H93       1.0  0.73370  0.38040  0.63980  1.0000
  H   H94       1.0  0.76630  0.61960  0.13980  1.0000
  H   H95       1.0  0.26630  0.88040  0.36020  1.0000
  H   H96       1.0  0.23370  0.11960  0.86020  1.0000
  H   H97       1.0  0.22730  0.54610  0.31540  1.0000
  H   H98       1.0  0.27270  0.45390  0.81540  1.0000
  H   H99       1.0  0.77270  0.04610  0.68460  1.0000
  H   H100      1.0  0.72730  0.95390  0.18460  1.0000
  H   H101      1.0  0.77270  0.45390  0.68460  1.0000
  H   H102      1.0  0.72730  0.54610  0.18460  1.0000
  H   H103      1.0  0.22730  0.95390  0.31540  1.0000
  H   H104      1.0  0.27270  0.04610  0.81540  1.0000
  C   C93       1.0  0.22630  0.75000  0.29850  1.0000
  C   C94       1.0  0.27370  0.25000  0.79850  1.0000
  C   C95       1.0  0.77370  0.25000  0.70150  1.0000
  C   C96       1.0  0.72630  0.75000  0.20150  1.0000
  H   H105      1.0  0.19460  0.75000  0.28810  1.0000
  H   H106      1.0  0.30540  0.25000  0.78810  1.0000
  H   H107      1.0  0.80540  0.25000  0.71190  1.0000
  H   H108      1.0  0.69460  0.75000  0.21190  1.0000
  C   C97       1.0  0.21440  0.49930  0.47190  1.0000
  C   C98       1.0  0.28560  0.50070  0.97190  1.0000
  C   C99       1.0  0.78560  0.99930  0.52810  1.0000
  C   C100      1.0  0.71440  0.00070  0.02810  1.0000
  C   C101      1.0  0.78560  0.50070  0.52810  1.0000
  C   C102      1.0  0.71440  0.49930  0.02810  1.0000
  C   C103      1.0  0.21440  0.00070  0.47190  1.0000
  C   C104      1.0  0.28560  0.99930  0.97190  1.0000
  C   C105      1.0  0.24680  0.75000  0.21810  1.0000
  C   C106      1.0  0.25320  0.25000  0.71810  1.0000
  C   C107      1.0  0.75320  0.25000  0.78190  1.0000
  C   C108      1.0  0.74680  0.75000  0.28190  1.0000
