data_image0
_chemical_formula_structural       U4O32C4H8C8H8C8H16C4H4C12
_chemical_formula_sum              "U4 O32 C36 H36"
_cell_length_a       10.1436
_cell_length_b       15.6398
_cell_length_c       10.0394
_cell_angle_alpha    90
_cell_angle_beta     90
_cell_angle_gamma    90

_space_group_name_H-M_alt    "P 1"
_space_group_IT_number       1

loop_
  _space_group_symop_operation_xyz
  'x, y, z'

loop_
  _atom_site_type_symbol
  _atom_site_label
  _atom_site_symmetry_multiplicity
  _atom_site_fract_x
  _atom_site_fract_y
  _atom_site_fract_z
  _atom_site_occupancy
  U   U1        1.0  0.63037  0.15079  0.00000  1.0000
  U   U2        1.0  0.36963  0.84921  0.00000  1.0000
  U   U3        1.0  0.86963  0.65079  0.50000  1.0000
  U   U4        1.0  0.13037  0.34921  0.50000  1.0000
  O   O1        1.0  0.77750  0.20940  0.00000  1.0000
  O   O2        1.0  0.22250  0.79060  0.00000  1.0000
  O   O3        1.0  0.72250  0.70940  0.50000  1.0000
  O   O4        1.0  0.27750  0.29060  0.50000  1.0000
  O   O5        1.0  0.47970  0.09710  0.00000  1.0000
  O   O6        1.0  0.52030  0.90290  0.00000  1.0000
  O   O7        1.0  0.02030  0.59710  0.50000  1.0000
  O   O8        1.0  0.97970  0.40290  0.50000  1.0000
  O   O9        1.0  0.63380  0.16060  0.24460  1.0000
  O   O10       1.0  0.36620  0.83940  0.24460  1.0000
  O   O11       1.0  0.86620  0.66060  0.25540  1.0000
  O   O12       1.0  0.13380  0.33940  0.25540  1.0000
  O   O13       1.0  0.36620  0.83940  0.75540  1.0000
  O   O14       1.0  0.63380  0.16060  0.75540  1.0000
  O   O15       1.0  0.13380  0.33940  0.74460  1.0000
  O   O16       1.0  0.86620  0.66060  0.74460  1.0000
  O   O17       1.0  0.53750  0.26560  0.14000  1.0000
  O   O18       1.0  0.46250  0.73440  0.14000  1.0000
  O   O19       1.0  0.96250  0.76560  0.36000  1.0000
  O   O20       1.0  0.03750  0.23440  0.36000  1.0000
  O   O21       1.0  0.46250  0.73440  0.86000  1.0000
  O   O22       1.0  0.53750  0.26560  0.86000  1.0000
  O   O23       1.0  0.03750  0.23440  0.64000  1.0000
  O   O24       1.0  0.96250  0.76560  0.64000  1.0000
  O   O25       1.0  0.75720  0.52920  0.39230  1.0000
  O   O26       1.0  0.24280  0.47080  0.39230  1.0000
  O   O27       1.0  0.74280  0.02920  0.10770  1.0000
  O   O28       1.0  0.25720  0.97080  0.10770  1.0000
  O   O29       1.0  0.24280  0.47080  0.60770  1.0000
  O   O30       1.0  0.75720  0.52920  0.60770  1.0000
  O   O31       1.0  0.25720  0.97080  0.89230  1.0000
  O   O32       1.0  0.74280  0.02920  0.89230  1.0000
  C   C1        1.0  0.58820  0.22900  0.50000  1.0000
  C   C2        1.0  0.41180  0.77100  0.50000  1.0000
  C   C3        1.0  0.91180  0.72900  0.00000  1.0000
  C   C4        1.0  0.08820  0.27100  0.00000  1.0000
  H   H1        1.0  0.67850  0.20490  0.50000  1.0000
  H   H2        1.0  0.32150  0.79510  0.50000  1.0000
  H   H3        1.0  0.82150  0.70490  0.00000  1.0000
  H   H4        1.0  0.17850  0.29510  0.00000  1.0000
  H   H5        1.0  0.52480  0.18090  0.50000  1.0000
  H   H6        1.0  0.47520  0.81910  0.50000  1.0000
  H   H7        1.0  0.97520  0.68090  0.00000  1.0000
  H   H8        1.0  0.02480  0.31910  0.00000  1.0000
  C   C5        1.0  0.56820  0.28280  0.37640  1.0000
  C   C6        1.0  0.43180  0.71720  0.37640  1.0000
  C   C7        1.0  0.93180  0.78280  0.12360  1.0000
  C   C8        1.0  0.06820  0.21720  0.12360  1.0000
  C   C9        1.0  0.43180  0.71720  0.62360  1.0000
  C   C10       1.0  0.56820  0.28280  0.62360  1.0000
  C   C11       1.0  0.06820  0.21720  0.87640  1.0000
  C   C12       1.0  0.93180  0.78280  0.87640  1.0000
  H   H9        1.0  0.47690  0.30660  0.38030  1.0000
  H   H10       1.0  0.52310  0.69340  0.38030  1.0000
  H   H11       1.0  0.02310  0.80660  0.11970  1.0000
  H   H12       1.0  0.97690  0.19340  0.11970  1.0000
  H   H13       1.0  0.52310  0.69340  0.61970  1.0000
  H   H14       1.0  0.47690  0.30660  0.61970  1.0000
  H   H15       1.0  0.97690  0.19340  0.88030  1.0000
  H   H16       1.0  0.02310  0.80660  0.88030  1.0000
  C   C13       1.0  0.66480  0.35930  0.37400  1.0000
  C   C14       1.0  0.33520  0.64070  0.37400  1.0000
  C   C15       1.0  0.83520  0.85930  0.12600  1.0000
  C   C16       1.0  0.16480  0.14070  0.12600  1.0000
  C   C17       1.0  0.33520  0.64070  0.62600  1.0000
  C   C18       1.0  0.66480  0.35930  0.62600  1.0000
  C   C19       1.0  0.16480  0.14070  0.87400  1.0000
  C   C20       1.0  0.83520  0.85930  0.87400  1.0000
  H   H17       1.0  0.75670  0.33820  0.36860  1.0000
  H   H18       1.0  0.24330  0.66180  0.36860  1.0000
  H   H19       1.0  0.74330  0.83820  0.13140  1.0000
  H   H20       1.0  0.25670  0.16180  0.13140  1.0000
  H   H21       1.0  0.24330  0.66180  0.63140  1.0000
  H   H22       1.0  0.75670  0.33820  0.63140  1.0000
  H   H23       1.0  0.25670  0.16180  0.86860  1.0000
  H   H24       1.0  0.74330  0.83820  0.86860  1.0000
  H   H25       1.0  0.64750  0.39530  0.29480  1.0000
  H   H26       1.0  0.35250  0.60470  0.29480  1.0000
  H   H27       1.0  0.85250  0.89530  0.20520  1.0000
  H   H28       1.0  0.14750  0.10470  0.20520  1.0000
  H   H29       1.0  0.35250  0.60470  0.70520  1.0000
  H   H30       1.0  0.64750  0.39530  0.70520  1.0000
  H   H31       1.0  0.14750  0.10470  0.79480  1.0000
  H   H32       1.0  0.85250  0.89530  0.79480  1.0000
  C   C21       1.0  0.64680  0.41190  0.50000  1.0000
  C   C22       1.0  0.35320  0.58810  0.50000  1.0000
  C   C23       1.0  0.85320  0.91190  0.00000  1.0000
  C   C24       1.0  0.14680  0.08810  0.00000  1.0000
  H   H33       1.0  0.55230  0.43010  0.50000  1.0000
  H   H34       1.0  0.44770  0.56990  0.50000  1.0000
  H   H35       1.0  0.94770  0.93010  0.00000  1.0000
  H   H36       1.0  0.05230  0.06990  0.00000  1.0000
  C   C25       1.0  0.58010  0.23350  0.24800  1.0000
  C   C26       1.0  0.41990  0.76650  0.24800  1.0000
  C   C27       1.0  0.91990  0.73350  0.25200  1.0000
  C   C28       1.0  0.08010  0.26650  0.25200  1.0000
  C   C29       1.0  0.41990  0.76650  0.75200  1.0000
  C   C30       1.0  0.58010  0.23350  0.75200  1.0000
  C   C31       1.0  0.08010  0.26650  0.74800  1.0000
  C   C32       1.0  0.91990  0.73350  0.74800  1.0000
  C   C33       1.0  0.72670  0.49450  0.50000  1.0000
  C   C34       1.0  0.27330  0.50550  0.50000  1.0000
  C   C35       1.0  0.77330  0.99450  0.00000  1.0000
  C   C36       1.0  0.22670  0.00550  0.00000  1.0000
