data_image0
_chemical_formula_structural       Ho4O32C16H8C8H8C16H8C8H8C16H8C8H8C16H8C8H8C16
_chemical_formula_sum              "Ho4 O32 C112 H64"
_cell_length_a       27.663
_cell_length_b       11.692
_cell_length_c       7.726
_cell_angle_alpha    90
_cell_angle_beta     90
_cell_angle_gamma    90

_space_group_name_H-M_alt    "P 1"
_space_group_IT_number       1

loop_
  _space_group_symop_operation_xyz
  'x, y, z'

loop_
  _atom_site_type_symbol
  _atom_site_label
  _atom_site_symmetry_multiplicity
  _atom_site_fract_x
  _atom_site_fract_y
  _atom_site_fract_z
  _atom_site_occupancy
  Ho  Ho1       1.0  0.00000  0.33624  0.25000  1.0000
  Ho  Ho2       1.0  0.50000  0.16376  0.75000  1.0000
  Ho  Ho3       1.0  0.00000  0.66376  0.75000  1.0000
  Ho  Ho4       1.0  0.50000  0.83624  0.25000  1.0000
  O   O1        1.0  0.05298  0.25180  0.03610  1.0000
  O   O2        1.0  0.44702  0.24820  0.53610  1.0000
  O   O3        1.0  0.94702  0.25180  0.46390  1.0000
  O   O4        1.0  0.55298  0.24820  0.96390  1.0000
  O   O5        1.0  0.94702  0.74820  0.96390  1.0000
  O   O6        1.0  0.55298  0.75180  0.46390  1.0000
  O   O7        1.0  0.05298  0.74820  0.53610  1.0000
  O   O8        1.0  0.44702  0.75180  0.03610  1.0000
  O   O9        1.0  0.05526  0.17110  0.29370  1.0000
  O   O10       1.0  0.44474  0.32890  0.79370  1.0000
  O   O11       1.0  0.94474  0.17110  0.20630  1.0000
  O   O12       1.0  0.55526  0.32890  0.70630  1.0000
  O   O13       1.0  0.94474  0.82890  0.70630  1.0000
  O   O14       1.0  0.55526  0.67110  0.20630  1.0000
  O   O15       1.0  0.05526  0.82890  0.79370  1.0000
  O   O16       1.0  0.44474  0.67110  0.29370  1.0000
  O   O17       1.0  0.44945  0.97799  0.17440  1.0000
  O   O18       1.0  0.05055  0.52201  0.67440  1.0000
  O   O19       1.0  0.55055  0.97799  0.32560  1.0000
  O   O20       1.0  0.94945  0.52201  0.82560  1.0000
  O   O21       1.0  0.55055  0.02201  0.82560  1.0000
  O   O22       1.0  0.94945  0.47799  0.32560  1.0000
  O   O23       1.0  0.44945  0.02201  0.67440  1.0000
  O   O24       1.0  0.05055  0.47799  0.17440  1.0000
  O   O25       1.0  0.46061  0.13203  0.00910  1.0000
  O   O26       1.0  0.03939  0.36797  0.50910  1.0000
  O   O27       1.0  0.53939  0.13203  0.49090  1.0000
  O   O28       1.0  0.96061  0.36797  0.99090  1.0000
  O   O29       1.0  0.53939  0.86797  0.99090  1.0000
  O   O30       1.0  0.96061  0.63203  0.49090  1.0000
  O   O31       1.0  0.46061  0.86797  0.50910  1.0000
  O   O32       1.0  0.03939  0.63203  0.00910  1.0000
  C   C1        1.0  0.12636  0.15880  0.11930  1.0000
  C   C2        1.0  0.37364  0.34120  0.61930  1.0000
  C   C3        1.0  0.87364  0.15880  0.38070  1.0000
  C   C4        1.0  0.62636  0.34120  0.88070  1.0000
  C   C5        1.0  0.87364  0.84120  0.88070  1.0000
  C   C6        1.0  0.62636  0.65880  0.38070  1.0000
  C   C7        1.0  0.12636  0.84120  0.61930  1.0000
  C   C8        1.0  0.37364  0.65880  0.11930  1.0000
  C   C9        1.0  0.15272  0.21140  0.98690  1.0000
  C   C10       1.0  0.34728  0.28860  0.48690  1.0000
  C   C11       1.0  0.84728  0.21140  0.51310  1.0000
  C   C12       1.0  0.65272  0.28860  0.01310  1.0000
  C   C13       1.0  0.84728  0.78860  0.01310  1.0000
  C   C14       1.0  0.65272  0.71140  0.51310  1.0000
  C   C15       1.0  0.15272  0.78860  0.48690  1.0000
  C   C16       1.0  0.34728  0.71140  0.98690  1.0000
  H   H1        1.0  0.13680  0.25970  0.90610  1.0000
  H   H2        1.0  0.36320  0.24030  0.40610  1.0000
  H   H3        1.0  0.86320  0.25970  0.59390  1.0000
  H   H4        1.0  0.63680  0.24030  0.09390  1.0000
  H   H5        1.0  0.86320  0.74030  0.09390  1.0000
  H   H6        1.0  0.63680  0.75970  0.59390  1.0000
  H   H7        1.0  0.13680  0.74030  0.40610  1.0000
  H   H8        1.0  0.36320  0.75970  0.90610  1.0000
  C   C17       1.0  0.20207  0.19320  0.97320  1.0000
  C   C18       1.0  0.29793  0.30680  0.47320  1.0000
  C   C19       1.0  0.79793  0.19320  0.52680  1.0000
  C   C20       1.0  0.70207  0.30680  0.02680  1.0000
  C   C21       1.0  0.79793  0.80680  0.02680  1.0000
  C   C22       1.0  0.70207  0.69320  0.52680  1.0000
  C   C23       1.0  0.20207  0.80680  0.47320  1.0000
  C   C24       1.0  0.29793  0.69320  0.97320  1.0000
  H   H9        1.0  0.21980  0.23000  0.88400  1.0000
  H   H10       1.0  0.28020  0.27000  0.38400  1.0000
  H   H11       1.0  0.78020  0.23000  0.61600  1.0000
  H   H12       1.0  0.71980  0.27000  0.11600  1.0000
  H   H13       1.0  0.78020  0.77000  0.11600  1.0000
  H   H14       1.0  0.71980  0.73000  0.61600  1.0000
  H   H15       1.0  0.21980  0.77000  0.38400  1.0000
  H   H16       1.0  0.28020  0.73000  0.88400  1.0000
  C   C25       1.0  0.22608  0.12090  0.09000  1.0000
  C   C26       1.0  0.27392  0.37910  0.59000  1.0000
  C   C27       1.0  0.77392  0.12090  0.41000  1.0000
  C   C28       1.0  0.72608  0.37910  0.91000  1.0000
  C   C29       1.0  0.77392  0.87910  0.91000  1.0000
  C   C30       1.0  0.72608  0.62090  0.41000  1.0000
  C   C31       1.0  0.22608  0.87910  0.59000  1.0000
  C   C32       1.0  0.27392  0.62090  0.09000  1.0000
  C   C33       1.0  0.19900  0.06590  0.21680  1.0000
  C   C34       1.0  0.30100  0.43410  0.71680  1.0000
  C   C35       1.0  0.80100  0.06590  0.28320  1.0000
  C   C36       1.0  0.69900  0.43410  0.78320  1.0000
  C   C37       1.0  0.80100  0.93410  0.78320  1.0000
  C   C38       1.0  0.69900  0.56590  0.28320  1.0000
  C   C39       1.0  0.19900  0.93410  0.71680  1.0000
  C   C40       1.0  0.30100  0.56590  0.21680  1.0000
  H   H17       1.0  0.21450  0.01440  0.29420  1.0000
  H   H18       1.0  0.28550  0.48560  0.79420  1.0000
  H   H19       1.0  0.78550  0.01440  0.20580  1.0000
  H   H20       1.0  0.71450  0.48560  0.70580  1.0000
  H   H21       1.0  0.78550  0.98560  0.70580  1.0000
  H   H22       1.0  0.71450  0.51440  0.20580  1.0000
  H   H23       1.0  0.21450  0.98560  0.79420  1.0000
  H   H24       1.0  0.28550  0.51440  0.29420  1.0000
  C   C41       1.0  0.14962  0.08530  0.23170  1.0000
  C   C42       1.0  0.35038  0.41470  0.73170  1.0000
  C   C43       1.0  0.85038  0.08530  0.26830  1.0000
  C   C44       1.0  0.64962  0.41470  0.76830  1.0000
  C   C45       1.0  0.85038  0.91470  0.76830  1.0000
  C   C46       1.0  0.64962  0.58530  0.26830  1.0000
  C   C47       1.0  0.14962  0.91470  0.73170  1.0000
  C   C48       1.0  0.35038  0.58530  0.23170  1.0000
  H   H25       1.0  0.13170  0.04770  0.31990  1.0000
  H   H26       1.0  0.36830  0.45230  0.81990  1.0000
  H   H27       1.0  0.86830  0.04770  0.18010  1.0000
  H   H28       1.0  0.63170  0.45230  0.68010  1.0000
  H   H29       1.0  0.86830  0.95230  0.68010  1.0000
  H   H30       1.0  0.63170  0.54770  0.18010  1.0000
  H   H31       1.0  0.13170  0.95230  0.81990  1.0000
  H   H32       1.0  0.36830  0.54770  0.31990  1.0000
  C   C49       1.0  0.27944  0.10500  0.08240  1.0000
  C   C50       1.0  0.22056  0.39500  0.58240  1.0000
  C   C51       1.0  0.72056  0.10500  0.41760  1.0000
  C   C52       1.0  0.77944  0.39500  0.91760  1.0000
  C   C53       1.0  0.72056  0.89500  0.91760  1.0000
  C   C54       1.0  0.77944  0.60500  0.41760  1.0000
  C   C55       1.0  0.27944  0.89500  0.58240  1.0000
  C   C56       1.0  0.22056  0.60500  0.08240  1.0000
  C   C57       1.0  0.30981  0.19230  0.02380  1.0000
  C   C58       1.0  0.19019  0.30770  0.52380  1.0000
  C   C59       1.0  0.69019  0.19230  0.47620  1.0000
  C   C60       1.0  0.80981  0.30770  0.97620  1.0000
  C   C61       1.0  0.69019  0.80770  0.97620  1.0000
  C   C62       1.0  0.80981  0.69230  0.47620  1.0000
  C   C63       1.0  0.30981  0.80770  0.52380  1.0000
  C   C64       1.0  0.19019  0.69230  0.02380  1.0000
  H   H33       1.0  0.29610  0.26210  0.98440  1.0000
  H   H34       1.0  0.20390  0.23790  0.48440  1.0000
  H   H35       1.0  0.70390  0.26210  0.51560  1.0000
  H   H36       1.0  0.79610  0.23790  0.01560  1.0000
  H   H37       1.0  0.70390  0.73790  0.01560  1.0000
  H   H38       1.0  0.79610  0.76210  0.51560  1.0000
  H   H39       1.0  0.29610  0.73790  0.48440  1.0000
  H   H40       1.0  0.20390  0.76210  0.98440  1.0000
  C   C65       1.0  0.35971  0.17840  0.02200  1.0000
  C   C66       1.0  0.14029  0.32160  0.52200  1.0000
  C   C67       1.0  0.64029  0.17840  0.47800  1.0000
  C   C68       1.0  0.85971  0.32160  0.97800  1.0000
  C   C69       1.0  0.64029  0.82160  0.97800  1.0000
  C   C70       1.0  0.85971  0.67840  0.47800  1.0000
  C   C71       1.0  0.35971  0.82160  0.52200  1.0000
  C   C72       1.0  0.14029  0.67840  0.02200  1.0000
  H   H41       1.0  0.37980  0.23800  0.97940  1.0000
  H   H42       1.0  0.12020  0.26200  0.47940  1.0000
  H   H43       1.0  0.62020  0.23800  0.52060  1.0000
  H   H44       1.0  0.87980  0.26200  0.02060  1.0000
  H   H45       1.0  0.62020  0.76200  0.02060  1.0000
  H   H46       1.0  0.87980  0.73800  0.52060  1.0000
  H   H47       1.0  0.37980  0.76200  0.47940  1.0000
  H   H48       1.0  0.12020  0.73800  0.97940  1.0000
  C   C73       1.0  0.38021  0.07750  0.08250  1.0000
  C   C74       1.0  0.11979  0.42250  0.58250  1.0000
  C   C75       1.0  0.61979  0.07750  0.41750  1.0000
  C   C76       1.0  0.88021  0.42250  0.91750  1.0000
  C   C77       1.0  0.61979  0.92250  0.91750  1.0000
  C   C78       1.0  0.88021  0.57750  0.41750  1.0000
  C   C79       1.0  0.38021  0.92250  0.58250  1.0000
  C   C80       1.0  0.11979  0.57750  0.08250  1.0000
  C   C81       1.0  0.35021  0.98980  0.13960  1.0000
  C   C82       1.0  0.14979  0.51020  0.63960  1.0000
  C   C83       1.0  0.64979  0.98980  0.36040  1.0000
  C   C84       1.0  0.85021  0.51020  0.86040  1.0000
  C   C85       1.0  0.64979  0.01020  0.86040  1.0000
  C   C86       1.0  0.85021  0.48980  0.36040  1.0000
  C   C87       1.0  0.35021  0.01020  0.63960  1.0000
  C   C88       1.0  0.14979  0.48980  0.13960  1.0000
  H   H49       1.0  0.36400  0.92030  0.18010  1.0000
  H   H50       1.0  0.13600  0.57970  0.68010  1.0000
  H   H51       1.0  0.63600  0.92030  0.31990  1.0000
  H   H52       1.0  0.86400  0.57970  0.81990  1.0000
  H   H53       1.0  0.63600  0.07970  0.81990  1.0000
  H   H54       1.0  0.86400  0.42030  0.31990  1.0000
  H   H55       1.0  0.36400  0.07970  0.68010  1.0000
  H   H56       1.0  0.13600  0.42030  0.18010  1.0000
  C   C89       1.0  0.30042  0.00300  0.13800  1.0000
  C   C90       1.0  0.19958  0.49700  0.63800  1.0000
  C   C91       1.0  0.69958  0.00300  0.36200  1.0000
  C   C92       1.0  0.80042  0.49700  0.86200  1.0000
  C   C93       1.0  0.69958  0.99700  0.86200  1.0000
  C   C94       1.0  0.80042  0.50300  0.36200  1.0000
  C   C95       1.0  0.30042  0.99700  0.63800  1.0000
  C   C96       1.0  0.19958  0.50300  0.13800  1.0000
  H   H57       1.0  0.28040  0.94180  0.17520  1.0000
  H   H58       1.0  0.21960  0.55820  0.67520  1.0000
  H   H59       1.0  0.71960  0.94180  0.32480  1.0000
  H   H60       1.0  0.78040  0.55820  0.82480  1.0000
  H   H61       1.0  0.71960  0.05820  0.82480  1.0000
  H   H62       1.0  0.78040  0.44180  0.32480  1.0000
  H   H63       1.0  0.28040  0.05820  0.67520  1.0000
  H   H64       1.0  0.21960  0.44180  0.17520  1.0000
  C   C97       1.0  0.07459  0.19290  0.14910  1.0000
  C   C98       1.0  0.42541  0.30710  0.64910  1.0000
  C   C99       1.0  0.92541  0.19290  0.35090  1.0000
  C   C100      1.0  0.57459  0.30710  0.85090  1.0000
  C   C101      1.0  0.92541  0.80710  0.85090  1.0000
  C   C102      1.0  0.57459  0.69290  0.35090  1.0000
  C   C103      1.0  0.07459  0.80710  0.64910  1.0000
  C   C104      1.0  0.42541  0.69290  0.14910  1.0000
  C   C105      1.0  0.43444  0.06090  0.08730  1.0000
  C   C106      1.0  0.06556  0.43910  0.58730  1.0000
  C   C107      1.0  0.56556  0.06090  0.41270  1.0000
  C   C108      1.0  0.93444  0.43910  0.91270  1.0000
  C   C109      1.0  0.56556  0.93910  0.91270  1.0000
  C   C110      1.0  0.93444  0.56090  0.41270  1.0000
  C   C111      1.0  0.43444  0.93910  0.58730  1.0000
  C   C112      1.0  0.06556  0.56090  0.08730  1.0000
