data_image0
_chemical_formula_structural       Nd2N6O8C2H4C2H4C2H4C4H2C2H2C2H2C6H4C4H2C2H2C2H2C4N6O8C2H4C2H4C2H4C4H2C2H2C2H2C6H4C4H2C2H2C2H2C4
_chemical_formula_sum              "Nd2 N12 O16 C64 H56"
_cell_length_a       10.7533
_cell_length_b       12.7831
_cell_length_c       13.8556
_cell_angle_alpha    81.976
_cell_angle_beta     78.009
_cell_angle_gamma    84.563

_space_group_name_H-M_alt    "P 1"
_space_group_IT_number       1

loop_
  _space_group_symop_operation_xyz
  'x, y, z'

loop_
  _atom_site_type_symbol
  _atom_site_label
  _atom_site_symmetry_multiplicity
  _atom_site_fract_x
  _atom_site_fract_y
  _atom_site_fract_z
  _atom_site_occupancy
  Nd  Nd1       1.0  0.15677  0.20196  0.70969  1.0000
  Nd  Nd2       1.0  0.84323  0.79804  0.29031  1.0000
  N   N1        1.0  0.15070  0.30380  0.89760  1.0000
  N   N2        1.0  0.84930  0.69620  0.10240  1.0000
  N   N3        1.0  0.35110  0.18310  0.80820  1.0000
  N   N4        1.0  0.64890  0.81690  0.19180  1.0000
  N   N5        1.0  0.01520  0.12210  0.88440  1.0000
  N   N6        1.0  0.98480  0.87790  0.11560  1.0000
  O   O1        1.0  0.28540  0.02970  0.72190  1.0000
  O   O2        1.0  0.71460  0.97030  0.27810  1.0000
  O   O3        1.0  0.46710  0.93430  0.73400  1.0000
  O   O4        1.0  0.53290  0.06570  0.26600  1.0000
  O   O5        1.0  0.02280  0.06170  0.70760  1.0000
  O   O6        1.0  0.97720  0.93830  0.29240  1.0000
  O   O7        1.0  0.88270  0.93990  0.77300  1.0000
  O   O8        1.0  0.11730  0.06010  0.22700  1.0000
  C   C1        1.0  0.04550  0.45130  0.00100  1.0000
  C   C2        1.0  0.95450  0.54870  0.99900  1.0000
  H   H1        1.0  0.01630  0.40230  0.06190  1.0000
  H   H2        1.0  0.98370  0.59770  0.93810  1.0000
  H   H3        1.0  0.13120  0.47190  0.00320  1.0000
  H   H4        1.0  0.86880  0.52810  0.99680  1.0000
  C   C3        1.0  0.05340  0.39420  0.90900  1.0000
  C   C4        1.0  0.94660  0.60580  0.09100  1.0000
  H   H5        1.0  0.96890  0.36800  0.91150  1.0000
  H   H6        1.0  0.03110  0.63200  0.08850  1.0000
  H   H7        1.0  0.07140  0.44670  0.84900  1.0000
  H   H8        1.0  0.92860  0.55330  0.15100  1.0000
  C   C5        1.0  0.27750  0.33720  0.89530  1.0000
  C   C6        1.0  0.72250  0.66280  0.10470  1.0000
  H   H9        1.0  0.28660  0.34200  0.96420  1.0000
  H   H10       1.0  0.71340  0.65800  0.03580  1.0000
  H   H11       1.0  0.28590  0.40880  0.85770  1.0000
  H   H12       1.0  0.71410  0.59120  0.14230  1.0000
  C   C7        1.0  0.38370  0.26310  0.84860  1.0000
  C   C8        1.0  0.61630  0.73690  0.15140  1.0000
  C   C9        1.0  0.50980  0.27810  0.84990  1.0000
  C   C10       1.0  0.49020  0.72190  0.15010  1.0000
  H   H13       1.0  0.52990  0.33570  0.87910  1.0000
  H   H14       1.0  0.47010  0.66430  0.12090  1.0000
  C   C11       1.0  0.60590  0.20800  0.80820  1.0000
  C   C12       1.0  0.39410  0.79200  0.19180  1.0000
  H   H15       1.0  0.69290  0.21960  0.80450  1.0000
  H   H16       1.0  0.30710  0.78040  0.19550  1.0000
  C   C13       1.0  0.57310  0.12110  0.77200  1.0000
  C   C14       1.0  0.42690  0.87890  0.22800  1.0000
  H   H17       1.0  0.63650  0.06980  0.74620  1.0000
  H   H18       1.0  0.36350  0.93020  0.25380  1.0000
  C   C15       1.0  0.44390  0.11080  0.77430  1.0000
  C   C16       1.0  0.55610  0.88920  0.22570  1.0000
  C   C17       1.0  0.39720  0.01670  0.74070  1.0000
  C   C18       1.0  0.60280  0.98330  0.25930  1.0000
  C   C19       1.0  0.11950  0.21600  0.97990  1.0000
  C   C20       1.0  0.88050  0.78400  0.02010  1.0000
  H   H19       1.0  0.19300  0.16300  0.97850  1.0000
  H   H20       1.0  0.80700  0.83700  0.02150  1.0000
  H   H21       1.0  0.10310  0.24450  0.04460  1.0000
  H   H22       1.0  0.89690  0.75550  0.95540  1.0000
  C   C21       1.0  0.00510  0.16380  0.97020  1.0000
  C   C22       1.0  0.99490  0.83620  0.02980  1.0000
  C   C23       1.0  0.89550  0.15580  0.04450  1.0000
  C   C24       1.0  0.10450  0.84420  0.95550  1.0000
  H   H23       1.0  0.88960  0.18640  0.10410  1.0000
  H   H24       1.0  0.11040  0.81360  0.89590  1.0000
  C   C25       1.0  0.79590  0.10280  0.03060  1.0000
  C   C26       1.0  0.20410  0.89720  0.96940  1.0000
  H   H25       1.0  0.71940  0.09940  0.07930  1.0000
  H   H26       1.0  0.28060  0.90060  0.92070  1.0000
  C   C27       1.0  0.80770  0.05480  0.94570  1.0000
  C   C28       1.0  0.19230  0.94520  0.05430  1.0000
  H   H27       1.0  0.74230  0.01450  0.93630  1.0000
  H   H28       1.0  0.25770  0.98550  0.06370  1.0000
  C   C29       1.0  0.91850  0.06770  0.87440  1.0000
  C   C30       1.0  0.08150  0.93230  0.12560  1.0000
  C   C31       1.0  0.94100  0.01880  0.77730  1.0000
  C   C32       1.0  0.05900  0.98120  0.22270  1.0000
  N   N7        1.0  0.23240  0.12810  0.51060  1.0000
  N   N8        1.0  0.76760  0.87190  0.48940  1.0000
  N   N9        1.0  0.04890  0.29470  0.55620  1.0000
  N   N10       1.0  0.95110  0.70530  0.44380  1.0000
  N   N11       1.0  0.37330  0.25100  0.58340  1.0000
  N   N12       1.0  0.62670  0.74900  0.41660  1.0000
  O   O9        1.0  0.95180  0.30040  0.74860  1.0000
  O   O10       1.0  0.04820  0.69960  0.25140  1.0000
  O   O11       1.0  0.79610  0.41940  0.71810  1.0000
  O   O12       1.0  0.20390  0.58060  0.28190  1.0000
  O   O13       1.0  0.22600  0.38600  0.68860  1.0000
  O   O14       1.0  0.77400  0.61400  0.31140  1.0000
  O   O15       1.0  0.37890  0.49680  0.67180  1.0000
  O   O16       1.0  0.62110  0.50320  0.32820  1.0000
  C   C33       1.0  0.03070  0.05340  0.49230  1.0000
  C   C34       1.0  0.96930  0.94660  0.50770  1.0000
  H   H29       1.0  0.02220  0.09210  0.42670  1.0000
  H   H30       1.0  0.97780  0.90790  0.57330  1.0000
  H   H31       1.0  0.98690  0.09740  0.54430  1.0000
  H   H32       1.0  0.01310  0.90260  0.45570  1.0000
  C   C35       1.0  0.17030  0.03310  0.49790  1.0000
  C   C36       1.0  0.82970  0.96690  0.50210  1.0000
  H   H33       1.0  0.17840  0.97770  0.55420  1.0000
  H   H34       1.0  0.82160  0.02230  0.44580  1.0000
  H   H35       1.0  0.21660  0.00510  0.43620  1.0000
  H   H36       1.0  0.78340  0.99490  0.56380  1.0000
  C   C37       1.0  0.21450  0.21610  0.43210  1.0000
  C   C38       1.0  0.78550  0.78390  0.56790  1.0000
  H   H37       1.0  0.21170  0.18620  0.37040  1.0000
  H   H38       1.0  0.78830  0.81380  0.62960  1.0000
  H   H39       1.0  0.28900  0.25980  0.41800  1.0000
  H   H40       1.0  0.71100  0.74020  0.58200  1.0000
  C   C39       1.0  0.09480  0.28630  0.45930  1.0000
  C   C40       1.0  0.90520  0.71370  0.54070  1.0000
  C   C41       1.0  0.03900  0.34420  0.38380  1.0000
  C   C42       1.0  0.96100  0.65580  0.61620  1.0000
  H   H41       1.0  0.07310  0.33640  0.31600  1.0000
  H   H42       1.0  0.92690  0.66360  0.68400  1.0000
  C   C43       1.0  0.93360  0.41260  0.40930  1.0000
  C   C44       1.0  0.06640  0.58740  0.59070  1.0000
  H   H43       1.0  0.89510  0.45360  0.35930  1.0000
  H   H44       1.0  0.10490  0.54640  0.64070  1.0000
  C   C45       1.0  0.88470  0.42050  0.50950  1.0000
  C   C46       1.0  0.11530  0.57950  0.49050  1.0000
  H   H45       1.0  0.81170  0.46640  0.52890  1.0000
  H   H46       1.0  0.18830  0.53360  0.47110  1.0000
  C   C47       1.0  0.94370  0.36070  0.58000  1.0000
  C   C48       1.0  0.05630  0.63930  0.42000  1.0000
  C   C49       1.0  0.89370  0.36130  0.69010  1.0000
  C   C50       1.0  0.10630  0.63870  0.30990  1.0000
  C   C51       1.0  0.37110  0.09850  0.49900  1.0000
  C   C52       1.0  0.62890  0.90150  0.50100  1.0000
  H   H47       1.0  0.40520  0.08110  0.43060  1.0000
  H   H48       1.0  0.59480  0.91890  0.56940  1.0000
  H   H49       1.0  0.38500  0.03450  0.54580  1.0000
  H   H50       1.0  0.61500  0.96550  0.45420  1.0000
  C   C53       1.0  0.44090  0.18590  0.51850  1.0000
  C   C54       1.0  0.55910  0.81410  0.48150  1.0000
  C   C55       1.0  0.56410  0.20300  0.47100  1.0000
  C   C56       1.0  0.43590  0.79700  0.52900  1.0000
  H   H51       1.0  0.60930  0.15610  0.42630  1.0000
  H   H52       1.0  0.39070  0.84390  0.57370  1.0000
  C   C57       1.0  0.62190  0.28830  0.48810  1.0000
  C   C58       1.0  0.37810  0.71170  0.51190  1.0000
  H   H53       1.0  0.70830  0.29910  0.45800  1.0000
  H   H54       1.0  0.29170  0.70090  0.54200  1.0000
  C   C59       1.0  0.55190  0.35850  0.55040  1.0000
  C   C60       1.0  0.44810  0.64150  0.44960  1.0000
  H   H55       1.0  0.58860  0.41920  0.56200  1.0000
  H   H56       1.0  0.41140  0.58080  0.43800  1.0000
  C   C61       1.0  0.42760  0.33810  0.59500  1.0000
  C   C62       1.0  0.57240  0.66190  0.40500  1.0000
  C   C63       1.0  0.33850  0.41250  0.65720  1.0000
  C   C64       1.0  0.66150  0.58750  0.34280  1.0000
