data_image0
_chemical_formula_structural       U4O32C6H2C2H2C2H2C2H2C6H2C2H2C2H2C2H2C10H2C2H2C2H2C2H2C6H2C2H2C2H2C2H2C10H2C2H2C2H2C2H2C6H2C2H2C2H2C2H2C4
_chemical_formula_sum              "U4 O32 C84 H48"
_cell_length_a       9.3807
_cell_length_b       15.4285
_cell_length_c       16.3847
_cell_angle_alpha    76.348
_cell_angle_beta     74.879
_cell_angle_gamma    86.421

_space_group_name_H-M_alt    "P 1"
_space_group_IT_number       1

loop_
  _space_group_symop_operation_xyz
  'x, y, z'

loop_
  _atom_site_type_symbol
  _atom_site_label
  _atom_site_symmetry_multiplicity
  _atom_site_fract_x
  _atom_site_fract_y
  _atom_site_fract_z
  _atom_site_occupancy
  U   U1        1.0  0.65210  0.52717  0.71610  1.0000
  U   U2        1.0  0.34790  0.47283  0.28390  1.0000
  U   U3        1.0  0.74557  0.93724  0.26206  1.0000
  U   U4        1.0  0.25443  0.06276  0.73794  1.0000
  O   O1        1.0  0.60640  0.50730  0.62401  1.0000
  O   O2        1.0  0.39360  0.49270  0.37599  1.0000
  O   O3        1.0  0.69790  0.54660  0.80802  1.0000
  O   O4        1.0  0.30210  0.45340  0.19198  1.0000
  O   O5        1.0  0.56930  0.88680  0.30690  1.0000
  O   O6        1.0  0.43070  0.11320  0.69310  1.0000
  O   O7        1.0  0.92090  0.98740  0.21816  1.0000
  O   O8        1.0  0.07910  0.01260  0.78184  1.0000
  O   O9        1.0  0.75780  0.67110  0.62623  1.0000
  O   O10       1.0  0.24220  0.32890  0.37377  1.0000
  O   O11       1.0  0.90990  0.55710  0.62710  1.0000
  O   O12       1.0  0.09010  0.44290  0.37290  1.0000
  O   O13       1.0  0.71080  0.98813  0.39941  1.0000
  O   O14       1.0  0.28920  0.01187  0.60059  1.0000
  O   O15       1.0  0.81620  0.85790  0.39488  1.0000
  O   O16       1.0  0.18380  0.14210  0.60512  1.0000
  O   O17       1.0  0.80570  0.39073  0.73555  1.0000
  O   O18       1.0  0.19430  0.60927  0.26445  1.0000
  O   O19       1.0  0.56680  0.37743  0.79419  1.0000
  O   O20       1.0  0.43320  0.62257  0.20581  1.0000
  O   O21       1.0  0.13990  0.20810  0.75074  1.0000
  O   O22       1.0  0.86010  0.79190  0.24926  1.0000
  O   O23       1.0  0.21820  0.13670  0.86302  1.0000
  O   O24       1.0  0.78180  0.86330  0.13698  1.0000
  O   O25       1.0  0.38490  0.52280  0.79690  1.0000
  O   O26       1.0  0.61510  0.47720  0.20310  1.0000
  O   O27       1.0  0.47720  0.65369  0.72375  1.0000
  O   O28       1.0  0.52280  0.34631  0.27625  1.0000
  O   O29       1.0  0.34570  0.97380  0.85815  1.0000
  O   O30       1.0  0.65430  0.02620  0.14185  1.0000
  O   O31       1.0  0.35510  0.90849  0.75186  1.0000
  O   O32       1.0  0.64490  0.09151  0.24814  1.0000
  C   C1        1.0  0.00300  0.69740  0.53470  1.0000
  C   C2        1.0  0.99700  0.30260  0.46530  1.0000
  C   C3        1.0  0.99240  0.79140  0.51190  1.0000
  C   C4        1.0  0.00760  0.20860  0.48810  1.0000
  C   C5        1.0  0.10290  0.83790  0.44360  1.0000
  C   C6        1.0  0.89710  0.16210  0.55640  1.0000
  H   H1        1.0  0.09690  0.90110  0.42700  1.0000
  H   H2        1.0  0.90310  0.09890  0.57300  1.0000
  C   C7        1.0  0.22110  0.79450  0.39920  1.0000
  C   C8        1.0  0.77890  0.20550  0.60080  1.0000
  H   H3        1.0  0.29390  0.82780  0.35250  1.0000
  H   H4        1.0  0.70610  0.17220  0.64750  1.0000
  C   C9        1.0  0.23290  0.70300  0.42280  1.0000
  C   C10       1.0  0.76710  0.29700  0.57720  1.0000
  H   H5        1.0  0.31520  0.67320  0.39380  1.0000
  H   H6        1.0  0.68480  0.32680  0.60620  1.0000
  C   C11       1.0  0.12380  0.65520  0.48920  1.0000
  C   C12       1.0  0.87620  0.34480  0.51080  1.0000
  H   H7        1.0  0.13100  0.59200  0.50440  1.0000
  H   H8        1.0  0.86900  0.40800  0.49560  1.0000
  C   C13       1.0  0.88050  0.84510  0.56210  1.0000
  C   C14       1.0  0.11950  0.15490  0.43790  1.0000
  C   C15       1.0  0.78710  0.90940  0.52560  1.0000
  C   C16       1.0  0.21290  0.09060  0.47440  1.0000
  C   C17       1.0  0.69780  0.96330  0.57600  1.0000
  C   C18       1.0  0.30220  0.03670  0.42400  1.0000
  H   H9        1.0  0.63400  0.00570  0.55130  1.0000
  H   H10       1.0  0.36600  0.99430  0.44870  1.0000
  C   C19       1.0  0.70110  0.95590  0.66140  1.0000
  C   C20       1.0  0.29890  0.04410  0.33860  1.0000
  H   H11       1.0  0.64140  0.99340  0.69510  1.0000
  H   H12       1.0  0.35860  0.00660  0.30490  1.0000
  C   C21       1.0  0.79250  0.89310  0.69660  1.0000
  C   C22       1.0  0.20750  0.10690  0.30340  1.0000
  H   H13       1.0  0.79520  0.88750  0.75510  1.0000
  H   H14       1.0  0.20480  0.11250  0.24490  1.0000
  C   C23       1.0  0.87980  0.83850  0.64890  1.0000
  C   C24       1.0  0.12020  0.16150  0.35110  1.0000
  H   H15       1.0  0.94080  0.79540  0.67530  1.0000
  H   H16       1.0  0.05920  0.20460  0.32470  1.0000
  C   C25       1.0  0.88430  0.63970  0.60040  1.0000
  C   C26       1.0  0.11570  0.36030  0.39960  1.0000
  C   C27       1.0  0.77330  0.91840  0.43430  1.0000
  C   C28       1.0  0.22670  0.08160  0.56570  1.0000
  C   C29       1.0  0.71350  0.25100  0.83340  1.0000
  C   C30       1.0  0.28650  0.74900  0.16660  1.0000
  C   C31       1.0  0.82580  0.22430  0.87620  1.0000
  C   C32       1.0  0.17420  0.77570  0.12380  1.0000
  C   C33       1.0  0.83390  0.13420  0.91690  1.0000
  C   C34       1.0  0.16610  0.86580  0.08310  1.0000
  H   H17       1.0  0.91070  0.11510  0.94510  1.0000
  H   H18       1.0  0.08930  0.88490  0.05490  1.0000
  C   C35       1.0  0.73370  0.07260  0.91740  1.0000
  C   C36       1.0  0.26630  0.92740  0.08260  1.0000
  H   H19       1.0  0.74140  0.01190  0.94580  1.0000
  H   H20       1.0  0.25860  0.98810  0.05420  1.0000
  C   C37       1.0  0.62050  0.10000  0.87590  1.0000
  C   C38       1.0  0.37950  0.90000  0.12410  1.0000
  H   H21       1.0  0.55090  0.05780  0.87590  1.0000
  H   H22       1.0  0.44910  0.94220  0.12410  1.0000
  C   C39       1.0  0.60990  0.18800  0.83500  1.0000
  C   C40       1.0  0.39010  0.81200  0.16500  1.0000
  H   H23       1.0  0.53200  0.20650  0.80760  1.0000
  H   H24       1.0  0.46800  0.79350  0.19240  1.0000
  C   C41       1.0  0.92840  0.28940  0.88630  1.0000
  C   C42       1.0  0.07160  0.71060  0.11370  1.0000
  C   C43       1.0  0.08070  0.27310  0.87300  1.0000
  C   C44       1.0  0.91930  0.72690  0.12700  1.0000
  C   C45       1.0  0.17150  0.32950  0.89190  1.0000
  C   C46       1.0  0.82850  0.67050  0.10810  1.0000
  H   H25       1.0  0.27410  0.31710  0.88370  1.0000
  H   H26       1.0  0.72590  0.68290  0.11630  1.0000
  C   C47       1.0  0.11250  0.40390  0.92270  1.0000
  C   C48       1.0  0.88750  0.59610  0.07730  1.0000
  H   H27       1.0  0.17440  0.44230  0.93580  1.0000
  H   H28       1.0  0.82560  0.55770  0.06420  1.0000
  C   C49       1.0  0.96260  0.42180  0.93420  1.0000
  C   C50       1.0  0.03740  0.57820  0.06580  1.0000
  H   H29       1.0  0.92230  0.47340  0.95400  1.0000
  H   H30       1.0  0.07770  0.52660  0.04600  1.0000
  C   C51       1.0  0.87130  0.36470  0.91670  1.0000
  C   C52       1.0  0.12870  0.63530  0.08330  1.0000
  H   H31       1.0  0.76870  0.37720  0.92560  1.0000
  H   H32       1.0  0.23130  0.62280  0.07440  1.0000
  C   C53       1.0  0.69690  0.34350  0.78530  1.0000
  C   C54       1.0  0.30310  0.65650  0.21470  1.0000
  C   C55       1.0  0.14890  0.20110  0.82900  1.0000
  C   C56       1.0  0.85110  0.79890  0.17100  1.0000
  C   C57       1.0  0.23490  0.65250  0.81660  1.0000
  C   C58       1.0  0.76510  0.34750  0.18340  1.0000
  C   C59       1.0  0.24540  0.72100  0.85770  1.0000
  C   C60       1.0  0.75460  0.27900  0.14230  1.0000
  C   C61       1.0  0.11760  0.77110  0.88250  1.0000
  C   C62       1.0  0.88240  0.22890  0.11750  1.0000
  H   H33       1.0  0.12260  0.81920  0.90880  1.0000
  H   H34       1.0  0.87740  0.18080  0.09120  1.0000
  C   C63       1.0  0.98520  0.75140  0.86920  1.0000
  C   C64       1.0  0.01480  0.24860  0.13080  1.0000
  H   H35       1.0  0.90050  0.78670  0.88540  1.0000
  H   H36       1.0  0.09950  0.21330  0.11460  1.0000
  C   C65       1.0  0.97440  0.68030  0.83250  1.0000
  C   C66       1.0  0.02560  0.31970  0.16750  1.0000
  H   H37       1.0  0.88230  0.66550  0.82530  1.0000
  H   H38       1.0  0.11770  0.33450  0.17470  1.0000
  C   C67       1.0  0.09940  0.63170  0.80650  1.0000
  C   C68       1.0  0.90060  0.36830  0.19350  1.0000
  H   H39       1.0  0.09280  0.58320  0.78120  1.0000
  H   H40       1.0  0.90720  0.41680  0.21880  1.0000
  C   C69       1.0  0.37980  0.73730  0.88320  1.0000
  C   C70       1.0  0.62020  0.26270  0.11680  1.0000
  C   C71       1.0  0.42840  0.82350  0.87800  1.0000
  C   C72       1.0  0.57160  0.17650  0.12200  1.0000
  C   C73       1.0  0.53440  0.83550  0.92070  1.0000
  C   C74       1.0  0.46560  0.16450  0.07930  1.0000
  H   H41       1.0  0.56280  0.89400  0.91910  1.0000
  H   H42       1.0  0.43720  0.10600  0.08090  1.0000
  C   C75       1.0  0.59770  0.76230  0.96520  1.0000
  C   C76       1.0  0.40230  0.23770  0.03480  1.0000
  H   H43       1.0  0.66850  0.77070  0.99480  1.0000
  H   H44       1.0  0.33150  0.22930  0.00520  1.0000
  C   C77       1.0  0.55870  0.67790  0.96690  1.0000
  C   C78       1.0  0.44130  0.32210  0.03310  1.0000
  H   H45       1.0  0.60550  0.62770  0.99540  1.0000
  H   H46       1.0  0.39450  0.37230  0.00460  1.0000
  C   C79       1.0  0.45100  0.66570  0.92690  1.0000
  C   C80       1.0  0.54900  0.33430  0.07310  1.0000
  H   H47       1.0  0.42430  0.60670  0.92910  1.0000
  H   H48       1.0  0.57570  0.39330  0.07090  1.0000
  C   C81       1.0  0.37190  0.60630  0.77790  1.0000
  C   C82       1.0  0.62810  0.39370  0.22210  1.0000
  C   C83       1.0  0.37490  0.90480  0.82690  1.0000
  C   C84       1.0  0.62510  0.09520  0.17310  1.0000
