data_image0
_chemical_formula_structural       Tm4O32C4H4C8H8C4H4
_chemical_formula_sum              "Tm4 O32 C16 H16"
_cell_length_a       6.6375
_cell_length_b       18.2953
_cell_length_c       8.4058
_cell_angle_alpha    90
_cell_angle_beta     90
_cell_angle_gamma    90

_space_group_name_H-M_alt    "P 1"
_space_group_IT_number       1

loop_
  _space_group_symop_operation_xyz
  'x, y, z'

loop_
  _atom_site_type_symbol
  _atom_site_label
  _atom_site_symmetry_multiplicity
  _atom_site_fract_x
  _atom_site_fract_y
  _atom_site_fract_z
  _atom_site_occupancy
  Tm  Tm1       1.0  0.00000  0.14281  0.25000  1.0000
  Tm  Tm2       1.0  0.00000  0.85719  0.75000  1.0000
  Tm  Tm3       1.0  0.50000  0.64281  0.25000  1.0000
  Tm  Tm4       1.0  0.50000  0.35719  0.75000  1.0000
  O   O1        1.0  0.01470  0.05000  0.42920  1.0000
  O   O2        1.0  0.98530  0.95000  0.92920  1.0000
  O   O3        1.0  0.98530  0.05000  0.07080  1.0000
  O   O4        1.0  0.01470  0.95000  0.57080  1.0000
  O   O5        1.0  0.51470  0.55000  0.42920  1.0000
  O   O6        1.0  0.48530  0.45000  0.92920  1.0000
  O   O7        1.0  0.48530  0.55000  0.07080  1.0000
  O   O8        1.0  0.51470  0.45000  0.57080  1.0000
  O   O9        1.0  0.33520  0.09485  0.22750  1.0000
  O   O10       1.0  0.66480  0.90515  0.72750  1.0000
  O   O11       1.0  0.66480  0.09485  0.27250  1.0000
  O   O12       1.0  0.33520  0.90515  0.77250  1.0000
  O   O13       1.0  0.83520  0.59485  0.22750  1.0000
  O   O14       1.0  0.16480  0.40515  0.72750  1.0000
  O   O15       1.0  0.16480  0.59485  0.27250  1.0000
  O   O16       1.0  0.83520  0.40515  0.77250  1.0000
  O   O17       1.0  0.17950  0.24207  0.15310  1.0000
  O   O18       1.0  0.82050  0.75793  0.65310  1.0000
  O   O19       1.0  0.82050  0.24207  0.34690  1.0000
  O   O20       1.0  0.17950  0.75793  0.84690  1.0000
  O   O21       1.0  0.67950  0.74207  0.15310  1.0000
  O   O22       1.0  0.32050  0.25793  0.65310  1.0000
  O   O23       1.0  0.32050  0.74207  0.34690  1.0000
  O   O24       1.0  0.67950  0.25793  0.84690  1.0000
  O   O25       1.0  0.32610  0.31653  0.98090  1.0000
  O   O26       1.0  0.67390  0.68347  0.48090  1.0000
  O   O27       1.0  0.67390  0.31653  0.51910  1.0000
  O   O28       1.0  0.32610  0.68347  0.01910  1.0000
  O   O29       1.0  0.82610  0.81653  0.98090  1.0000
  O   O30       1.0  0.17390  0.18347  0.48090  1.0000
  O   O31       1.0  0.17390  0.81653  0.51910  1.0000
  O   O32       1.0  0.82610  0.18347  0.01910  1.0000
  C   C1        1.0  0.50000  0.12600  0.25000  1.0000
  C   C2        1.0  0.50000  0.87400  0.75000  1.0000
  C   C3        1.0  0.00000  0.62600  0.25000  1.0000
  C   C4        1.0  0.00000  0.37400  0.75000  1.0000
  H   H1        1.0  0.50000  0.17690  0.25000  1.0000
  H   H2        1.0  0.50000  0.82310  0.75000  1.0000
  H   H3        1.0  0.00000  0.67690  0.25000  1.0000
  H   H4        1.0  0.00000  0.32310  0.75000  1.0000
  C   C5        1.0  0.26450  0.25630  0.02380  1.0000
  C   C6        1.0  0.73550  0.74370  0.52380  1.0000
  C   C7        1.0  0.73550  0.25630  0.47620  1.0000
  C   C8        1.0  0.26450  0.74370  0.97620  1.0000
  C   C9        1.0  0.76450  0.75630  0.02380  1.0000
  C   C10       1.0  0.23550  0.24370  0.52380  1.0000
  C   C11       1.0  0.23550  0.75630  0.47620  1.0000
  C   C12       1.0  0.76450  0.24370  0.97620  1.0000
  H   H5        1.0  0.28290  0.21770  0.95350  1.0000
  H   H6        1.0  0.71710  0.78230  0.45350  1.0000
  H   H7        1.0  0.71710  0.21770  0.54650  1.0000
  H   H8        1.0  0.28290  0.78230  0.04650  1.0000
  H   H9        1.0  0.78290  0.71770  0.95350  1.0000
  H   H10       1.0  0.21710  0.28230  0.45350  1.0000
  H   H11       1.0  0.21710  0.71770  0.54650  1.0000
  H   H12       1.0  0.78290  0.28230  0.04650  1.0000
  C   C13       1.0  0.92430  0.00000  0.50000  1.0000
  C   C14       1.0  0.07570  0.00000  0.00000  1.0000
  C   C15       1.0  0.42430  0.50000  0.50000  1.0000
  C   C16       1.0  0.57570  0.50000  0.00000  1.0000
  H   H13       1.0  0.78420  0.00000  0.50000  1.0000
  H   H14       1.0  0.21580  0.00000  0.00000  1.0000
  H   H15       1.0  0.28420  0.50000  0.50000  1.0000
  H   H16       1.0  0.71580  0.50000  0.00000  1.0000
