data_image0
_chemical_formula_structural       Sm4O32C4H4C4H4C8H8
_chemical_formula_sum              "Sm4 O32 C16 H16"
_cell_length_a       6.7668
_cell_length_b       18.7189
_cell_length_c       8.5717
_cell_angle_alpha    90
_cell_angle_beta     90
_cell_angle_gamma    90

_space_group_name_H-M_alt    "P 1"
_space_group_IT_number       1

loop_
  _space_group_symop_operation_xyz
  'x, y, z'

loop_
  _atom_site_type_symbol
  _atom_site_label
  _atom_site_symmetry_multiplicity
  _atom_site_fract_x
  _atom_site_fract_y
  _atom_site_fract_z
  _atom_site_occupancy
  Sm  Sm1       1.0  0.00000  0.64250  0.75000  1.0000
  Sm  Sm2       1.0  0.00000  0.35750  0.25000  1.0000
  Sm  Sm3       1.0  0.50000  0.14250  0.75000  1.0000
  Sm  Sm4       1.0  0.50000  0.85750  0.25000  1.0000
  O   O1        1.0  0.98430  0.54905  0.93270  1.0000
  O   O2        1.0  0.98430  0.45095  0.06730  1.0000
  O   O3        1.0  0.01570  0.54905  0.56730  1.0000
  O   O4        1.0  0.01570  0.45095  0.43270  1.0000
  O   O5        1.0  0.48430  0.04905  0.93270  1.0000
  O   O6        1.0  0.48430  0.95095  0.06730  1.0000
  O   O7        1.0  0.51570  0.04905  0.56730  1.0000
  O   O8        1.0  0.51570  0.95095  0.43270  1.0000
  O   O9        1.0  0.33730  0.59341  0.77040  1.0000
  O   O10       1.0  0.33730  0.40659  0.22960  1.0000
  O   O11       1.0  0.66270  0.59341  0.72960  1.0000
  O   O12       1.0  0.66270  0.40659  0.27040  1.0000
  O   O13       1.0  0.83730  0.09341  0.77040  1.0000
  O   O14       1.0  0.83730  0.90659  0.22960  1.0000
  O   O15       1.0  0.16270  0.09341  0.72960  1.0000
  O   O16       1.0  0.16270  0.90659  0.27040  1.0000
  O   O17       1.0  0.82290  0.68295  0.98440  1.0000
  O   O18       1.0  0.82290  0.31705  0.01560  1.0000
  O   O19       1.0  0.17710  0.68295  0.51560  1.0000
  O   O20       1.0  0.17710  0.31705  0.48440  1.0000
  O   O21       1.0  0.32290  0.18295  0.98440  1.0000
  O   O22       1.0  0.32290  0.81705  0.01560  1.0000
  O   O23       1.0  0.67710  0.18295  0.51560  1.0000
  O   O24       1.0  0.67710  0.81705  0.48440  1.0000
  O   O25       1.0  0.68240  0.75652  0.15280  1.0000
  O   O26       1.0  0.68240  0.24348  0.84720  1.0000
  O   O27       1.0  0.31760  0.75652  0.34720  1.0000
  O   O28       1.0  0.31760  0.24348  0.65280  1.0000
  O   O29       1.0  0.18240  0.25652  0.15280  1.0000
  O   O30       1.0  0.18240  0.74348  0.84720  1.0000
  O   O31       1.0  0.81760  0.25652  0.34720  1.0000
  O   O32       1.0  0.81760  0.74348  0.65280  1.0000
  C   C1        1.0  0.50000  0.62371  0.75000  1.0000
  C   C2        1.0  0.50000  0.37629  0.25000  1.0000
  C   C3        1.0  0.00000  0.12371  0.75000  1.0000
  C   C4        1.0  0.00000  0.87629  0.25000  1.0000
  H   H1        1.0  0.50000  0.67340  0.75000  1.0000
  H   H2        1.0  0.50000  0.32660  0.25000  1.0000
  H   H3        1.0  0.00000  0.17340  0.75000  1.0000
  H   H4        1.0  0.00000  0.82660  0.25000  1.0000
  C   C5        1.0  0.07230  0.50000  0.00000  1.0000
  C   C6        1.0  0.92770  0.50000  0.50000  1.0000
  C   C7        1.0  0.57230  0.00000  0.00000  1.0000
  C   C8        1.0  0.42770  0.00000  0.50000  1.0000
  H   H5        1.0  0.20980  0.50000  0.00000  1.0000
  H   H6        1.0  0.79020  0.50000  0.50000  1.0000
  H   H7        1.0  0.70980  0.00000  0.00000  1.0000
  H   H8        1.0  0.29020  0.00000  0.50000  1.0000
  C   C9        1.0  0.76660  0.74251  0.02770  1.0000
  C   C10       1.0  0.76660  0.25749  0.97230  1.0000
  C   C11       1.0  0.23340  0.74251  0.47230  1.0000
  C   C12       1.0  0.23340  0.25749  0.52770  1.0000
  C   C13       1.0  0.26660  0.24251  0.02770  1.0000
  C   C14       1.0  0.26660  0.75749  0.97230  1.0000
  C   C15       1.0  0.73340  0.24251  0.47230  1.0000
  C   C16       1.0  0.73340  0.75749  0.52770  1.0000
  H   H9        1.0  0.78940  0.78050  0.96020  1.0000
  H   H10       1.0  0.78940  0.21950  0.03980  1.0000
  H   H11       1.0  0.21060  0.78050  0.53980  1.0000
  H   H12       1.0  0.21060  0.21950  0.46020  1.0000
  H   H13       1.0  0.28940  0.28050  0.96020  1.0000
  H   H14       1.0  0.28940  0.71950  0.03980  1.0000
  H   H15       1.0  0.71060  0.28050  0.53980  1.0000
  H   H16       1.0  0.71060  0.71950  0.46020  1.0000
