data_image0
_chemical_formula_structural       Lu4O32C8H8C4H4C4H4
_chemical_formula_sum              "Lu4 O32 C16 H16"
_cell_length_a       6.6174
_cell_length_b       18.2
_cell_length_c       8.3777
_cell_angle_alpha    90
_cell_angle_beta     90
_cell_angle_gamma    90

_space_group_name_H-M_alt    "P 1"
_space_group_IT_number       1

loop_
  _space_group_symop_operation_xyz
  'x, y, z'

loop_
  _atom_site_type_symbol
  _atom_site_label
  _atom_site_symmetry_multiplicity
  _atom_site_fract_x
  _atom_site_fract_y
  _atom_site_fract_z
  _atom_site_occupancy
  Lu  Lu1       1.0  0.00000  0.14278  0.25000  1.0000
  Lu  Lu2       1.0  0.00000  0.85722  0.75000  1.0000
  Lu  Lu3       1.0  0.50000  0.64278  0.25000  1.0000
  Lu  Lu4       1.0  0.50000  0.35722  0.75000  1.0000
  O   O1        1.0  0.33370  0.09550  0.27030  1.0000
  O   O2        1.0  0.66630  0.90450  0.77030  1.0000
  O   O3        1.0  0.33370  0.90450  0.72970  1.0000
  O   O4        1.0  0.66630  0.09550  0.22970  1.0000
  O   O5        1.0  0.83370  0.59550  0.27030  1.0000
  O   O6        1.0  0.16630  0.40450  0.77030  1.0000
  O   O7        1.0  0.83370  0.40450  0.72970  1.0000
  O   O8        1.0  0.16630  0.59550  0.22970  1.0000
  O   O9        1.0  0.98460  0.05060  0.42860  1.0000
  O   O10       1.0  0.01540  0.94940  0.92860  1.0000
  O   O11       1.0  0.98460  0.94940  0.57140  1.0000
  O   O12       1.0  0.01540  0.05060  0.07140  1.0000
  O   O13       1.0  0.48460  0.55060  0.42860  1.0000
  O   O14       1.0  0.51540  0.44940  0.92860  1.0000
  O   O15       1.0  0.48460  0.44940  0.57140  1.0000
  O   O16       1.0  0.51540  0.55060  0.07140  1.0000
  O   O17       1.0  0.17370  0.18410  0.02030  1.0000
  O   O18       1.0  0.82630  0.81590  0.52030  1.0000
  O   O19       1.0  0.17370  0.81590  0.97970  1.0000
  O   O20       1.0  0.82630  0.18410  0.47970  1.0000
  O   O21       1.0  0.67370  0.68410  0.02030  1.0000
  O   O22       1.0  0.32630  0.31590  0.52030  1.0000
  O   O23       1.0  0.67370  0.31590  0.97970  1.0000
  O   O24       1.0  0.32630  0.68410  0.47970  1.0000
  O   O25       1.0  0.32030  0.25890  0.84700  1.0000
  O   O26       1.0  0.67970  0.74110  0.34700  1.0000
  O   O27       1.0  0.32030  0.74110  0.15300  1.0000
  O   O28       1.0  0.67970  0.25890  0.65300  1.0000
  O   O29       1.0  0.82030  0.75890  0.84700  1.0000
  O   O30       1.0  0.17970  0.24110  0.34700  1.0000
  O   O31       1.0  0.82030  0.24110  0.15300  1.0000
  O   O32       1.0  0.17970  0.75890  0.65300  1.0000
  C   C1        1.0  0.23610  0.24400  0.97730  1.0000
  C   C2        1.0  0.76390  0.75600  0.47730  1.0000
  C   C3        1.0  0.23610  0.75600  0.02270  1.0000
  C   C4        1.0  0.76390  0.24400  0.52270  1.0000
  C   C5        1.0  0.73610  0.74400  0.97730  1.0000
  C   C6        1.0  0.26390  0.25600  0.47730  1.0000
  C   C7        1.0  0.73610  0.25600  0.02270  1.0000
  C   C8        1.0  0.26390  0.74400  0.52270  1.0000
  H   H1        1.0  0.21950  0.28270  0.04860  1.0000
  H   H2        1.0  0.78050  0.71730  0.54860  1.0000
  H   H3        1.0  0.21950  0.71730  0.95140  1.0000
  H   H4        1.0  0.78050  0.28270  0.45140  1.0000
  H   H5        1.0  0.71950  0.78270  0.04860  1.0000
  H   H6        1.0  0.28050  0.21730  0.54860  1.0000
  H   H7        1.0  0.71950  0.21730  0.95140  1.0000
  H   H8        1.0  0.28050  0.78270  0.45140  1.0000
  C   C9        1.0  0.50000  0.12600  0.25000  1.0000
  C   C10       1.0  0.50000  0.87400  0.75000  1.0000
  C   C11       1.0  0.00000  0.62600  0.25000  1.0000
  C   C12       1.0  0.00000  0.37400  0.75000  1.0000
  H   H9        1.0  0.50000  0.17710  0.25000  1.0000
  H   H10       1.0  0.50000  0.82290  0.75000  1.0000
  H   H11       1.0  0.00000  0.67710  0.25000  1.0000
  H   H12       1.0  0.00000  0.32290  0.75000  1.0000
  C   C13       1.0  0.07650  0.00000  0.50000  1.0000
  C   C14       1.0  0.92350  0.00000  0.00000  1.0000
  C   C15       1.0  0.57650  0.50000  0.50000  1.0000
  C   C16       1.0  0.42350  0.50000  0.00000  1.0000
  H   H13       1.0  0.21700  0.00000  0.50000  1.0000
  H   H14       1.0  0.78300  0.00000  0.00000  1.0000
  H   H15       1.0  0.71700  0.50000  0.50000  1.0000
  H   H16       1.0  0.28300  0.50000  0.00000  1.0000
