data_image0
_chemical_formula_structural       U16O16C16O32C16H16C16H16O48C16H16O16C16H16O16C80H16C16H16C16
_chemical_formula_sum              "U16 O128 C192 H96"
_cell_length_a       21.6132
_cell_length_b       19.1237
_cell_length_c       27.4996
_cell_angle_alpha    90
_cell_angle_beta     90
_cell_angle_gamma    90

_space_group_name_H-M_alt    "P 1"
_space_group_IT_number       1

loop_
  _space_group_symop_operation_xyz
  'x, y, z'

loop_
  _atom_site_type_symbol
  _atom_site_label
  _atom_site_symmetry_multiplicity
  _atom_site_fract_x
  _atom_site_fract_y
  _atom_site_fract_z
  _atom_site_occupancy
  U   U1        1.0  0.62015  0.60090  0.31399  1.0000
  U   U2        1.0  0.37985  0.89910  0.81399  1.0000
  U   U3        1.0  0.37985  0.10090  0.18601  1.0000
  U   U4        1.0  0.62015  0.39910  0.68601  1.0000
  U   U5        1.0  0.12015  0.10090  0.31399  1.0000
  U   U6        1.0  0.87985  0.39910  0.81399  1.0000
  U   U7        1.0  0.87985  0.60090  0.18601  1.0000
  U   U8        1.0  0.12015  0.89910  0.68601  1.0000
  U   U9        1.0  0.37985  0.39910  0.68601  1.0000
  U   U10       1.0  0.62015  0.10090  0.18601  1.0000
  U   U11       1.0  0.62015  0.89910  0.81399  1.0000
  U   U12       1.0  0.37985  0.60090  0.31399  1.0000
  U   U13       1.0  0.87985  0.89910  0.68601  1.0000
  U   U14       1.0  0.12015  0.60090  0.18601  1.0000
  U   U15       1.0  0.12015  0.39910  0.81399  1.0000
  U   U16       1.0  0.87985  0.10090  0.31399  1.0000
  O   O1        1.0  0.83930  0.21750  0.30330  1.0000
  O   O2        1.0  0.16070  0.28250  0.80330  1.0000
  O   O3        1.0  0.16070  0.71750  0.19670  1.0000
  O   O4        1.0  0.83930  0.78250  0.69670  1.0000
  O   O5        1.0  0.33930  0.71750  0.30330  1.0000
  O   O6        1.0  0.66070  0.78250  0.80330  1.0000
  O   O7        1.0  0.66070  0.21750  0.19670  1.0000
  O   O8        1.0  0.33930  0.28250  0.69670  1.0000
  O   O9        1.0  0.16070  0.78250  0.69670  1.0000
  O   O10       1.0  0.83930  0.71750  0.19670  1.0000
  O   O11       1.0  0.83930  0.28250  0.80330  1.0000
  O   O12       1.0  0.16070  0.21750  0.30330  1.0000
  O   O13       1.0  0.66070  0.28250  0.69670  1.0000
  O   O14       1.0  0.33930  0.21750  0.19670  1.0000
  O   O15       1.0  0.33930  0.78250  0.80330  1.0000
  O   O16       1.0  0.66070  0.71750  0.30330  1.0000
  C   C1        1.0  0.75640  0.27140  0.34480  1.0000
  C   C2        1.0  0.24360  0.22860  0.84480  1.0000
  C   C3        1.0  0.24360  0.77140  0.15520  1.0000
  C   C4        1.0  0.75640  0.72860  0.65520  1.0000
  C   C5        1.0  0.25640  0.77140  0.34480  1.0000
  C   C6        1.0  0.74360  0.72860  0.84480  1.0000
  C   C7        1.0  0.74360  0.27140  0.15520  1.0000
  C   C8        1.0  0.25640  0.22860  0.65520  1.0000
  C   C9        1.0  0.24360  0.72860  0.65520  1.0000
  C   C10       1.0  0.75640  0.77140  0.15520  1.0000
  C   C11       1.0  0.75640  0.22860  0.84480  1.0000
  C   C12       1.0  0.24360  0.27140  0.34480  1.0000
  C   C13       1.0  0.74360  0.22860  0.65520  1.0000
  C   C14       1.0  0.25640  0.27140  0.15520  1.0000
  C   C15       1.0  0.25640  0.72860  0.84480  1.0000
  C   C16       1.0  0.74360  0.77140  0.34480  1.0000
  O   O17       1.0  0.57710  0.62850  0.36440  1.0000
  O   O18       1.0  0.42290  0.87150  0.86440  1.0000
  O   O19       1.0  0.42290  0.12850  0.13560  1.0000
  O   O20       1.0  0.57710  0.37150  0.63560  1.0000
  O   O21       1.0  0.07710  0.12850  0.36440  1.0000
  O   O22       1.0  0.92290  0.37150  0.86440  1.0000
  O   O23       1.0  0.92290  0.62850  0.13560  1.0000
  O   O24       1.0  0.07710  0.87150  0.63560  1.0000
  O   O25       1.0  0.42290  0.37150  0.63560  1.0000
  O   O26       1.0  0.57710  0.12850  0.13560  1.0000
  O   O27       1.0  0.57710  0.87150  0.86440  1.0000
  O   O28       1.0  0.42290  0.62850  0.36440  1.0000
  O   O29       1.0  0.92290  0.87150  0.63560  1.0000
  O   O30       1.0  0.07710  0.62850  0.13560  1.0000
  O   O31       1.0  0.07710  0.37150  0.86440  1.0000
  O   O32       1.0  0.92290  0.12850  0.36440  1.0000
  O   O33       1.0  0.78870  0.15240  0.35490  1.0000
  O   O34       1.0  0.21130  0.34760  0.85490  1.0000
  O   O35       1.0  0.21130  0.65240  0.14510  1.0000
  O   O36       1.0  0.78870  0.84760  0.64510  1.0000
  O   O37       1.0  0.28870  0.65240  0.35490  1.0000
  O   O38       1.0  0.71130  0.84760  0.85490  1.0000
  O   O39       1.0  0.71130  0.15240  0.14510  1.0000
  O   O40       1.0  0.28870  0.34760  0.64510  1.0000
  O   O41       1.0  0.21130  0.84760  0.64510  1.0000
  O   O42       1.0  0.78870  0.65240  0.14510  1.0000
  O   O43       1.0  0.78870  0.34760  0.85490  1.0000
  O   O44       1.0  0.21130  0.15240  0.35490  1.0000
  O   O45       1.0  0.71130  0.34760  0.64510  1.0000
  O   O46       1.0  0.28870  0.15240  0.14510  1.0000
  O   O47       1.0  0.28870  0.84760  0.85490  1.0000
  O   O48       1.0  0.71130  0.65240  0.35490  1.0000
  C   C17       1.0  0.71760  0.27160  0.38470  1.0000
  C   C18       1.0  0.28240  0.22840  0.88470  1.0000
  C   C19       1.0  0.28240  0.77160  0.11530  1.0000
  C   C20       1.0  0.71760  0.72840  0.61530  1.0000
  C   C21       1.0  0.21760  0.77160  0.38470  1.0000
  C   C22       1.0  0.78240  0.72840  0.88470  1.0000
  C   C23       1.0  0.78240  0.27160  0.11530  1.0000
  C   C24       1.0  0.21760  0.22840  0.61530  1.0000
  C   C25       1.0  0.28240  0.72840  0.61530  1.0000
  C   C26       1.0  0.71760  0.77160  0.11530  1.0000
  C   C27       1.0  0.71760  0.22840  0.88470  1.0000
  C   C28       1.0  0.28240  0.27160  0.38470  1.0000
  C   C29       1.0  0.78240  0.22840  0.61530  1.0000
  C   C30       1.0  0.21760  0.27160  0.11530  1.0000
  C   C31       1.0  0.21760  0.72840  0.88470  1.0000
  C   C32       1.0  0.78240  0.77160  0.38470  1.0000
  H   H1        1.0  0.71570  0.23270  0.40490  1.0000
  H   H2        1.0  0.28430  0.26730  0.90490  1.0000
  H   H3        1.0  0.28430  0.73270  0.09510  1.0000
  H   H4        1.0  0.71570  0.76730  0.59510  1.0000
  H   H5        1.0  0.21570  0.73270  0.40490  1.0000
  H   H6        1.0  0.78430  0.76730  0.90490  1.0000
  H   H7        1.0  0.78430  0.23270  0.09510  1.0000
  H   H8        1.0  0.21570  0.26730  0.59510  1.0000
  H   H9        1.0  0.28430  0.76730  0.59510  1.0000
  H   H10       1.0  0.71570  0.73270  0.09510  1.0000
  H   H11       1.0  0.71570  0.26730  0.90490  1.0000
  H   H12       1.0  0.28430  0.23270  0.40490  1.0000
  H   H13       1.0  0.78430  0.26730  0.59510  1.0000
  H   H14       1.0  0.21570  0.23270  0.09510  1.0000
  H   H15       1.0  0.21570  0.76730  0.90490  1.0000
  H   H16       1.0  0.78430  0.73270  0.40490  1.0000
  C   C33       1.0  0.68110  0.33030  0.39470  1.0000
  C   C34       1.0  0.31890  0.16970  0.89470  1.0000
  C   C35       1.0  0.31890  0.83030  0.10530  1.0000
  C   C36       1.0  0.68110  0.66970  0.60530  1.0000
  C   C37       1.0  0.18110  0.83030  0.39470  1.0000
  C   C38       1.0  0.81890  0.66970  0.89470  1.0000
  C   C39       1.0  0.81890  0.33030  0.10530  1.0000
  C   C40       1.0  0.18110  0.16970  0.60530  1.0000
  C   C41       1.0  0.31890  0.66970  0.60530  1.0000
  C   C42       1.0  0.68110  0.83030  0.10530  1.0000
  C   C43       1.0  0.68110  0.16970  0.89470  1.0000
  C   C44       1.0  0.31890  0.33030  0.39470  1.0000
  C   C45       1.0  0.81890  0.16970  0.60530  1.0000
  C   C46       1.0  0.18110  0.33030  0.10530  1.0000
  C   C47       1.0  0.18110  0.66970  0.89470  1.0000
  C   C48       1.0  0.81890  0.83030  0.39470  1.0000
  H   H17       1.0  0.65420  0.32980  0.42110  1.0000
  H   H18       1.0  0.34580  0.17020  0.92110  1.0000
  H   H19       1.0  0.34580  0.82980  0.07890  1.0000
  H   H20       1.0  0.65420  0.67020  0.57890  1.0000
  H   H21       1.0  0.15420  0.82980  0.42110  1.0000
  H   H22       1.0  0.84580  0.67020  0.92110  1.0000
  H   H23       1.0  0.84580  0.32980  0.07890  1.0000
  H   H24       1.0  0.15420  0.17020  0.57890  1.0000
  H   H25       1.0  0.34580  0.67020  0.57890  1.0000
  H   H26       1.0  0.65420  0.82980  0.07890  1.0000
  H   H27       1.0  0.65420  0.17020  0.92110  1.0000
  H   H28       1.0  0.34580  0.32980  0.42110  1.0000
  H   H29       1.0  0.84580  0.17020  0.57890  1.0000
  H   H30       1.0  0.15420  0.32980  0.07890  1.0000
  H   H31       1.0  0.15420  0.67020  0.92110  1.0000
  H   H32       1.0  0.84580  0.82980  0.42110  1.0000
  O   O49       1.0  0.61100  0.45240  0.41020  1.0000
  O   O50       1.0  0.38900  0.04760  0.91020  1.0000
  O   O51       1.0  0.38900  0.95240  0.08980  1.0000
  O   O52       1.0  0.61100  0.54760  0.58980  1.0000
  O   O53       1.0  0.11100  0.95240  0.41020  1.0000
  O   O54       1.0  0.88900  0.54760  0.91020  1.0000
  O   O55       1.0  0.88900  0.45240  0.08980  1.0000
  O   O56       1.0  0.11100  0.04760  0.58980  1.0000
  O   O57       1.0  0.38900  0.54760  0.58980  1.0000
  O   O58       1.0  0.61100  0.95240  0.08980  1.0000
  O   O59       1.0  0.61100  0.04760  0.91020  1.0000
  O   O60       1.0  0.38900  0.45240  0.41020  1.0000
  O   O61       1.0  0.88900  0.04760  0.58980  1.0000
  O   O62       1.0  0.11100  0.45240  0.08980  1.0000
  O   O63       1.0  0.11100  0.54760  0.91020  1.0000
  O   O64       1.0  0.88900  0.95240  0.41020  1.0000
  O   O65       1.0  0.66180  0.57540  0.26120  1.0000
  O   O66       1.0  0.33820  0.92460  0.76120  1.0000
  O   O67       1.0  0.33820  0.07540  0.23880  1.0000
  O   O68       1.0  0.66180  0.42460  0.73880  1.0000
  O   O69       1.0  0.16180  0.07540  0.26120  1.0000
  O   O70       1.0  0.83820  0.42460  0.76120  1.0000
  O   O71       1.0  0.83820  0.57540  0.23880  1.0000
  O   O72       1.0  0.16180  0.92460  0.73880  1.0000
  O   O73       1.0  0.33820  0.42460  0.73880  1.0000
  O   O74       1.0  0.66180  0.07540  0.23880  1.0000
  O   O75       1.0  0.66180  0.92460  0.76120  1.0000
  O   O76       1.0  0.33820  0.57540  0.26120  1.0000
  O   O77       1.0  0.83820  0.92460  0.73880  1.0000
  O   O78       1.0  0.16180  0.57540  0.23880  1.0000
  O   O79       1.0  0.16180  0.42460  0.76120  1.0000
  O   O80       1.0  0.83820  0.07540  0.26120  1.0000
  O   O81       1.0  0.66350  0.50790  0.35450  1.0000
  O   O82       1.0  0.33650  0.99210  0.85450  1.0000
  O   O83       1.0  0.33650  0.00790  0.14550  1.0000
  O   O84       1.0  0.66350  0.49210  0.64550  1.0000
  O   O85       1.0  0.16350  0.00790  0.35450  1.0000
  O   O86       1.0  0.83650  0.49210  0.85450  1.0000
  O   O87       1.0  0.83650  0.50790  0.14550  1.0000
  O   O88       1.0  0.16350  0.99210  0.64550  1.0000
  O   O89       1.0  0.33650  0.49210  0.64550  1.0000
  O   O90       1.0  0.66350  0.00790  0.14550  1.0000
  O   O91       1.0  0.66350  0.99210  0.85450  1.0000
  O   O92       1.0  0.33650  0.50790  0.35450  1.0000
  O   O93       1.0  0.83650  0.99210  0.64550  1.0000
  O   O94       1.0  0.16350  0.50790  0.14550  1.0000
  O   O95       1.0  0.16350  0.49210  0.85450  1.0000
  O   O96       1.0  0.83650  0.00790  0.35450  1.0000
  C   C49       1.0  0.72430  0.38790  0.32560  1.0000
  C   C50       1.0  0.27570  0.11210  0.82560  1.0000
  C   C51       1.0  0.27570  0.88790  0.17440  1.0000
  C   C52       1.0  0.72430  0.61210  0.67440  1.0000
  C   C53       1.0  0.22430  0.88790  0.32560  1.0000
  C   C54       1.0  0.77570  0.61210  0.82560  1.0000
  C   C55       1.0  0.77570  0.38790  0.17440  1.0000
  C   C56       1.0  0.22430  0.11210  0.67440  1.0000
  C   C57       1.0  0.27570  0.61210  0.67440  1.0000
  C   C58       1.0  0.72430  0.88790  0.17440  1.0000
  C   C59       1.0  0.72430  0.11210  0.82560  1.0000
  C   C60       1.0  0.27570  0.38790  0.32560  1.0000
  C   C61       1.0  0.77570  0.11210  0.67440  1.0000
  C   C62       1.0  0.22430  0.38790  0.17440  1.0000
  C   C63       1.0  0.22430  0.61210  0.82560  1.0000
  C   C64       1.0  0.77570  0.88790  0.32560  1.0000
  H   H33       1.0  0.72650  0.42700  0.30560  1.0000
  H   H34       1.0  0.27350  0.07300  0.80560  1.0000
  H   H35       1.0  0.27350  0.92700  0.19440  1.0000
  H   H36       1.0  0.72650  0.57300  0.69440  1.0000
  H   H37       1.0  0.22650  0.92700  0.30560  1.0000
  H   H38       1.0  0.77350  0.57300  0.80560  1.0000
  H   H39       1.0  0.77350  0.42700  0.19440  1.0000
  H   H40       1.0  0.22650  0.07300  0.69440  1.0000
  H   H41       1.0  0.27350  0.57300  0.69440  1.0000
  H   H42       1.0  0.72650  0.92700  0.19440  1.0000
  H   H43       1.0  0.72650  0.07300  0.80560  1.0000
  H   H44       1.0  0.27350  0.42700  0.30560  1.0000
  H   H45       1.0  0.77350  0.07300  0.69440  1.0000
  H   H46       1.0  0.22650  0.42700  0.19440  1.0000
  H   H47       1.0  0.22650  0.57300  0.80560  1.0000
  H   H48       1.0  0.77350  0.92700  0.30560  1.0000
  O   O97       1.0  0.55120  0.50910  0.29880  1.0000
  O   O98       1.0  0.44880  0.99090  0.79880  1.0000
  O   O99       1.0  0.44880  0.00910  0.20120  1.0000
  O   O100      1.0  0.55120  0.49090  0.70120  1.0000
  O   O101      1.0  0.05120  0.00910  0.29880  1.0000
  O   O102      1.0  0.94880  0.49090  0.79880  1.0000
  O   O103      1.0  0.94880  0.50910  0.20120  1.0000
  O   O104      1.0  0.05120  0.99090  0.70120  1.0000
  O   O105      1.0  0.44880  0.49090  0.70120  1.0000
  O   O106      1.0  0.55120  0.00910  0.20120  1.0000
  O   O107      1.0  0.55120  0.99090  0.79880  1.0000
  O   O108      1.0  0.44880  0.50910  0.29880  1.0000
  O   O109      1.0  0.94880  0.99090  0.70120  1.0000
  O   O110      1.0  0.05120  0.50910  0.20120  1.0000
  O   O111      1.0  0.05120  0.49090  0.79880  1.0000
  O   O112      1.0  0.94880  0.00910  0.29880  1.0000
  C   C65       1.0  0.75980  0.33080  0.31510  1.0000
  C   C66       1.0  0.24020  0.16920  0.81510  1.0000
  C   C67       1.0  0.24020  0.83080  0.18490  1.0000
  C   C68       1.0  0.75980  0.66920  0.68490  1.0000
  C   C69       1.0  0.25980  0.83080  0.31510  1.0000
  C   C70       1.0  0.74020  0.66920  0.81510  1.0000
  C   C71       1.0  0.74020  0.33080  0.18490  1.0000
  C   C72       1.0  0.25980  0.16920  0.68490  1.0000
  C   C73       1.0  0.24020  0.66920  0.68490  1.0000
  C   C74       1.0  0.75980  0.83080  0.18490  1.0000
  C   C75       1.0  0.75980  0.16920  0.81510  1.0000
  C   C76       1.0  0.24020  0.33080  0.31510  1.0000
  C   C77       1.0  0.74020  0.16920  0.68490  1.0000
  C   C78       1.0  0.25980  0.33080  0.18490  1.0000
  C   C79       1.0  0.25980  0.66920  0.81510  1.0000
  C   C80       1.0  0.74020  0.83080  0.31510  1.0000
  H   H49       1.0  0.78620  0.33140  0.28830  1.0000
  H   H50       1.0  0.21380  0.16860  0.78830  1.0000
  H   H51       1.0  0.21380  0.83140  0.21170  1.0000
  H   H52       1.0  0.78620  0.66860  0.71170  1.0000
  H   H53       1.0  0.28620  0.83140  0.28830  1.0000
  H   H54       1.0  0.71380  0.66860  0.78830  1.0000
  H   H55       1.0  0.71380  0.33140  0.21170  1.0000
  H   H56       1.0  0.28620  0.16860  0.71170  1.0000
  H   H57       1.0  0.21380  0.66860  0.71170  1.0000
  H   H58       1.0  0.78620  0.83140  0.21170  1.0000
  H   H59       1.0  0.78620  0.16860  0.78830  1.0000
  H   H60       1.0  0.21380  0.33140  0.28830  1.0000
  H   H61       1.0  0.71380  0.16860  0.71170  1.0000
  H   H62       1.0  0.28620  0.33140  0.21170  1.0000
  H   H63       1.0  0.28620  0.66860  0.78830  1.0000
  H   H64       1.0  0.71380  0.83140  0.28830  1.0000
  O   O113      1.0  0.44890  0.15720  0.23840  1.0000
  O   O114      1.0  0.55110  0.34280  0.73840  1.0000
  O   O115      1.0  0.55110  0.65720  0.26160  1.0000
  O   O116      1.0  0.44890  0.84280  0.76160  1.0000
  O   O117      1.0  0.94890  0.65720  0.23840  1.0000
  O   O118      1.0  0.05110  0.84280  0.73840  1.0000
  O   O119      1.0  0.05110  0.15720  0.26160  1.0000
  O   O120      1.0  0.94890  0.34280  0.76160  1.0000
  O   O121      1.0  0.55110  0.84280  0.76160  1.0000
  O   O122      1.0  0.44890  0.65720  0.26160  1.0000
  O   O123      1.0  0.44890  0.34280  0.73840  1.0000
  O   O124      1.0  0.55110  0.15720  0.23840  1.0000
  O   O125      1.0  0.05110  0.34280  0.76160  1.0000
  O   O126      1.0  0.94890  0.15720  0.26160  1.0000
  O   O127      1.0  0.94890  0.84280  0.73840  1.0000
  O   O128      1.0  0.05110  0.65720  0.23840  1.0000
  C   C81       1.0  0.64920  0.45420  0.37790  1.0000
  C   C82       1.0  0.35080  0.04580  0.87790  1.0000
  C   C83       1.0  0.35080  0.95420  0.12210  1.0000
  C   C84       1.0  0.64920  0.54580  0.62210  1.0000
  C   C85       1.0  0.14920  0.95420  0.37790  1.0000
  C   C86       1.0  0.85080  0.54580  0.87790  1.0000
  C   C87       1.0  0.85080  0.45420  0.12210  1.0000
  C   C88       1.0  0.14920  0.04580  0.62210  1.0000
  C   C89       1.0  0.35080  0.54580  0.62210  1.0000
  C   C90       1.0  0.64920  0.95420  0.12210  1.0000
  C   C91       1.0  0.64920  0.04580  0.87790  1.0000
  C   C92       1.0  0.35080  0.45420  0.37790  1.0000
  C   C93       1.0  0.85080  0.04580  0.62210  1.0000
  C   C94       1.0  0.14920  0.45420  0.12210  1.0000
  C   C95       1.0  0.14920  0.54580  0.87790  1.0000
  C   C96       1.0  0.85080  0.95420  0.37790  1.0000
  C   C97       1.0  0.50000  0.47900  0.29520  1.0000
  C   C98       1.0  0.50000  0.02100  0.79520  1.0000
  C   C99       1.0  0.50000  0.97900  0.20480  1.0000
  C   C100      1.0  0.50000  0.52100  0.70480  1.0000
  C   C101      1.0  0.00000  0.97900  0.29520  1.0000
  C   C102      1.0  0.00000  0.52100  0.79520  1.0000
  C   C103      1.0  0.00000  0.47900  0.20480  1.0000
  C   C104      1.0  0.00000  0.02100  0.70480  1.0000
  C   C105      1.0  0.79620  0.21180  0.33390  1.0000
  C   C106      1.0  0.20380  0.28820  0.83390  1.0000
  C   C107      1.0  0.20380  0.71180  0.16610  1.0000
  C   C108      1.0  0.79620  0.78820  0.66610  1.0000
  C   C109      1.0  0.29620  0.71180  0.33390  1.0000
  C   C110      1.0  0.70380  0.78820  0.83390  1.0000
  C   C111      1.0  0.70380  0.21180  0.16610  1.0000
  C   C112      1.0  0.29620  0.28820  0.66610  1.0000
  C   C113      1.0  0.20380  0.78820  0.66610  1.0000
  C   C114      1.0  0.79620  0.71180  0.16610  1.0000
  C   C115      1.0  0.79620  0.28820  0.83390  1.0000
  C   C116      1.0  0.20380  0.21180  0.33390  1.0000
  C   C117      1.0  0.70380  0.28820  0.66610  1.0000
  C   C118      1.0  0.29620  0.21180  0.16610  1.0000
  C   C119      1.0  0.29620  0.78820  0.83390  1.0000
  C   C120      1.0  0.70380  0.71180  0.33390  1.0000
  C   C121      1.0  0.68480  0.38890  0.36560  1.0000
  C   C122      1.0  0.31520  0.11110  0.86560  1.0000
  C   C123      1.0  0.31520  0.88890  0.13440  1.0000
  C   C124      1.0  0.68480  0.61110  0.63440  1.0000
  C   C125      1.0  0.18480  0.88890  0.36560  1.0000
  C   C126      1.0  0.81520  0.61110  0.86560  1.0000
  C   C127      1.0  0.81520  0.38890  0.13440  1.0000
  C   C128      1.0  0.18480  0.11110  0.63440  1.0000
  C   C129      1.0  0.31520  0.61110  0.63440  1.0000
  C   C130      1.0  0.68480  0.88890  0.13440  1.0000
  C   C131      1.0  0.68480  0.11110  0.86560  1.0000
  C   C132      1.0  0.31520  0.38890  0.36560  1.0000
  C   C133      1.0  0.81520  0.11110  0.63440  1.0000
  C   C134      1.0  0.18480  0.38890  0.13440  1.0000
  C   C135      1.0  0.18480  0.61110  0.86560  1.0000
  C   C136      1.0  0.81520  0.88890  0.36560  1.0000
  C   C137      1.0  0.50000  0.40220  0.28400  1.0000
  C   C138      1.0  0.50000  0.09780  0.78400  1.0000
  C   C139      1.0  0.50000  0.90220  0.21600  1.0000
  C   C140      1.0  0.50000  0.59780  0.71600  1.0000
  C   C141      1.0  0.00000  0.90220  0.28400  1.0000
  C   C142      1.0  0.00000  0.59780  0.78400  1.0000
  C   C143      1.0  0.00000  0.40220  0.21600  1.0000
  C   C144      1.0  0.00000  0.09780  0.71600  1.0000
  C   C145      1.0  0.44470  0.36760  0.27750  1.0000
  C   C146      1.0  0.55530  0.13240  0.77750  1.0000
  C   C147      1.0  0.55530  0.86760  0.22250  1.0000
  C   C148      1.0  0.44470  0.63240  0.72250  1.0000
  C   C149      1.0  0.94470  0.86760  0.27750  1.0000
  C   C150      1.0  0.05530  0.63240  0.77750  1.0000
  C   C151      1.0  0.05530  0.36760  0.22250  1.0000
  C   C152      1.0  0.94470  0.13240  0.72250  1.0000
  C   C153      1.0  0.55530  0.63240  0.72250  1.0000
  C   C154      1.0  0.44470  0.86760  0.22250  1.0000
  C   C155      1.0  0.44470  0.13240  0.77750  1.0000
  C   C156      1.0  0.55530  0.36760  0.27750  1.0000
  C   C157      1.0  0.05530  0.13240  0.72250  1.0000
  C   C158      1.0  0.94470  0.36760  0.22250  1.0000
  C   C159      1.0  0.94470  0.63240  0.77750  1.0000
  C   C160      1.0  0.05530  0.86760  0.27750  1.0000
  H   H65       1.0  0.40760  0.39150  0.28150  1.0000
  H   H66       1.0  0.59240  0.10850  0.78150  1.0000
  H   H67       1.0  0.59240  0.89150  0.21850  1.0000
  H   H68       1.0  0.40760  0.60850  0.71850  1.0000
  H   H69       1.0  0.90760  0.89150  0.28150  1.0000
  H   H70       1.0  0.09240  0.60850  0.78150  1.0000
  H   H71       1.0  0.09240  0.39150  0.21850  1.0000
  H   H72       1.0  0.90760  0.10850  0.71850  1.0000
  H   H73       1.0  0.59240  0.60850  0.71850  1.0000
  H   H74       1.0  0.40760  0.89150  0.21850  1.0000
  H   H75       1.0  0.40760  0.10850  0.78150  1.0000
  H   H76       1.0  0.59240  0.39150  0.28150  1.0000
  H   H77       1.0  0.09240  0.10850  0.71850  1.0000
  H   H78       1.0  0.90760  0.39150  0.21850  1.0000
  H   H79       1.0  0.90760  0.60850  0.78150  1.0000
  H   H80       1.0  0.09240  0.89150  0.28150  1.0000
  C   C161      1.0  0.44410  0.29730  0.26500  1.0000
  C   C162      1.0  0.55590  0.20270  0.76500  1.0000
  C   C163      1.0  0.55590  0.79730  0.23500  1.0000
  C   C164      1.0  0.44410  0.70270  0.73500  1.0000
  C   C165      1.0  0.94410  0.79730  0.26500  1.0000
  C   C166      1.0  0.05590  0.70270  0.76500  1.0000
  C   C167      1.0  0.05590  0.29730  0.23500  1.0000
  C   C168      1.0  0.94410  0.20270  0.73500  1.0000
  C   C169      1.0  0.55590  0.70270  0.73500  1.0000
  C   C170      1.0  0.44410  0.79730  0.23500  1.0000
  C   C171      1.0  0.44410  0.20270  0.76500  1.0000
  C   C172      1.0  0.55590  0.29730  0.26500  1.0000
  C   C173      1.0  0.05590  0.20270  0.73500  1.0000
  C   C174      1.0  0.94410  0.29730  0.23500  1.0000
  C   C175      1.0  0.94410  0.70270  0.76500  1.0000
  C   C176      1.0  0.05590  0.79730  0.26500  1.0000
  H   H81       1.0  0.40680  0.27400  0.26080  1.0000
  H   H82       1.0  0.59320  0.22600  0.76080  1.0000
  H   H83       1.0  0.59320  0.77400  0.23920  1.0000
  H   H84       1.0  0.40680  0.72600  0.73920  1.0000
  H   H85       1.0  0.90680  0.77400  0.26080  1.0000
  H   H86       1.0  0.09320  0.72600  0.76080  1.0000
  H   H87       1.0  0.09320  0.27400  0.23920  1.0000
  H   H88       1.0  0.90680  0.22600  0.73920  1.0000
  H   H89       1.0  0.59320  0.72600  0.73920  1.0000
  H   H90       1.0  0.40680  0.77400  0.23920  1.0000
  H   H91       1.0  0.40680  0.22600  0.76080  1.0000
  H   H92       1.0  0.59320  0.27400  0.26080  1.0000
  H   H93       1.0  0.09320  0.22600  0.73920  1.0000
  H   H94       1.0  0.90680  0.27400  0.23920  1.0000
  H   H95       1.0  0.90680  0.72600  0.76080  1.0000
  H   H96       1.0  0.09320  0.77400  0.26080  1.0000
  C   C177      1.0  0.50000  0.26210  0.25890  1.0000
  C   C178      1.0  0.50000  0.23790  0.75890  1.0000
  C   C179      1.0  0.50000  0.76210  0.24110  1.0000
  C   C180      1.0  0.50000  0.73790  0.74110  1.0000
  C   C181      1.0  0.00000  0.76210  0.25890  1.0000
  C   C182      1.0  0.00000  0.73790  0.75890  1.0000
  C   C183      1.0  0.00000  0.26210  0.24110  1.0000
  C   C184      1.0  0.00000  0.23790  0.74110  1.0000
  C   C185      1.0  0.50000  0.18680  0.24300  1.0000
  C   C186      1.0  0.50000  0.31320  0.74300  1.0000
  C   C187      1.0  0.50000  0.68680  0.25700  1.0000
  C   C188      1.0  0.50000  0.81320  0.75700  1.0000
  C   C189      1.0  0.00000  0.68680  0.24300  1.0000
  C   C190      1.0  0.00000  0.81320  0.74300  1.0000
  C   C191      1.0  0.00000  0.18680  0.25700  1.0000
  C   C192      1.0  0.00000  0.31320  0.75700  1.0000
