data_image0
_chemical_formula_structural       O28C8H4C8H4C4O8C4H4O4C8H4C4H4C4H4C24Zn8
_chemical_formula_sum              "O40 C64 H24 Zn8"
_cell_length_a       14.3288
_cell_length_b       13.2643
_cell_length_c       14.3563
_cell_angle_alpha    90
_cell_angle_beta     91.296
_cell_angle_gamma    90

_space_group_name_H-M_alt    "P 1"
_space_group_IT_number       1

loop_
  _space_group_symop_operation_xyz
  'x, y, z'

loop_
  _atom_site_type_symbol
  _atom_site_label
  _atom_site_symmetry_multiplicity
  _atom_site_fract_x
  _atom_site_fract_y
  _atom_site_fract_z
  _atom_site_occupancy
  O   O1        1.0  0.58530  0.66590  0.31090  1.0000
  O   O2        1.0  0.41470  0.16590  0.18910  1.0000
  O   O3        1.0  0.41470  0.33410  0.68910  1.0000
  O   O4        1.0  0.58530  0.83410  0.81090  1.0000
  O   O5        1.0  0.23050  0.89880  0.32300  1.0000
  O   O6        1.0  0.76950  0.39880  0.17700  1.0000
  O   O7        1.0  0.76950  0.10120  0.67700  1.0000
  O   O8        1.0  0.23050  0.60120  0.82300  1.0000
  O   O9        1.0  0.20890  0.09430  0.19880  1.0000
  O   O10       1.0  0.79110  0.59430  0.30120  1.0000
  O   O11       1.0  0.79110  0.90570  0.80120  1.0000
  O   O12       1.0  0.20890  0.40570  0.69880  1.0000
  O   O13       1.0  0.36660  0.51190  0.54800  1.0000
  O   O14       1.0  0.63340  0.01190  0.95200  1.0000
  O   O15       1.0  0.63340  0.48810  0.45200  1.0000
  O   O16       1.0  0.36660  0.98810  0.04800  1.0000
  O   O17       1.0  0.36610  0.95070  0.26460  1.0000
  O   O18       1.0  0.63390  0.45070  0.23540  1.0000
  O   O19       1.0  0.63390  0.04930  0.73540  1.0000
  O   O20       1.0  0.36610  0.54930  0.76460  1.0000
  O   O21       1.0  0.13250  0.42020  0.92050  1.0000
  O   O22       1.0  0.86750  0.92020  0.57950  1.0000
  O   O23       1.0  0.86750  0.57980  0.07950  1.0000
  O   O24       1.0  0.13250  0.07980  0.42050  1.0000
  O   O25       1.0  0.97600  0.47010  0.21480  1.0000
  O   O26       1.0  0.02400  0.97010  0.28520  1.0000
  O   O27       1.0  0.02400  0.52990  0.78520  1.0000
  O   O28       1.0  0.97600  0.02990  0.71480  1.0000
  C   C1        1.0  0.31520  0.88820  0.30790  1.0000
  C   C2        1.0  0.68480  0.38820  0.19210  1.0000
  C   C3        1.0  0.68480  0.11180  0.69210  1.0000
  C   C4        1.0  0.31520  0.61180  0.80790  1.0000
  C   C5        1.0  0.45790  0.62910  0.41620  1.0000
  C   C6        1.0  0.54210  0.12910  0.08380  1.0000
  C   C7        1.0  0.54210  0.37090  0.58380  1.0000
  C   C8        1.0  0.45790  0.87090  0.91620  1.0000
  H   H1        1.0  0.48850  0.57030  0.43940  1.0000
  H   H2        1.0  0.51150  0.07030  0.06060  1.0000
  H   H3        1.0  0.51150  0.42970  0.56060  1.0000
  H   H4        1.0  0.48850  0.92970  0.93940  1.0000
  C   C9        1.0  0.17260  0.18250  0.16690  1.0000
  C   C10       1.0  0.82740  0.68250  0.33310  1.0000
  C   C11       1.0  0.82740  0.81750  0.83310  1.0000
  C   C12       1.0  0.17260  0.31750  0.66690  1.0000
  C   C13       1.0  0.19950  0.22240  0.08220  1.0000
  C   C14       1.0  0.80050  0.72240  0.41780  1.0000
  C   C15       1.0  0.80050  0.77760  0.91780  1.0000
  C   C16       1.0  0.19950  0.27760  0.58220  1.0000
  H   H5        1.0  0.24550  0.18890  0.04690  1.0000
  H   H6        1.0  0.75450  0.68890  0.45310  1.0000
  H   H7        1.0  0.75450  0.81110  0.95310  1.0000
  H   H8        1.0  0.24550  0.31110  0.54690  1.0000
  C   C17       1.0  0.50040  0.68620  0.34740  1.0000
  C   C18       1.0  0.49960  0.18620  0.15260  1.0000
  C   C19       1.0  0.49960  0.31380  0.65260  1.0000
  C   C20       1.0  0.50040  0.81380  0.84740  1.0000
  O   O29       1.0  0.96450  0.34050  0.31260  1.0000
  O   O30       1.0  0.03550  0.84050  0.18740  1.0000
  O   O31       1.0  0.03550  0.65950  0.68740  1.0000
  O   O32       1.0  0.96450  0.15950  0.81260  1.0000
  O   O33       1.0  0.26640  0.63630  0.57780  1.0000
  O   O34       1.0  0.73360  0.13630  0.92220  1.0000
  O   O35       1.0  0.73360  0.36370  0.42220  1.0000
  O   O36       1.0  0.26640  0.86370  0.07780  1.0000
  C   C21       1.0  0.10760  0.23560  0.22010  1.0000
  C   C22       1.0  0.89240  0.73560  0.27990  1.0000
  C   C23       1.0  0.89240  0.76440  0.77990  1.0000
  C   C24       1.0  0.10760  0.26440  0.72010  1.0000
  H   H9        1.0  0.08930  0.20950  0.27860  1.0000
  H   H10       1.0  0.91070  0.70950  0.22140  1.0000
  H   H11       1.0  0.91070  0.79050  0.72140  1.0000
  H   H12       1.0  0.08930  0.29050  0.77860  1.0000
  O   O37       1.0  0.25130  0.31200  0.91220  1.0000
  O   O38       1.0  0.74870  0.81200  0.58780  1.0000
  O   O39       1.0  0.74870  0.68800  0.08780  1.0000
  O   O40       1.0  0.25130  0.18800  0.41220  1.0000
  C   C25       1.0  0.36340  0.79600  0.34680  1.0000
  C   C26       1.0  0.63660  0.29600  0.15320  1.0000
  C   C27       1.0  0.63660  0.20400  0.65320  1.0000
  C   C28       1.0  0.36340  0.70400  0.84680  1.0000
  C   C29       1.0  0.09490  0.36350  0.10030  1.0000
  C   C30       1.0  0.90510  0.86350  0.39970  1.0000
  C   C31       1.0  0.90510  0.63650  0.89970  1.0000
  C   C32       1.0  0.09490  0.13650  0.60030  1.0000
  H   H13       1.0  0.06780  0.42410  0.07690  1.0000
  H   H14       1.0  0.93220  0.92410  0.42310  1.0000
  H   H15       1.0  0.93220  0.57590  0.92310  1.0000
  H   H16       1.0  0.06780  0.07590  0.57690  1.0000
  C   C33       1.0  0.45080  0.77150  0.31400  1.0000
  C   C34       1.0  0.54920  0.27150  0.18600  1.0000
  C   C35       1.0  0.54920  0.22850  0.68600  1.0000
  C   C36       1.0  0.45080  0.72850  0.81400  1.0000
  H   H17       1.0  0.47800  0.81290  0.26790  1.0000
  H   H18       1.0  0.52200  0.31290  0.23210  1.0000
  H   H19       1.0  0.52200  0.18710  0.73210  1.0000
  H   H20       1.0  0.47800  0.68710  0.76790  1.0000
  C   C37       1.0  0.32300  0.74010  0.41650  1.0000
  C   C38       1.0  0.67700  0.24010  0.08350  1.0000
  C   C39       1.0  0.67700  0.25990  0.58350  1.0000
  C   C40       1.0  0.32300  0.75990  0.91650  1.0000
  H   H21       1.0  0.26380  0.75810  0.43980  1.0000
  H   H22       1.0  0.73620  0.25810  0.06020  1.0000
  H   H23       1.0  0.73620  0.24190  0.56020  1.0000
  H   H24       1.0  0.26380  0.74190  0.93980  1.0000
  C   C41       1.0  0.15910  0.31210  0.04840  1.0000
  C   C42       1.0  0.84090  0.81210  0.45160  1.0000
  C   C43       1.0  0.84090  0.68790  0.95160  1.0000
  C   C44       1.0  0.15910  0.18790  0.54840  1.0000
  C   C45       1.0  0.06940  0.32680  0.18750  1.0000
  C   C46       1.0  0.93060  0.82680  0.31250  1.0000
  C   C47       1.0  0.93060  0.67320  0.81250  1.0000
  C   C48       1.0  0.06940  0.17320  0.68750  1.0000
  C   C49       1.0  0.18450  0.34940  0.95230  1.0000
  C   C50       1.0  0.81550  0.84940  0.54770  1.0000
  C   C51       1.0  0.81550  0.65060  0.04770  1.0000
  C   C52       1.0  0.18450  0.15060  0.45230  1.0000
  C   C53       1.0  0.99770  0.38010  0.24380  1.0000
  C   C54       1.0  0.00230  0.88010  0.25620  1.0000
  C   C55       1.0  0.00230  0.61990  0.75620  1.0000
  C   C56       1.0  0.99770  0.11990  0.74380  1.0000
  C   C57       1.0  0.33020  0.59960  0.53070  1.0000
  C   C58       1.0  0.66980  0.09960  0.96930  1.0000
  C   C59       1.0  0.66980  0.40040  0.46930  1.0000
  C   C60       1.0  0.33020  0.90040  0.03070  1.0000
  C   C61       1.0  0.37190  0.65610  0.45180  1.0000
  C   C62       1.0  0.62810  0.15610  0.04820  1.0000
  C   C63       1.0  0.62810  0.34390  0.54820  1.0000
  C   C64       1.0  0.37190  0.84390  0.95180  1.0000
  Zn  Zn1       1.0  0.33592  0.04960  0.16657  1.0000
  Zn  Zn2       1.0  0.66408  0.54960  0.33343  1.0000
  Zn  Zn3       1.0  0.66408  0.95040  0.83343  1.0000
  Zn  Zn4       1.0  0.33592  0.45040  0.66657  1.0000
  Zn  Zn5       1.0  0.15203  0.01798  0.29943  1.0000
  Zn  Zn6       1.0  0.84797  0.51798  0.20057  1.0000
  Zn  Zn7       1.0  0.84797  0.98202  0.70057  1.0000
  Zn  Zn8       1.0  0.15203  0.48202  0.79943  1.0000
