data_image0
_chemical_formula_structural       Gd4O32C4H4C4H4C4H4C4H4
_chemical_formula_sum              "Gd4 O32 C16 H16"
_cell_length_a       8.7908
_cell_length_b       18.2633
_cell_length_c       6.7547
_cell_angle_alpha    90
_cell_angle_beta     90
_cell_angle_gamma    90

_space_group_name_H-M_alt    "P 1"
_space_group_IT_number       1

loop_
  _space_group_symop_operation_xyz
  'x, y, z'

loop_
  _atom_site_type_symbol
  _atom_site_label
  _atom_site_symmetry_multiplicity
  _atom_site_fract_x
  _atom_site_fract_y
  _atom_site_fract_z
  _atom_site_occupancy
  Gd  Gd1       1.0  0.24404  0.60541  0.50040  1.0000
  Gd  Gd2       1.0  0.75596  0.39459  0.00040  1.0000
  Gd  Gd3       1.0  0.74404  0.89459  0.50040  1.0000
  Gd  Gd4       1.0  0.25596  0.10541  0.00040  1.0000
  O   O1        1.0  0.15340  0.50100  0.68650  1.0000
  O   O2        1.0  0.84660  0.49900  0.18650  1.0000
  O   O3        1.0  0.65340  0.99900  0.68650  1.0000
  O   O4        1.0  0.34660  0.00100  0.18650  1.0000
  O   O5        1.0  0.99410  0.42930  0.85580  1.0000
  O   O6        1.0  0.00590  0.57070  0.35580  1.0000
  O   O7        1.0  0.49410  0.07070  0.85580  1.0000
  O   O8        1.0  0.50590  0.92930  0.35580  1.0000
  O   O9        1.0  0.22150  0.65430  0.83400  1.0000
  O   O10       1.0  0.77850  0.34570  0.33400  1.0000
  O   O11       1.0  0.72150  0.84570  0.83400  1.0000
  O   O12       1.0  0.27850  0.15430  0.33400  1.0000
  O   O13       1.0  0.25280  0.65110  0.15900  1.0000
  O   O14       1.0  0.74720  0.34890  0.65900  1.0000
  O   O15       1.0  0.75280  0.84890  0.15900  1.0000
  O   O16       1.0  0.24720  0.15110  0.65900  1.0000
  O   O17       1.0  0.44230  0.69220  0.49200  1.0000
  O   O18       1.0  0.55770  0.30780  0.99200  1.0000
  O   O19       1.0  0.94230  0.80780  0.49200  1.0000
  O   O20       1.0  0.05770  0.19220  0.99200  1.0000
  O   O21       1.0  0.60160  0.78370  0.50400  1.0000
  O   O22       1.0  0.39840  0.21630  0.00400  1.0000
  O   O23       1.0  0.10160  0.71630  0.50400  1.0000
  O   O24       1.0  0.89840  0.28370  0.00400  1.0000
  O   O25       1.0  0.35490  0.50980  0.31590  1.0000
  O   O26       1.0  0.64510  0.49020  0.81590  1.0000
  O   O27       1.0  0.85490  0.99020  0.31590  1.0000
  O   O28       1.0  0.14510  0.00980  0.81590  1.0000
  O   O29       1.0  0.53040  0.43760  0.18740  1.0000
  O   O30       1.0  0.46960  0.56240  0.68740  1.0000
  O   O31       1.0  0.03040  0.06240  0.18740  1.0000
  O   O32       1.0  0.96960  0.93760  0.68740  1.0000
  C   C1        1.0  0.03290  0.47770  0.74300  1.0000
  C   C2        1.0  0.96710  0.52230  0.24300  1.0000
  C   C3        1.0  0.53290  0.02230  0.74300  1.0000
  C   C4        1.0  0.46710  0.97770  0.24300  1.0000
  H   H1        1.0  0.95068  0.50237  0.68794  1.0000
  H   H2        1.0  0.04932  0.49763  0.18794  1.0000
  H   H3        1.0  0.45068  0.99763  0.68794  1.0000
  H   H4        1.0  0.54932  0.00237  0.18794  1.0000
  C   C5        1.0  0.23790  0.62250  0.99900  1.0000
  C   C6        1.0  0.76210  0.37750  0.49900  1.0000
  C   C7        1.0  0.73790  0.87750  0.99900  1.0000
  C   C8        1.0  0.26210  0.12250  0.49900  1.0000
  H   H5        1.0  0.23868  0.57154  0.99621  1.0000
  H   H6        1.0  0.76132  0.42846  0.49621  1.0000
  H   H7        1.0  0.73868  0.92846  0.99621  1.0000
  H   H8        1.0  0.26132  0.07154  0.49621  1.0000
  C   C9        1.0  0.48700  0.75320  0.43650  1.0000
  C   C10       1.0  0.51300  0.24680  0.93650  1.0000
  C   C11       1.0  0.98700  0.74680  0.43650  1.0000
  C   C12       1.0  0.01300  0.25320  0.93650  1.0000
  H   H9        1.0  0.43162  0.77733  0.33898  1.0000
  H   H10       1.0  0.56838  0.22267  0.83898  1.0000
  H   H11       1.0  0.93162  0.72267  0.33898  1.0000
  H   H12       1.0  0.06838  0.27733  0.83898  1.0000
  C   C13       1.0  0.48580  0.49640  0.25400  1.0000
  C   C14       1.0  0.51420  0.50360  0.75400  1.0000
  C   C15       1.0  0.98580  0.00360  0.25400  1.0000
  C   C16       1.0  0.01420  0.99640  0.75400  1.0000
  H   H13       1.0  0.55599  0.53448  0.25823  1.0000
  H   H14       1.0  0.44401  0.46552  0.75823  1.0000
  H   H15       1.0  0.05599  0.96552  0.25823  1.0000
  H   H16       1.0  0.94401  0.03448  0.75823  1.0000
