data_image0
_chemical_formula_structural       Y4O32C4H4C4H4C4H4C4H4
_chemical_formula_sum              "Y4 O32 C16 H16"
_cell_length_a       8.7083
_cell_length_b       18.1028
_cell_length_c       6.6993
_cell_angle_alpha    90
_cell_angle_beta     90
_cell_angle_gamma    90

_space_group_name_H-M_alt    "P 1"
_space_group_IT_number       1

loop_
  _space_group_symop_operation_xyz
  'x, y, z'

loop_
  _atom_site_type_symbol
  _atom_site_label
  _atom_site_symmetry_multiplicity
  _atom_site_fract_x
  _atom_site_fract_y
  _atom_site_fract_z
  _atom_site_occupancy
  Y   Y1        1.0  0.24435  0.60562  0.50000  1.0000
  Y   Y2        1.0  0.75565  0.39438  0.00000  1.0000
  Y   Y3        1.0  0.74435  0.89438  0.50000  1.0000
  Y   Y4        1.0  0.25565  0.10562  0.00000  1.0000
  O   O1        1.0  0.15460  0.50240  0.68790  1.0000
  O   O2        1.0  0.84540  0.49760  0.18790  1.0000
  O   O3        1.0  0.65460  0.99760  0.68790  1.0000
  O   O4        1.0  0.34540  0.00240  0.18790  1.0000
  O   O5        1.0  0.99360  0.42940  0.85540  1.0000
  O   O6        1.0  0.00640  0.57060  0.35540  1.0000
  O   O7        1.0  0.49360  0.07060  0.85540  1.0000
  O   O8        1.0  0.50640  0.92940  0.35540  1.0000
  O   O9        1.0  0.22180  0.65400  0.83100  1.0000
  O   O10       1.0  0.77820  0.34600  0.33100  1.0000
  O   O11       1.0  0.72180  0.84600  0.83100  1.0000
  O   O12       1.0  0.27820  0.15400  0.33100  1.0000
  O   O13       1.0  0.25220  0.65170  0.16000  1.0000
  O   O14       1.0  0.74780  0.34830  0.66000  1.0000
  O   O15       1.0  0.75220  0.84830  0.16000  1.0000
  O   O16       1.0  0.24780  0.15170  0.66000  1.0000
  O   O17       1.0  0.44070  0.69158  0.49210  1.0000
  O   O18       1.0  0.55930  0.30842  0.99210  1.0000
  O   O19       1.0  0.94070  0.80842  0.49210  1.0000
  O   O20       1.0  0.05930  0.19158  0.99210  1.0000
  O   O21       1.0  0.60290  0.78443  0.50190  1.0000
  O   O22       1.0  0.39710  0.21557  0.00190  1.0000
  O   O23       1.0  0.10290  0.71557  0.50190  1.0000
  O   O24       1.0  0.89710  0.28443  0.00190  1.0000
  O   O25       1.0  0.35440  0.51060  0.31880  1.0000
  O   O26       1.0  0.64560  0.48940  0.81880  1.0000
  O   O27       1.0  0.85440  0.98940  0.31880  1.0000
  O   O28       1.0  0.14560  0.01060  0.81880  1.0000
  O   O29       1.0  0.53000  0.43730  0.18660  1.0000
  O   O30       1.0  0.47000  0.56270  0.68660  1.0000
  O   O31       1.0  0.03000  0.06270  0.18660  1.0000
  O   O32       1.0  0.97000  0.93730  0.68660  1.0000
  C   C1        1.0  0.02710  0.47930  0.74010  1.0000
  C   C2        1.0  0.97290  0.52070  0.24010  1.0000
  C   C3        1.0  0.52710  0.02070  0.74010  1.0000
  C   C4        1.0  0.47290  0.97930  0.24010  1.0000
  H   H1        1.0  0.94385  0.50356  0.68297  1.0000
  H   H2        1.0  0.05615  0.49644  0.18297  1.0000
  H   H3        1.0  0.44385  0.99644  0.68297  1.0000
  H   H4        1.0  0.55615  0.00356  0.18297  1.0000
  C   C5        1.0  0.23810  0.62160  0.99800  1.0000
  C   C6        1.0  0.76190  0.37840  0.49800  1.0000
  C   C7        1.0  0.73810  0.87840  0.99800  1.0000
  C   C8        1.0  0.26190  0.12160  0.49800  1.0000
  H   H5        1.0  0.23945  0.57025  0.99598  1.0000
  H   H6        1.0  0.76055  0.42975  0.49598  1.0000
  H   H7        1.0  0.73945  0.92975  0.99598  1.0000
  H   H8        1.0  0.26055  0.07025  0.49598  1.0000
  C   C9        1.0  0.48550  0.75320  0.43800  1.0000
  C   C10       1.0  0.51450  0.24680  0.93800  1.0000
  C   C11       1.0  0.98550  0.74680  0.43800  1.0000
  C   C12       1.0  0.01450  0.25320  0.93800  1.0000
  H   H9        1.0  0.42725  0.77801  0.34289  1.0000
  H   H10       1.0  0.57275  0.22199  0.84289  1.0000
  H   H11       1.0  0.92725  0.72199  0.34289  1.0000
  H   H12       1.0  0.07275  0.27801  0.84289  1.0000
  C   C13       1.0  0.48770  0.49610  0.25910  1.0000
  C   C14       1.0  0.51230  0.50390  0.75910  1.0000
  C   C15       1.0  0.98770  0.00390  0.25910  1.0000
  C   C16       1.0  0.01230  0.99610  0.75910  1.0000
  H   H13       1.0  0.56087  0.53328  0.27085  1.0000
  H   H14       1.0  0.43913  0.46672  0.77085  1.0000
  H   H15       1.0  0.06087  0.96672  0.27085  1.0000
  H   H16       1.0  0.93913  0.03328  0.77085  1.0000
