data_image0
_chemical_formula_structural       Bi8O64N16C16H16C8H16C16H16C8H16C8H16C16H16C8
_chemical_formula_sum              "Bi8 O64 N16 C80 H96"
_cell_length_a       23.532
_cell_length_b       8.675
_cell_length_c       16.116
_cell_angle_alpha    90
_cell_angle_beta     98.114
_cell_angle_gamma    90

_space_group_name_H-M_alt    "P 1"
_space_group_IT_number       1

loop_
  _space_group_symop_operation_xyz
  'x, y, z'

loop_
  _atom_site_type_symbol
  _atom_site_label
  _atom_site_symmetry_multiplicity
  _atom_site_fract_x
  _atom_site_fract_y
  _atom_site_fract_z
  _atom_site_occupancy
  Bi  Bi1       1.0  0.31290  0.55320  0.50479  1.0000
  Bi  Bi2       1.0  0.68710  0.55320  0.99521  1.0000
  Bi  Bi3       1.0  0.81290  0.05320  0.50479  1.0000
  Bi  Bi4       1.0  0.18710  0.05320  0.99521  1.0000
  Bi  Bi5       1.0  0.68710  0.44680  0.49521  1.0000
  Bi  Bi6       1.0  0.31290  0.44680  0.00479  1.0000
  Bi  Bi7       1.0  0.18710  0.94680  0.49521  1.0000
  Bi  Bi8       1.0  0.81290  0.94680  0.00479  1.0000
  O   O1        1.0  0.26122  0.35820  0.42020  1.0000
  O   O2        1.0  0.73878  0.35820  0.07980  1.0000
  O   O3        1.0  0.76122  0.85820  0.42020  1.0000
  O   O4        1.0  0.23878  0.85820  0.07980  1.0000
  O   O5        1.0  0.73878  0.64180  0.57980  1.0000
  O   O6        1.0  0.26122  0.64180  0.92020  1.0000
  O   O7        1.0  0.23878  0.14180  0.57980  1.0000
  O   O8        1.0  0.76122  0.14180  0.92020  1.0000
  O   O9        1.0  0.25880  0.10400  0.40130  1.0000
  O   O10       1.0  0.74120  0.10400  0.09870  1.0000
  O   O11       1.0  0.75880  0.60400  0.40130  1.0000
  O   O12       1.0  0.24120  0.60400  0.09870  1.0000
  O   O13       1.0  0.74120  0.89600  0.59870  1.0000
  O   O14       1.0  0.25880  0.89600  0.90130  1.0000
  O   O15       1.0  0.24120  0.39600  0.59870  1.0000
  O   O16       1.0  0.75880  0.39600  0.90130  1.0000
  O   O17       1.0  0.47909  0.39670  0.63040  1.0000
  O   O18       1.0  0.52091  0.39670  0.86960  1.0000
  O   O19       1.0  0.97909  0.89670  0.63040  1.0000
  O   O20       1.0  0.02091  0.89670  0.86960  1.0000
  O   O21       1.0  0.52091  0.60330  0.36960  1.0000
  O   O22       1.0  0.47909  0.60330  0.13040  1.0000
  O   O23       1.0  0.02091  0.10330  0.36960  1.0000
  O   O24       1.0  0.97909  0.10330  0.13040  1.0000
  O   O25       1.0  0.38488  0.42290  0.61030  1.0000
  O   O26       1.0  0.61512  0.42290  0.88970  1.0000
  O   O27       1.0  0.88488  0.92290  0.61030  1.0000
  O   O28       1.0  0.11512  0.92290  0.88970  1.0000
  O   O29       1.0  0.61512  0.57710  0.38970  1.0000
  O   O30       1.0  0.38488  0.57710  0.11030  1.0000
  O   O31       1.0  0.11512  0.07710  0.38970  1.0000
  O   O32       1.0  0.88488  0.07710  0.11030  1.0000
  O   O33       1.0  0.39302  0.71210  0.52134  1.0000
  O   O34       1.0  0.60698  0.71210  0.97866  1.0000
  O   O35       1.0  0.89302  0.21210  0.52134  1.0000
  O   O36       1.0  0.10698  0.21210  0.97866  1.0000
  O   O37       1.0  0.60698  0.28790  0.47866  1.0000
  O   O38       1.0  0.39302  0.28790  0.02134  1.0000
  O   O39       1.0  0.10698  0.78790  0.47866  1.0000
  O   O40       1.0  0.89302  0.78790  0.02134  1.0000
  O   O41       1.0  0.43209  0.92210  0.47760  1.0000
  O   O42       1.0  0.56791  0.92210  0.02240  1.0000
  O   O43       1.0  0.93209  0.42210  0.47760  1.0000
  O   O44       1.0  0.06791  0.42210  0.02240  1.0000
  O   O45       1.0  0.56791  0.07790  0.52240  1.0000
  O   O46       1.0  0.43209  0.07790  0.97760  1.0000
  O   O47       1.0  0.06791  0.57790  0.52240  1.0000
  O   O48       1.0  0.93209  0.57790  0.97760  1.0000
  O   O49       1.0  0.22962  0.68360  0.42790  1.0000
  O   O50       1.0  0.77038  0.68360  0.07210  1.0000
  O   O51       1.0  0.72962  0.18360  0.42790  1.0000
  O   O52       1.0  0.27038  0.18360  0.07210  1.0000
  O   O53       1.0  0.77038  0.31640  0.57210  1.0000
  O   O54       1.0  0.22962  0.31640  0.92790  1.0000
  O   O55       1.0  0.27038  0.81640  0.57210  1.0000
  O   O56       1.0  0.72962  0.81640  0.92790  1.0000
  O   O57       1.0  0.18818  0.77210  0.30740  1.0000
  O   O58       1.0  0.81182  0.77210  0.19260  1.0000
  O   O59       1.0  0.68818  0.27210  0.30740  1.0000
  O   O60       1.0  0.31182  0.27210  0.19260  1.0000
  O   O61       1.0  0.81182  0.22790  0.69260  1.0000
  O   O62       1.0  0.18818  0.22790  0.80740  1.0000
  O   O63       1.0  0.31182  0.72790  0.69260  1.0000
  O   O64       1.0  0.68818  0.72790  0.80740  1.0000
  N   N1        1.0  0.37505  0.37090  0.44370  1.0000
  N   N2        1.0  0.62495  0.37090  0.05630  1.0000
  N   N3        1.0  0.87505  0.87090  0.44370  1.0000
  N   N4        1.0  0.12495  0.87090  0.05630  1.0000
  N   N5        1.0  0.62495  0.62910  0.55630  1.0000
  N   N6        1.0  0.37505  0.62910  0.94370  1.0000
  N   N7        1.0  0.12495  0.12910  0.55630  1.0000
  N   N8        1.0  0.87505  0.12910  0.94370  1.0000
  N   N9        1.0  0.33267  0.65960  0.37110  1.0000
  N   N10       1.0  0.66733  0.65960  0.12890  1.0000
  N   N11       1.0  0.83267  0.15960  0.37110  1.0000
  N   N12       1.0  0.16733  0.15960  0.12890  1.0000
  N   N13       1.0  0.66733  0.34040  0.62890  1.0000
  N   N14       1.0  0.33267  0.34040  0.87110  1.0000
  N   N15       1.0  0.16733  0.84040  0.62890  1.0000
  N   N16       1.0  0.83267  0.84040  0.87110  1.0000
  C   C1        1.0  0.28420  0.22490  0.42070  1.0000
  C   C2        1.0  0.71580  0.22490  0.07930  1.0000
  C   C3        1.0  0.78420  0.72490  0.42070  1.0000
  C   C4        1.0  0.21580  0.72490  0.07930  1.0000
  C   C5        1.0  0.71580  0.77510  0.57930  1.0000
  C   C6        1.0  0.28420  0.77510  0.92070  1.0000
  C   C7        1.0  0.21580  0.27510  0.57930  1.0000
  C   C8        1.0  0.78420  0.27510  0.92070  1.0000
  C   C9        1.0  0.34830  0.21940  0.44870  1.0000
  C   C10       1.0  0.65170  0.21940  0.05130  1.0000
  C   C11       1.0  0.84830  0.71940  0.44870  1.0000
  C   C12       1.0  0.15170  0.71940  0.05130  1.0000
  C   C13       1.0  0.65170  0.78060  0.55130  1.0000
  C   C14       1.0  0.34830  0.78060  0.94870  1.0000
  C   C15       1.0  0.15170  0.28060  0.55130  1.0000
  C   C16       1.0  0.84830  0.28060  0.94870  1.0000
  H   H1        1.0  0.35560  0.18260  0.50610  1.0000
  H   H2        1.0  0.64440  0.18260  0.99390  1.0000
  H   H3        1.0  0.85560  0.68260  0.50610  1.0000
  H   H4        1.0  0.14440  0.68260  0.99390  1.0000
  H   H5        1.0  0.64440  0.81740  0.49390  1.0000
  H   H6        1.0  0.35560  0.81740  0.00610  1.0000
  H   H7        1.0  0.14440  0.31740  0.49390  1.0000
  H   H8        1.0  0.85560  0.31740  0.00610  1.0000
  H   H9        1.0  0.36560  0.14710  0.41380  1.0000
  H   H10       1.0  0.63440  0.14710  0.08620  1.0000
  H   H11       1.0  0.86560  0.64710  0.41380  1.0000
  H   H12       1.0  0.13440  0.64710  0.08620  1.0000
  H   H13       1.0  0.63440  0.85290  0.58620  1.0000
  H   H14       1.0  0.36560  0.85290  0.91380  1.0000
  H   H15       1.0  0.13440  0.35290  0.58620  1.0000
  H   H16       1.0  0.86560  0.35290  0.91380  1.0000
  C   C17       1.0  0.43323  0.37630  0.49140  1.0000
  C   C18       1.0  0.56677  0.37630  0.00860  1.0000
  C   C19       1.0  0.93323  0.87630  0.49140  1.0000
  C   C20       1.0  0.06677  0.87630  0.00860  1.0000
  C   C21       1.0  0.56677  0.62370  0.50860  1.0000
  C   C22       1.0  0.43323  0.62370  0.99140  1.0000
  C   C23       1.0  0.06677  0.12370  0.50860  1.0000
  C   C24       1.0  0.93323  0.12370  0.99140  1.0000
  H   H17       1.0  0.45460  0.45950  0.47010  1.0000
  H   H18       1.0  0.54540  0.45950  0.02990  1.0000
  H   H19       1.0  0.95460  0.95950  0.47010  1.0000
  H   H20       1.0  0.04540  0.95950  0.02990  1.0000
  H   H21       1.0  0.54540  0.54050  0.52990  1.0000
  H   H22       1.0  0.45460  0.54050  0.97010  1.0000
  H   H23       1.0  0.04540  0.04050  0.52990  1.0000
  H   H24       1.0  0.95460  0.04050  0.97010  1.0000
  H   H25       1.0  0.45290  0.28050  0.48300  1.0000
  H   H26       1.0  0.54710  0.28050  0.01700  1.0000
  H   H27       1.0  0.95290  0.78050  0.48300  1.0000
  H   H28       1.0  0.04710  0.78050  0.01700  1.0000
  H   H29       1.0  0.54710  0.71950  0.51700  1.0000
  H   H30       1.0  0.45290  0.71950  0.98300  1.0000
  H   H31       1.0  0.04710  0.21950  0.51700  1.0000
  H   H32       1.0  0.95290  0.21950  0.98300  1.0000
  C   C25       1.0  0.43250  0.40030  0.58490  1.0000
  C   C26       1.0  0.56750  0.40030  0.91510  1.0000
  C   C27       1.0  0.93250  0.90030  0.58490  1.0000
  C   C28       1.0  0.06750  0.90030  0.91510  1.0000
  C   C29       1.0  0.56750  0.59970  0.41510  1.0000
  C   C30       1.0  0.43250  0.59970  0.08490  1.0000
  C   C31       1.0  0.06750  0.09970  0.41510  1.0000
  C   C32       1.0  0.93250  0.09970  0.08490  1.0000
  C   C33       1.0  0.37640  0.40620  0.35400  1.0000
  C   C34       1.0  0.62360  0.40620  0.14600  1.0000
  C   C35       1.0  0.87640  0.90620  0.35400  1.0000
  C   C36       1.0  0.12360  0.90620  0.14600  1.0000
  C   C37       1.0  0.62360  0.59380  0.64600  1.0000
  C   C38       1.0  0.37640  0.59380  0.85400  1.0000
  C   C39       1.0  0.12360  0.09380  0.64600  1.0000
  C   C40       1.0  0.87640  0.09380  0.85400  1.0000
  H   H33       1.0  0.34220  0.36510  0.32080  1.0000
  H   H34       1.0  0.65780  0.36510  0.17920  1.0000
  H   H35       1.0  0.84220  0.86510  0.32080  1.0000
  H   H36       1.0  0.15780  0.86510  0.17920  1.0000
  H   H37       1.0  0.65780  0.63490  0.67920  1.0000
  H   H38       1.0  0.34220  0.63490  0.82080  1.0000
  H   H39       1.0  0.15780  0.13490  0.67920  1.0000
  H   H40       1.0  0.84220  0.13490  0.82080  1.0000
  H   H41       1.0  0.40950  0.35620  0.33580  1.0000
  H   H42       1.0  0.59050  0.35620  0.16420  1.0000
  H   H43       1.0  0.90950  0.85620  0.33580  1.0000
  H   H44       1.0  0.09050  0.85620  0.16420  1.0000
  H   H45       1.0  0.59050  0.64380  0.66420  1.0000
  H   H46       1.0  0.40950  0.64380  0.83580  1.0000
  H   H47       1.0  0.09050  0.14380  0.66420  1.0000
  H   H48       1.0  0.90950  0.14380  0.83580  1.0000
  C   C41       1.0  0.37970  0.57770  0.33870  1.0000
  C   C42       1.0  0.62030  0.57770  0.16130  1.0000
  C   C43       1.0  0.87970  0.07770  0.33870  1.0000
  C   C44       1.0  0.12030  0.07770  0.16130  1.0000
  C   C45       1.0  0.62030  0.42230  0.66130  1.0000
  C   C46       1.0  0.37970  0.42230  0.83870  1.0000
  C   C47       1.0  0.12030  0.92230  0.66130  1.0000
  C   C48       1.0  0.87970  0.92230  0.83870  1.0000
  H   H49       1.0  0.41620  0.61680  0.36600  1.0000
  H   H50       1.0  0.58380  0.61680  0.13400  1.0000
  H   H51       1.0  0.91620  0.11680  0.36600  1.0000
  H   H52       1.0  0.08380  0.11680  0.13400  1.0000
  H   H53       1.0  0.58380  0.38320  0.63400  1.0000
  H   H54       1.0  0.41620  0.38320  0.86600  1.0000
  H   H55       1.0  0.08380  0.88320  0.63400  1.0000
  H   H56       1.0  0.91620  0.88320  0.86600  1.0000
  H   H57       1.0  0.37750  0.59680  0.27900  1.0000
  H   H58       1.0  0.62250  0.59680  0.22100  1.0000
  H   H59       1.0  0.87750  0.09680  0.27900  1.0000
  H   H60       1.0  0.12250  0.09680  0.22100  1.0000
  H   H61       1.0  0.62250  0.40320  0.72100  1.0000
  H   H62       1.0  0.37750  0.40320  0.77900  1.0000
  H   H63       1.0  0.12250  0.90320  0.72100  1.0000
  H   H64       1.0  0.87750  0.90320  0.77900  1.0000
  C   C49       1.0  0.35180  0.81950  0.39110  1.0000
  C   C50       1.0  0.64820  0.81950  0.10890  1.0000
  C   C51       1.0  0.85180  0.31950  0.39110  1.0000
  C   C52       1.0  0.14820  0.31950  0.10890  1.0000
  C   C53       1.0  0.64820  0.18050  0.60890  1.0000
  C   C54       1.0  0.35180  0.18050  0.89110  1.0000
  C   C55       1.0  0.14820  0.68050  0.60890  1.0000
  C   C56       1.0  0.85180  0.68050  0.89110  1.0000
  H   H65       1.0  0.31930  0.88250  0.40060  1.0000
  H   H66       1.0  0.68070  0.88250  0.09940  1.0000
  H   H67       1.0  0.81930  0.38250  0.40060  1.0000
  H   H68       1.0  0.18070  0.38250  0.09940  1.0000
  H   H69       1.0  0.68070  0.11750  0.59940  1.0000
  H   H70       1.0  0.31930  0.11750  0.90060  1.0000
  H   H71       1.0  0.18070  0.61750  0.59940  1.0000
  H   H72       1.0  0.81930  0.61750  0.90060  1.0000
  H   H73       1.0  0.36840  0.86300  0.34450  1.0000
  H   H74       1.0  0.63160  0.86300  0.15550  1.0000
  H   H75       1.0  0.86840  0.36300  0.34450  1.0000
  H   H76       1.0  0.13160  0.36300  0.15550  1.0000
  H   H77       1.0  0.63160  0.13700  0.65550  1.0000
  H   H78       1.0  0.36840  0.13700  0.84450  1.0000
  H   H79       1.0  0.13160  0.63700  0.65550  1.0000
  H   H80       1.0  0.86840  0.63700  0.84450  1.0000
  C   C57       1.0  0.39652  0.81830  0.46970  1.0000
  C   C58       1.0  0.60348  0.81830  0.03030  1.0000
  C   C59       1.0  0.89652  0.31830  0.46970  1.0000
  C   C60       1.0  0.10348  0.31830  0.03030  1.0000
  C   C61       1.0  0.60348  0.18170  0.53030  1.0000
  C   C62       1.0  0.39652  0.18170  0.96970  1.0000
  C   C63       1.0  0.10348  0.68170  0.53030  1.0000
  C   C64       1.0  0.89652  0.68170  0.96970  1.0000
  C   C65       1.0  0.27950  0.65820  0.31000  1.0000
  C   C66       1.0  0.72050  0.65820  0.19000  1.0000
  C   C67       1.0  0.77950  0.15820  0.31000  1.0000
  C   C68       1.0  0.22050  0.15820  0.19000  1.0000
  C   C69       1.0  0.72050  0.34180  0.69000  1.0000
  C   C70       1.0  0.27950  0.34180  0.81000  1.0000
  C   C71       1.0  0.22050  0.84180  0.69000  1.0000
  C   C72       1.0  0.77950  0.84180  0.81000  1.0000
  H   H81       1.0  0.27280  0.55490  0.28760  1.0000
  H   H82       1.0  0.72720  0.55490  0.21240  1.0000
  H   H83       1.0  0.77280  0.05490  0.28760  1.0000
  H   H84       1.0  0.22720  0.05490  0.21240  1.0000
  H   H85       1.0  0.72720  0.44510  0.71240  1.0000
  H   H86       1.0  0.27280  0.44510  0.78760  1.0000
  H   H87       1.0  0.22720  0.94510  0.71240  1.0000
  H   H88       1.0  0.77280  0.94510  0.78760  1.0000
  H   H89       1.0  0.28400  0.72660  0.26370  1.0000
  H   H90       1.0  0.71600  0.72660  0.23630  1.0000
  H   H91       1.0  0.78400  0.22660  0.26370  1.0000
  H   H92       1.0  0.21600  0.22660  0.23630  1.0000
  H   H93       1.0  0.71600  0.27340  0.73630  1.0000
  H   H94       1.0  0.28400  0.27340  0.76370  1.0000
  H   H95       1.0  0.21600  0.77340  0.73630  1.0000
  H   H96       1.0  0.78400  0.77340  0.76370  1.0000
  C   C73       1.0  0.22844  0.70910  0.35030  1.0000
  C   C74       1.0  0.77156  0.70910  0.14970  1.0000
  C   C75       1.0  0.72844  0.20910  0.35030  1.0000
  C   C76       1.0  0.27156  0.20910  0.14970  1.0000
  C   C77       1.0  0.77156  0.29090  0.64970  1.0000
  C   C78       1.0  0.22844  0.29090  0.85030  1.0000
  C   C79       1.0  0.27156  0.79090  0.64970  1.0000
  C   C80       1.0  0.72844  0.79090  0.85030  1.0000
