data_image0
_chemical_formula_structural       In4Br4O24C12H4C4H4C4H4C4H4C12H4C4H4C8
_chemical_formula_sum              "In4 Br4 O24 C48 H24"
_cell_length_a       7.5816
_cell_length_b       19.2284
_cell_length_c       14.9297
_cell_angle_alpha    90
_cell_angle_beta     112.072
_cell_angle_gamma    90

_space_group_name_H-M_alt    "P 1"
_space_group_IT_number       1

loop_
  _space_group_symop_operation_xyz
  'x, y, z'

loop_
  _atom_site_type_symbol
  _atom_site_label
  _atom_site_symmetry_multiplicity
  _atom_site_fract_x
  _atom_site_fract_y
  _atom_site_fract_z
  _atom_site_occupancy
  In  In1       1.0  0.18170  0.05080  0.29020  1.0000
  In  In2       1.0  0.81830  0.55080  0.20980  1.0000
  In  In3       1.0  0.81830  0.94920  0.70980  1.0000
  In  In4       1.0  0.18170  0.44920  0.79020  1.0000
  Br  Br1       1.0  0.26210  0.07830  0.46510  1.0000
  Br  Br2       1.0  0.73790  0.57830  0.03490  1.0000
  Br  Br3       1.0  0.73790  0.92170  0.53490  1.0000
  Br  Br4       1.0  0.26210  0.42170  0.96510  1.0000
  O   O1        1.0  0.19990  0.92740  0.30090  1.0000
  O   O2        1.0  0.80010  0.42740  0.19910  1.0000
  O   O3        1.0  0.80010  0.07260  0.69910  1.0000
  O   O4        1.0  0.19990  0.57260  0.80090  1.0000
  O   O5        1.0  0.42600  0.99270  0.28990  1.0000
  O   O6        1.0  0.57400  0.49270  0.21010  1.0000
  O   O7        1.0  0.57400  0.00730  0.71010  1.0000
  O   O8        1.0  0.42600  0.50730  0.78990  1.0000
  O   O9        1.0  0.00920  0.03130  0.13040  1.0000
  O   O10       1.0  0.99080  0.53130  0.36960  1.0000
  O   O11       1.0  0.99080  0.96870  0.86960  1.0000
  O   O12       1.0  0.00920  0.46870  0.63040  1.0000
  O   O13       1.0  0.87230  0.04060  0.23480  1.0000
  O   O14       1.0  0.12770  0.54060  0.26520  1.0000
  O   O15       1.0  0.12770  0.95940  0.76520  1.0000
  O   O16       1.0  0.87230  0.45940  0.73480  1.0000
  O   O17       1.0  0.69140  0.63500  0.25160  1.0000
  O   O18       1.0  0.30860  0.13500  0.24840  1.0000
  O   O19       1.0  0.30860  0.36500  0.74840  1.0000
  O   O20       1.0  0.69140  0.86500  0.75160  1.0000
  O   O21       1.0  0.92920  0.69780  0.24550  1.0000
  O   O22       1.0  0.07080  0.19780  0.25450  1.0000
  O   O23       1.0  0.07080  0.30220  0.75450  1.0000
  O   O24       1.0  0.92920  0.80220  0.74550  1.0000
  C   C1        1.0  0.35780  0.93310  0.29360  1.0000
  C   C2        1.0  0.64220  0.43310  0.20640  1.0000
  C   C3        1.0  0.64220  0.06690  0.70640  1.0000
  C   C4        1.0  0.35780  0.56690  0.79360  1.0000
  C   C5        1.0  0.46910  0.87100  0.28820  1.0000
  C   C6        1.0  0.53090  0.37100  0.21180  1.0000
  C   C7        1.0  0.53090  0.12900  0.71180  1.0000
  C   C8        1.0  0.46910  0.62900  0.78820  1.0000
  C   C9        1.0  0.39200  0.80550  0.28120  1.0000
  C   C10       1.0  0.60800  0.30550  0.21880  1.0000
  C   C11       1.0  0.60800  0.19450  0.71880  1.0000
  C   C12       1.0  0.39200  0.69450  0.78120  1.0000
  H   H1        1.0  0.27100  0.80010  0.28240  1.0000
  H   H2        1.0  0.72900  0.30010  0.21760  1.0000
  H   H3        1.0  0.72900  0.19990  0.71760  1.0000
  H   H4        1.0  0.27100  0.69990  0.78240  1.0000
  C   C13       1.0  0.49290  0.74740  0.27250  1.0000
  C   C14       1.0  0.50710  0.24740  0.22750  1.0000
  C   C15       1.0  0.50710  0.25260  0.72750  1.0000
  C   C16       1.0  0.49290  0.75260  0.77250  1.0000
  H   H5        1.0  0.43990  0.70330  0.26810  1.0000
  H   H6        1.0  0.56010  0.20330  0.23190  1.0000
  H   H7        1.0  0.56010  0.29670  0.73190  1.0000
  H   H8        1.0  0.43990  0.79670  0.76810  1.0000
  C   C17       1.0  0.65090  0.87850  0.28840  1.0000
  C   C18       1.0  0.34910  0.37850  0.21160  1.0000
  C   C19       1.0  0.34910  0.12150  0.71160  1.0000
  C   C20       1.0  0.65090  0.62150  0.78840  1.0000
  H   H9        1.0  0.70500  0.92250  0.29440  1.0000
  H   H10       1.0  0.29500  0.42250  0.20560  1.0000
  H   H11       1.0  0.29500  0.07750  0.70560  1.0000
  H   H12       1.0  0.70500  0.57750  0.79440  1.0000
  C   C21       1.0  0.75240  0.82090  0.27990  1.0000
  C   C22       1.0  0.24760  0.32090  0.22010  1.0000
  C   C23       1.0  0.24760  0.17910  0.72010  1.0000
  C   C24       1.0  0.75240  0.67910  0.77990  1.0000
  H   H13       1.0  0.87470  0.82630  0.28050  1.0000
  H   H14       1.0  0.12530  0.32630  0.21950  1.0000
  H   H15       1.0  0.12530  0.17370  0.71950  1.0000
  H   H16       1.0  0.87470  0.67370  0.78050  1.0000
  C   C25       1.0  0.86140  0.02980  0.14920  1.0000
  C   C26       1.0  0.13860  0.52980  0.35080  1.0000
  C   C27       1.0  0.13860  0.97020  0.85080  1.0000
  C   C28       1.0  0.86140  0.47020  0.64920  1.0000
  C   C29       1.0  0.67460  0.01530  0.07190  1.0000
  C   C30       1.0  0.32540  0.51530  0.42810  1.0000
  C   C31       1.0  0.32540  0.98470  0.92810  1.0000
  C   C32       1.0  0.67460  0.48470  0.57190  1.0000
  C   C33       1.0  0.66140  0.00140  0.97810  1.0000
  C   C34       1.0  0.33860  0.50140  0.52190  1.0000
  C   C35       1.0  0.33860  0.99860  0.02190  1.0000
  C   C36       1.0  0.66140  0.49860  0.47810  1.0000
  H   H17       1.0  0.77020  0.00250  0.96340  1.0000
  H   H18       1.0  0.22980  0.50250  0.53660  1.0000
  H   H19       1.0  0.22980  0.99750  0.03660  1.0000
  H   H20       1.0  0.77020  0.49750  0.46340  1.0000
  C   C37       1.0  0.51170  0.01390  0.09300  1.0000
  C   C38       1.0  0.48830  0.51390  0.40700  1.0000
  C   C39       1.0  0.48830  0.98610  0.90700  1.0000
  C   C40       1.0  0.51170  0.48610  0.59300  1.0000
  H   H21       1.0  0.51940  0.02340  0.15550  1.0000
  H   H22       1.0  0.48060  0.52340  0.34450  1.0000
  H   H23       1.0  0.48060  0.97660  0.84450  1.0000
  H   H24       1.0  0.51940  0.47660  0.65550  1.0000
  C   C41       1.0  0.77680  0.69220  0.25540  1.0000
  C   C42       1.0  0.22320  0.19220  0.24460  1.0000
  C   C43       1.0  0.22320  0.30780  0.74460  1.0000
  C   C44       1.0  0.77680  0.80780  0.75540  1.0000
  C   C45       1.0  0.67350  0.75540  0.27040  1.0000
  C   C46       1.0  0.32650  0.25540  0.22960  1.0000
  C   C47       1.0  0.32650  0.24460  0.72960  1.0000
  C   C48       1.0  0.67350  0.74460  0.77040  1.0000
