data_image0
_chemical_formula_structural       In4Br4O24C12H4C4H4C8H4C4H4C12H4C4H4C4
_chemical_formula_sum              "In4 Br4 O24 C48 H24"
_cell_length_a       7.6468
_cell_length_b       19.2855
_cell_length_c       15.2669
_cell_angle_alpha    90
_cell_angle_beta     112.933
_cell_angle_gamma    90

_space_group_name_H-M_alt    "P 1"
_space_group_IT_number       1

loop_
  _space_group_symop_operation_xyz
  'x, y, z'

loop_
  _atom_site_type_symbol
  _atom_site_label
  _atom_site_symmetry_multiplicity
  _atom_site_fract_x
  _atom_site_fract_y
  _atom_site_fract_z
  _atom_site_occupancy
  In  In1       1.0  0.81360  0.05179  0.21293  1.0000
  In  In2       1.0  0.18640  0.55179  0.28707  1.0000
  In  In3       1.0  0.18640  0.94821  0.78707  1.0000
  In  In4       1.0  0.81360  0.44821  0.71293  1.0000
  Br  Br1       1.0  0.72577  0.07914  0.04023  1.0000
  Br  Br2       1.0  0.27423  0.57914  0.45977  1.0000
  Br  Br3       1.0  0.27423  0.92086  0.95977  1.0000
  Br  Br4       1.0  0.72577  0.42086  0.54023  1.0000
  O   O1        1.0  0.57130  0.99392  0.21406  1.0000
  O   O2        1.0  0.42870  0.49392  0.28594  1.0000
  O   O3        1.0  0.42870  0.00608  0.78594  1.0000
  O   O4        1.0  0.57130  0.50608  0.71406  1.0000
  O   O5        1.0  0.79260  0.92937  0.19989  1.0000
  O   O6        1.0  0.20740  0.42937  0.30011  1.0000
  O   O7        1.0  0.20740  0.07063  0.80011  1.0000
  O   O8        1.0  0.79260  0.57063  0.69989  1.0000
  O   O9        1.0  0.12310  0.04123  0.26848  1.0000
  O   O10       1.0  0.87690  0.54123  0.23152  1.0000
  O   O11       1.0  0.87690  0.95877  0.73152  1.0000
  O   O12       1.0  0.12310  0.45877  0.76848  1.0000
  O   O13       1.0  0.98940  0.03110  0.37059  1.0000
  O   O14       1.0  0.01060  0.53110  0.12941  1.0000
  O   O15       1.0  0.01060  0.96890  0.62941  1.0000
  O   O16       1.0  0.98940  0.46890  0.87059  1.0000
  O   O17       1.0  0.31040  0.63651  0.24810  1.0000
  O   O18       1.0  0.68960  0.13651  0.25190  1.0000
  O   O19       1.0  0.68960  0.36349  0.75190  1.0000
  O   O20       1.0  0.31040  0.86349  0.74810  1.0000
  O   O21       1.0  0.06940  0.69872  0.25220  1.0000
  O   O22       1.0  0.93060  0.19872  0.24780  1.0000
  O   O23       1.0  0.93060  0.30128  0.74780  1.0000
  O   O24       1.0  0.06940  0.80128  0.75220  1.0000
  C   C1        1.0  0.63630  0.93465  0.20770  1.0000
  C   C2        1.0  0.36370  0.43465  0.29230  1.0000
  C   C3        1.0  0.36370  0.06535  0.79230  1.0000
  C   C4        1.0  0.63630  0.56535  0.70770  1.0000
  C   C5        1.0  0.52530  0.87247  0.21190  1.0000
  C   C6        1.0  0.47470  0.37247  0.28810  1.0000
  C   C7        1.0  0.47470  0.12753  0.78810  1.0000
  C   C8        1.0  0.52530  0.62753  0.71190  1.0000
  C   C9        1.0  0.34420  0.87954  0.21110  1.0000
  C   C10       1.0  0.65580  0.37954  0.28890  1.0000
  C   C11       1.0  0.65580  0.12046  0.78890  1.0000
  C   C12       1.0  0.34420  0.62046  0.71110  1.0000
  H   H1        1.0  0.28960  0.92330  0.20510  1.0000
  H   H2        1.0  0.71040  0.42330  0.29490  1.0000
  H   H3        1.0  0.71040  0.07670  0.79490  1.0000
  H   H4        1.0  0.28960  0.57670  0.70510  1.0000
  C   C13       1.0  0.24490  0.82177  0.21920  1.0000
  C   C14       1.0  0.75510  0.32177  0.28080  1.0000
  C   C15       1.0  0.75510  0.17823  0.78080  1.0000
  C   C16       1.0  0.24490  0.67823  0.71920  1.0000
  H   H5        1.0  0.12280  0.82680  0.21770  1.0000
  H   H6        1.0  0.87720  0.32680  0.28230  1.0000
  H   H7        1.0  0.87720  0.17320  0.78230  1.0000
  H   H8        1.0  0.12280  0.67320  0.71770  1.0000
  C   C17       1.0  0.32510  0.75671  0.22960  1.0000
  C   C18       1.0  0.67490  0.25671  0.27040  1.0000
  C   C19       1.0  0.67490  0.24329  0.77040  1.0000
  C   C20       1.0  0.32510  0.74329  0.72960  1.0000
  C   C21       1.0  0.50420  0.74933  0.22790  1.0000
  C   C22       1.0  0.49580  0.24933  0.27210  1.0000
  C   C23       1.0  0.49580  0.25067  0.77210  1.0000
  C   C24       1.0  0.50420  0.75067  0.72790  1.0000
  H   H9        1.0  0.55770  0.70550  0.23270  1.0000
  H   H10       1.0  0.44230  0.20550  0.26730  1.0000
  H   H11       1.0  0.44230  0.29450  0.76730  1.0000
  H   H12       1.0  0.55770  0.79450  0.73270  1.0000
  C   C25       1.0  0.60360  0.80698  0.21900  1.0000
  C   C26       1.0  0.39640  0.30698  0.28100  1.0000
  C   C27       1.0  0.39640  0.19302  0.78100  1.0000
  C   C28       1.0  0.60360  0.69302  0.71900  1.0000
  H   H13       1.0  0.72350  0.80170  0.21780  1.0000
  H   H14       1.0  0.27650  0.30170  0.28220  1.0000
  H   H15       1.0  0.27650  0.19830  0.78220  1.0000
  H   H16       1.0  0.72350  0.69830  0.71780  1.0000
  C   C29       1.0  0.13650  0.03043  0.35260  1.0000
  C   C30       1.0  0.86350  0.53043  0.14740  1.0000
  C   C31       1.0  0.86350  0.96957  0.64740  1.0000
  C   C32       1.0  0.13650  0.46957  0.85260  1.0000
  C   C33       1.0  0.32500  0.01549  0.42930  1.0000
  C   C34       1.0  0.67500  0.51549  0.07070  1.0000
  C   C35       1.0  0.67500  0.98451  0.57070  1.0000
  C   C36       1.0  0.32500  0.48451  0.92930  1.0000
  C   C37       1.0  0.33960  0.00158  0.52110  1.0000
  C   C38       1.0  0.66040  0.50158  0.97890  1.0000
  C   C39       1.0  0.66040  0.99842  0.47890  1.0000
  C   C40       1.0  0.33960  0.49842  0.02110  1.0000
  H   H17       1.0  0.23170  0.00270  0.53510  1.0000
  H   H18       1.0  0.76830  0.50270  0.96490  1.0000
  H   H19       1.0  0.76830  0.99730  0.46490  1.0000
  H   H20       1.0  0.23170  0.49730  0.03510  1.0000
  C   C41       1.0  0.48630  0.01394  0.40820  1.0000
  C   C42       1.0  0.51370  0.51394  0.09180  1.0000
  C   C43       1.0  0.51370  0.98606  0.59180  1.0000
  C   C44       1.0  0.48630  0.48606  0.90820  1.0000
  H   H21       1.0  0.47700  0.02330  0.34680  1.0000
  H   H22       1.0  0.52300  0.52330  0.15320  1.0000
  H   H23       1.0  0.52300  0.97670  0.65320  1.0000
  H   H24       1.0  0.47700  0.47670  0.84680  1.0000
  C   C45       1.0  0.22230  0.69378  0.24390  1.0000
  C   C46       1.0  0.77770  0.19378  0.25610  1.0000
  C   C47       1.0  0.77770  0.30622  0.75610  1.0000
  C   C48       1.0  0.22230  0.80622  0.74390  1.0000
