data_image0
_chemical_formula_structural       Yb2C6H2C4H2C10H2C4H2C4O14H4O2H4O2H4O2H4O12
_chemical_formula_sum              "Yb2 C28 H24 O32"
_cell_length_a       7.4895
_cell_length_b       11.093
_cell_length_c       16.875
_cell_angle_alpha    86.68
_cell_angle_beta     80.69
_cell_angle_gamma    77.65

_space_group_name_H-M_alt    "P 1"
_space_group_IT_number       1

loop_
  _space_group_symop_operation_xyz
  'x, y, z'

loop_
  _atom_site_type_symbol
  _atom_site_label
  _atom_site_symmetry_multiplicity
  _atom_site_fract_x
  _atom_site_fract_y
  _atom_site_fract_z
  _atom_site_occupancy
  Yb  Yb1       1.0  0.47624  0.71952  0.16793  1.0000
  Yb  Yb2       1.0  0.52376  0.28048  0.83207  1.0000
  C   C1        1.0  0.65240  0.97720  0.21140  1.0000
  C   C2        1.0  0.34760  0.02280  0.78860  1.0000
  C   C3        1.0  0.61450  0.08680  0.15490  1.0000
  C   C4        1.0  0.38550  0.91320  0.84510  1.0000
  C   C5        1.0  0.57380  0.07900  0.08080  1.0000
  C   C6        1.0  0.42620  0.92100  0.91920  1.0000
  H   H1        1.0  0.56330  0.00310  0.06340  1.0000
  H   H2        1.0  0.43670  0.99690  0.93660  1.0000
  C   C7        1.0  0.54640  0.18540  0.02810  1.0000
  C   C8        1.0  0.45360  0.81460  0.97190  1.0000
  C   C9        1.0  0.54930  0.30060  0.06380  1.0000
  C   C10       1.0  0.45070  0.69940  0.93620  1.0000
  H   H3        1.0  0.52210  0.37480  0.03530  1.0000
  H   H4        1.0  0.47790  0.62520  0.96470  1.0000
  C   C11       1.0  0.59150  0.29970  0.13830  1.0000
  C   C12       1.0  0.40850  0.70030  0.86170  1.0000
  C   C13       1.0  0.60790  0.41420  0.17960  1.0000
  C   C14       1.0  0.39210  0.58580  0.82040  1.0000
  C   C15       1.0  0.20330  0.98310  0.23120  1.0000
  C   C16       1.0  0.79670  0.01690  0.76880  1.0000
  C   C17       1.0  0.13670  0.08430  0.17210  1.0000
  C   C18       1.0  0.86330  0.91570  0.82790  1.0000
  C   C19       1.0  0.08540  0.06850  0.10150  1.0000
  C   C20       1.0  0.91460  0.93150  0.89850  1.0000
  H   H5        1.0  0.08140  0.98960  0.08690  1.0000
  H   H6        1.0  0.91860  0.01040  0.91310  1.0000
  C   C21       1.0  0.03660  0.17110  0.04830  1.0000
  C   C22       1.0  0.96340  0.82890  0.95170  1.0000
  C   C23       1.0  0.03620  0.29030  0.08010  1.0000
  C   C24       1.0  0.96380  0.70970  0.91990  1.0000
  H   H7        1.0  0.99920  0.36230  0.05080  1.0000
  H   H8        1.0  0.00080  0.63770  0.94920  1.0000
  C   C25       1.0  0.08970  0.29640  0.15250  1.0000
  C   C26       1.0  0.91030  0.70360  0.84750  1.0000
  C   C27       1.0  0.11520  0.41610  0.18390  1.0000
  C   C28       1.0  0.88480  0.58390  0.81610  1.0000
  O   O1        1.0  0.72950  0.98910  0.26930  1.0000
  O   O2        1.0  0.27050  0.01090  0.73070  1.0000
  O   O3        1.0  0.60400  0.88280  0.19210  1.0000
  O   O4        1.0  0.39600  0.11720  0.80790  1.0000
  O   O5        1.0  0.62630  0.19630  0.18420  1.0000
  O   O6        1.0  0.37370  0.80370  0.81580  1.0000
  O   O7        1.0  0.67580  0.40110  0.24260  1.0000
  O   O8        1.0  0.32420  0.59890  0.75740  1.0000
  O   O9        1.0  0.55300  0.51320  0.14270  1.0000
  O   O10       1.0  0.44700  0.48680  0.85730  1.0000
  O   O11       1.0  0.52210  0.17640  0.95750  1.0000
  O   O12       1.0  0.47790  0.82360  0.04250  1.0000
  O   O13       1.0  0.64470  0.65050  0.27190  1.0000
  O   O14       1.0  0.35530  0.34950  0.72810  1.0000
  H   H9        1.0  0.65130  0.57730  0.29090  1.0000
  H   H10       1.0  0.34870  0.42270  0.70910  1.0000
  H   H11       1.0  0.74810  0.66990  0.27300  1.0000
  H   H12       1.0  0.25190  0.33010  0.72700  1.0000
  O   O15       1.0  0.29150  0.62580  0.27430  1.0000
  O   O16       1.0  0.70850  0.37420  0.72570  1.0000
  H   H13       1.0  0.22190  0.57450  0.28820  1.0000
  H   H14       1.0  0.77810  0.42550  0.71180  1.0000
  H   H15       1.0  0.26010  0.68360  0.30790  1.0000
  H   H16       1.0  0.73990  0.31640  0.69210  1.0000
  O   O17       1.0  0.77410  0.67610  0.09840  1.0000
  O   O18       1.0  0.22590  0.32390  0.90160  1.0000
  H   H17       1.0  0.82310  0.73190  0.07240  1.0000
  H   H18       1.0  0.17690  0.26810  0.92760  1.0000
  H   H19       1.0  0.85750  0.61080  0.09840  1.0000
  H   H20       1.0  0.14250  0.38920  0.90160  1.0000
  O   O19       1.0  0.24280  0.67820  0.10770  1.0000
  O   O20       1.0  0.75720  0.32180  0.89230  1.0000
  H   H21       1.0  0.21310  0.60190  0.11400  1.0000
  H   H22       1.0  0.78690  0.39810  0.88600  1.0000
  H   H23       1.0  0.14830  0.72650  0.09520  1.0000
  H   H24       1.0  0.85170  0.27350  0.90480  1.0000
  O   O21       1.0  0.23120  0.87590  0.20540  1.0000
  O   O22       1.0  0.76880  0.12410  0.79460  1.0000
  O   O23       1.0  0.22560  0.01310  0.29750  1.0000
  O   O24       1.0  0.77440  0.98690  0.70250  1.0000
  O   O25       1.0  0.00080  0.16050  0.97940  1.0000
  O   O26       1.0  0.99920  0.83950  0.02060  1.0000
  O   O27       1.0  0.21010  0.40980  0.23780  1.0000
  O   O28       1.0  0.78990  0.59020  0.76220  1.0000
  O   O29       1.0  0.04580  0.51010  0.14740  1.0000
  O   O30       1.0  0.95420  0.48990  0.85260  1.0000
  O   O31       1.0  0.14080  0.19690  0.19800  1.0000
  O   O32       1.0  0.85920  0.80310  0.80200  1.0000
