data_image0
_chemical_formula_structural       Fe2O12C12O4H4O4H4O4H4Na2
_chemical_formula_sum              "Fe2 O24 C12 H12 Na2"
_cell_length_a       8.1102
_cell_length_b       9.3794
_cell_length_c       12.1341
_cell_angle_alpha    90
_cell_angle_beta     91.125
_cell_angle_gamma    90

_space_group_name_H-M_alt    "P 1"
_space_group_IT_number       1

loop_
  _space_group_symop_operation_xyz
  'x, y, z'

loop_
  _atom_site_type_symbol
  _atom_site_label
  _atom_site_symmetry_multiplicity
  _atom_site_fract_x
  _atom_site_fract_y
  _atom_site_fract_z
  _atom_site_occupancy
  Fe  Fe1       1.0  0.00000  0.00000  0.50000  1.0000
  Fe  Fe2       1.0  0.50000  0.50000  0.00000  1.0000
  O   O1        1.0  0.11870  0.02430  0.35774  1.0000
  O   O2        1.0  0.38130  0.52430  0.14226  1.0000
  O   O3        1.0  0.88130  0.97570  0.64226  1.0000
  O   O4        1.0  0.61870  0.47570  0.85774  1.0000
  O   O5        1.0  0.19940  0.89910  0.56381  1.0000
  O   O6        1.0  0.30060  0.39910  0.93619  1.0000
  O   O7        1.0  0.80060  0.10090  0.43619  1.0000
  O   O8        1.0  0.69940  0.60090  0.06381  1.0000
  O   O9        1.0  0.09160  0.18570  0.55675  1.0000
  O   O10       1.0  0.40840  0.68570  0.94325  1.0000
  O   O11       1.0  0.90840  0.81430  0.44325  1.0000
  O   O12       1.0  0.59160  0.31430  0.05675  1.0000
  C   C1        1.0  0.06340  0.01160  0.26060  1.0000
  C   C2        1.0  0.43660  0.51160  0.23940  1.0000
  C   C3        1.0  0.93660  0.98840  0.73940  1.0000
  C   C4        1.0  0.56340  0.48840  0.76060  1.0000
  C   C5        1.0  0.27250  0.78960  0.53290  1.0000
  C   C6        1.0  0.22750  0.28960  0.96710  1.0000
  C   C7        1.0  0.72750  0.21040  0.46710  1.0000
  C   C8        1.0  0.77250  0.71040  0.03290  1.0000
  C   C9        1.0  0.21910  0.25270  0.52530  1.0000
  C   C10       1.0  0.28090  0.75270  0.97470  1.0000
  C   C11       1.0  0.78090  0.74730  0.47470  1.0000
  C   C12       1.0  0.71910  0.24730  0.02530  1.0000
  O   O13       1.0  0.13970  0.03760  0.17761  1.0000
  O   O14       1.0  0.36030  0.53760  0.32239  1.0000
  O   O15       1.0  0.86030  0.96240  0.82239  1.0000
  O   O16       1.0  0.63970  0.46240  0.67761  1.0000
  H   H1        1.0  0.95540  0.97980  0.25140  1.0000
  H   H2        1.0  0.54460  0.47980  0.24860  1.0000
  H   H3        1.0  0.04460  0.02020  0.74860  1.0000
  H   H4        1.0  0.45540  0.52020  0.75140  1.0000
  O   O17       1.0  0.39200  0.73240  0.57650  1.0000
  O   O18       1.0  0.10800  0.23240  0.92350  1.0000
  O   O19       1.0  0.60800  0.26760  0.42350  1.0000
  O   O20       1.0  0.89200  0.76760  0.07650  1.0000
  H   H5        1.0  0.23090  0.74640  0.46920  1.0000
  H   H6        1.0  0.26910  0.24640  0.03080  1.0000
  H   H7        1.0  0.76910  0.25360  0.53080  1.0000
  H   H8        1.0  0.73090  0.75360  0.96920  1.0000
  O   O21       1.0  0.26370  0.36760  0.56080  1.0000
  O   O22       1.0  0.23630  0.86760  0.93920  1.0000
  O   O23       1.0  0.73630  0.63240  0.43920  1.0000
  O   O24       1.0  0.76370  0.13240  0.06080  1.0000
  H   H9        1.0  0.28250  0.21040  0.47130  1.0000
  H   H10       1.0  0.21750  0.71040  0.02870  1.0000
  H   H11       1.0  0.71750  0.78960  0.52870  1.0000
  H   H12       1.0  0.78250  0.28960  0.97130  1.0000
  Na  Na1       1.0  0.00000  0.00000  0.00000  1.0000
  Na  Na2       1.0  0.50000  0.50000  0.50000  1.0000
