data_image0
_chemical_formula_structural       Fe2Na2O24C2H2C2H2C2H2C2H2C2H2C2H2
_chemical_formula_sum              "Fe2 Na2 O24 C12 H12"
_cell_length_a       8.1176
_cell_length_b       9.2906
_cell_length_c       12.0776
_cell_angle_alpha    90
_cell_angle_beta     91.3953
_cell_angle_gamma    90

_space_group_name_H-M_alt    "P 1"
_space_group_IT_number       1

loop_
  _space_group_symop_operation_xyz
  'x, y, z'

loop_
  _atom_site_type_symbol
  _atom_site_label
  _atom_site_symmetry_multiplicity
  _atom_site_fract_x
  _atom_site_fract_y
  _atom_site_fract_z
  _atom_site_occupancy
  Fe  Fe1       1.0  0.31954  0.72805  0.53756  1.0000
  Fe  Fe2       1.0  0.81954  0.27195  0.03756  1.0000
  Na  Na1       1.0  0.81580  0.22846  0.53810  1.0000
  Na  Na2       1.0  0.31580  0.77154  0.03810  1.0000
  O   O1        1.0  0.43770  0.70860  0.39450  1.0000
  O   O2        1.0  0.93770  0.29140  0.89450  1.0000
  O   O3        1.0  0.45710  0.71740  0.21270  1.0000
  O   O4        1.0  0.95710  0.28260  0.71270  1.0000
  O   O5        1.0  0.51860  0.82790  0.60300  1.0000
  O   O6        1.0  0.01860  0.17210  0.10300  1.0000
  O   O7        1.0  0.17330  0.79140  0.85810  1.0000
  O   O8        1.0  0.67330  0.20860  0.35810  1.0000
  O   O9        1.0  0.22580  0.91620  0.48040  1.0000
  O   O10       1.0  0.72580  0.08380  0.98040  1.0000
  O   O11       1.0  0.71300  0.99540  0.61440  1.0000
  O   O12       1.0  0.21300  0.00460  0.11440  1.0000
  O   O13       1.0  0.40810  0.54050  0.59430  1.0000
  O   O14       1.0  0.90810  0.45950  0.09430  1.0000
  O   O15       1.0  0.57560  0.35330  0.60020  1.0000
  O   O16       1.0  0.07560  0.64670  0.10020  1.0000
  O   O17       1.0  0.12080  0.62610  0.47190  1.0000
  O   O18       1.0  0.62080  0.37390  0.97190  1.0000
  O   O19       1.0  0.92330  0.46140  0.46200  1.0000
  O   O20       1.0  0.42330  0.53860  0.96200  1.0000
  O   O21       1.0  0.19840  0.75370  0.67870  1.0000
  O   O22       1.0  0.69840  0.24630  0.17870  1.0000
  O   O23       1.0  0.03950  0.08770  0.47360  1.0000
  O   O24       1.0  0.53950  0.91230  0.97360  1.0000
  C   C1        1.0  0.04790  0.51580  0.50610  1.0000
  C   C2        1.0  0.54790  0.48420  0.00610  1.0000
  H   H1        1.0  0.09100  0.47160  0.56950  1.0000
  H   H2        1.0  0.59100  0.52840  0.06950  1.0000
  C   C3        1.0  0.08980  0.97370  0.50900  1.0000
  C   C4        1.0  0.58980  0.02630  0.00900  1.0000
  H   H3        1.0  0.02610  0.92490  0.55980  1.0000
  H   H4        1.0  0.52610  0.07510  0.05980  1.0000
  C   C5        1.0  0.59450  0.93490  0.56910  1.0000
  C   C6        1.0  0.09450  0.06510  0.06910  1.0000
  H   H5        1.0  0.55750  0.97360  0.50200  1.0000
  H   H6        1.0  0.05750  0.02640  0.00200  1.0000
  C   C7        1.0  0.52980  0.46680  0.56210  1.0000
  C   C8        1.0  0.02980  0.53320  0.06210  1.0000
  H   H7        1.0  0.58910  0.50380  0.50360  1.0000
  H   H8        1.0  0.08910  0.49620  0.00360  1.0000
  C   C9        1.0  0.38380  0.73340  0.29790  1.0000
  C   C10       1.0  0.88380  0.26660  0.79790  1.0000
  H   H9        1.0  0.27630  0.76760  0.29120  1.0000
  H   H10       1.0  0.77630  0.23240  0.79120  1.0000
  C   C11       1.0  0.25410  0.75720  0.77750  1.0000
  C   C12       1.0  0.75410  0.24280  0.27750  1.0000
  H   H11       1.0  0.36390  0.73210  0.79000  1.0000
  H   H12       1.0  0.86390  0.26790  0.29000  1.0000
