data_image0
_chemical_formula_structural       Zn4O16C8O4C4O4C4Zn4C16O8H4C8H8C8H4C4H4C4H8C4H4O4C36H4C8H8C8H8C8H8C4H8C4H8C4H4C20O8H4C8H4Zn8H4C4H4O24C12O4C4O4C20H4C8H8C8H8C4H8C4H4C24H4C8H8C8H8C4H8C4H4C8O4Zn16O80C12H4C4H4C8H4C4H4C8H4C4H4C8H4C4H4C16H4C4H4C8H4C4H4C8H4C4H4C8H4C4H4C16H4C4H4C8H4C4H4C8H4C4H4C8H4C4H4C16H4C4H4C8H4C4H4C8H4C4H4C8H4C4H4C16H4C4H4C8H4C4H4C8H4C4H4C8H4C4H4C4
_chemical_formula_sum              "Zn32 O160 C560 H320"
_cell_length_a       36.4926
_cell_length_b       14.6058
_cell_length_c       45.4204
_cell_angle_alpha    90
_cell_angle_beta     90
_cell_angle_gamma    90

_space_group_name_H-M_alt    "P 1"
_space_group_IT_number       1

loop_
  _space_group_symop_operation_xyz
  'x, y, z'

loop_
  _atom_site_type_symbol
  _atom_site_label
  _atom_site_symmetry_multiplicity
  _atom_site_fract_x
  _atom_site_fract_y
  _atom_site_fract_z
  _atom_site_occupancy
  Zn  Zn1       1.0  0.45198  0.92699  0.28088  1.0000
  Zn  Zn2       1.0  0.54802  0.07301  0.78088  1.0000
  Zn  Zn3       1.0  0.04802  0.92699  0.78088  1.0000
  Zn  Zn4       1.0  0.95198  0.07301  0.28088  1.0000
  O   O1        1.0  0.47470  0.82230  0.26220  1.0000
  O   O2        1.0  0.52530  0.17770  0.76220  1.0000
  O   O3        1.0  0.02530  0.82230  0.76220  1.0000
  O   O4        1.0  0.97470  0.17770  0.26220  1.0000
  O   O5        1.0  0.46450  0.91680  0.32334  1.0000
  O   O6        1.0  0.53550  0.08320  0.82334  1.0000
  O   O7        1.0  0.03550  0.91680  0.82334  1.0000
  O   O8        1.0  0.96450  0.08320  0.32334  1.0000
  O   O9        1.0  0.46440  0.05400  0.27270  1.0000
  O   O10       1.0  0.53560  0.94600  0.77270  1.0000
  O   O11       1.0  0.03560  0.05400  0.77270  1.0000
  O   O12       1.0  0.96440  0.94600  0.27270  1.0000
  O   O13       1.0  0.39951  0.91300  0.28330  1.0000
  O   O14       1.0  0.60049  0.08700  0.78330  1.0000
  O   O15       1.0  0.10049  0.91300  0.78330  1.0000
  O   O16       1.0  0.89951  0.08700  0.28330  1.0000
  C   C1        1.0  0.50350  0.77780  0.26780  1.0000
  C   C2        1.0  0.49650  0.22220  0.76780  1.0000
  C   C3        1.0  0.99650  0.77780  0.76780  1.0000
  C   C4        1.0  0.00350  0.22220  0.26780  1.0000
  C   C5        1.0  0.49340  0.94300  0.33650  1.0000
  C   C6        1.0  0.50660  0.05700  0.83650  1.0000
  C   C7        1.0  0.00660  0.94300  0.83650  1.0000
  C   C8        1.0  0.99340  0.05700  0.33650  1.0000
  O   O17       1.0  0.53430  0.81440  0.27470  1.0000
  O   O18       1.0  0.46570  0.18560  0.77470  1.0000
  O   O19       1.0  0.96570  0.81440  0.77470  1.0000
  O   O20       1.0  0.03430  0.18560  0.27470  1.0000
  C   C9        1.0  0.50340  0.67630  0.26570  1.0000
  C   C10       1.0  0.49660  0.32370  0.76570  1.0000
  C   C11       1.0  0.99660  0.67630  0.76570  1.0000
  C   C12       1.0  0.00340  0.32370  0.26570  1.0000
  O   O21       1.0  0.52310  0.95860  0.32550  1.0000
  O   O22       1.0  0.47690  0.04140  0.82550  1.0000
  O   O23       1.0  0.97690  0.95860  0.82550  1.0000
  O   O24       1.0  0.02310  0.04140  0.32550  1.0000
  C   C13       1.0  0.48890  0.95960  0.36890  1.0000
  C   C14       1.0  0.51110  0.04040  0.86890  1.0000
  C   C15       1.0  0.01110  0.95960  0.86890  1.0000
  C   C16       1.0  0.98890  0.04040  0.36890  1.0000
  Zn  Zn5       1.0  0.54529  0.94081  0.28578  1.0000
  Zn  Zn6       1.0  0.45471  0.05919  0.78578  1.0000
  Zn  Zn7       1.0  0.95471  0.94081  0.78578  1.0000
  Zn  Zn8       1.0  0.04529  0.05919  0.28578  1.0000
  C   C17       1.0  0.47020  0.63150  0.25860  1.0000
  C   C18       1.0  0.52980  0.36850  0.75860  1.0000
  C   C19       1.0  0.02980  0.63150  0.75860  1.0000
  C   C20       1.0  0.97020  0.36850  0.25860  1.0000
  C   C21       1.0  0.53430  0.62560  0.27090  1.0000
  C   C22       1.0  0.46570  0.37440  0.77090  1.0000
  C   C23       1.0  0.96570  0.62560  0.77090  1.0000
  C   C24       1.0  0.03430  0.37440  0.27090  1.0000
  C   C25       1.0  0.45730  0.94130  0.38370  1.0000
  C   C26       1.0  0.54270  0.05870  0.88370  1.0000
  C   C27       1.0  0.04270  0.94130  0.88370  1.0000
  C   C28       1.0  0.95730  0.05870  0.38370  1.0000
  C   C29       1.0  0.51790  0.99190  0.38440  1.0000
  C   C30       1.0  0.48210  0.00810  0.88440  1.0000
  C   C31       1.0  0.98210  0.99190  0.88440  1.0000
  C   C32       1.0  0.01790  0.00810  0.38440  1.0000
  O   O25       1.0  0.52480  0.05060  0.26700  1.0000
  O   O26       1.0  0.47520  0.94940  0.76700  1.0000
  O   O27       1.0  0.97520  0.05060  0.76700  1.0000
  O   O28       1.0  0.02480  0.94940  0.26700  1.0000
  O   O29       1.0  0.59670  0.96360  0.29690  1.0000
  O   O30       1.0  0.40330  0.03640  0.79690  1.0000
  O   O31       1.0  0.90330  0.96360  0.79690  1.0000
  O   O32       1.0  0.09670  0.03640  0.29690  1.0000
  H   H1        1.0  0.44880  0.66580  0.25420  1.0000
  H   H2        1.0  0.55120  0.33420  0.75420  1.0000
  H   H3        1.0  0.05120  0.66580  0.75420  1.0000
  H   H4        1.0  0.94880  0.33420  0.25420  1.0000
  C   C33       1.0  0.46950  0.53770  0.25820  1.0000
  C   C34       1.0  0.53050  0.46230  0.75820  1.0000
  C   C35       1.0  0.03050  0.53770  0.75820  1.0000
  C   C36       1.0  0.96950  0.46230  0.25820  1.0000
  C   C37       1.0  0.53360  0.53230  0.26980  1.0000
  C   C38       1.0  0.46640  0.46770  0.76980  1.0000
  C   C39       1.0  0.96640  0.53230  0.76980  1.0000
  C   C40       1.0  0.03360  0.46770  0.26980  1.0000
  H   H5        1.0  0.55660  0.65600  0.27530  1.0000
  H   H6        1.0  0.44340  0.34400  0.77530  1.0000
  H   H7        1.0  0.94340  0.65600  0.77530  1.0000
  H   H8        1.0  0.05660  0.34400  0.27530  1.0000
  H   H9        1.0  0.43680  0.91810  0.37320  1.0000
  H   H10       1.0  0.56320  0.08190  0.87320  1.0000
  H   H11       1.0  0.06320  0.91810  0.87320  1.0000
  H   H12       1.0  0.93680  0.08190  0.37320  1.0000
  C   C41       1.0  0.45420  0.95540  0.41350  1.0000
  C   C42       1.0  0.54580  0.04460  0.91350  1.0000
  C   C43       1.0  0.04580  0.95540  0.91350  1.0000
  C   C44       1.0  0.95420  0.04460  0.41350  1.0000
  C   C45       1.0  0.51440  0.00880  0.41480  1.0000
  C   C46       1.0  0.48560  0.99120  0.91480  1.0000
  C   C47       1.0  0.98560  0.00880  0.91480  1.0000
  C   C48       1.0  0.01440  0.99120  0.41480  1.0000
  H   H13       1.0  0.54060  0.00320  0.37480  1.0000
  H   H14       1.0  0.45940  0.99680  0.87480  1.0000
  H   H15       1.0  0.95940  0.00320  0.87480  1.0000
  H   H16       1.0  0.04060  0.99680  0.37480  1.0000
  C   C49       1.0  0.61110  0.96740  0.27230  1.0000
  C   C50       1.0  0.38890  0.03260  0.77230  1.0000
  C   C51       1.0  0.88890  0.96740  0.77230  1.0000
  C   C52       1.0  0.11110  0.03260  0.27230  1.0000
  H   H17       1.0  0.44710  0.50740  0.25370  1.0000
  H   H18       1.0  0.55290  0.49260  0.75370  1.0000
  H   H19       1.0  0.05290  0.50740  0.75370  1.0000
  H   H20       1.0  0.94710  0.49260  0.25370  1.0000
  C   C53       1.0  0.50040  0.48590  0.26390  1.0000
  C   C54       1.0  0.49960  0.51410  0.76390  1.0000
  C   C55       1.0  0.99960  0.48590  0.76390  1.0000
  C   C56       1.0  0.00040  0.51410  0.26390  1.0000
  H   H21       1.0  0.55540  0.49840  0.27300  1.0000
  H   H22       1.0  0.44460  0.50160  0.77300  1.0000
  H   H23       1.0  0.94460  0.49840  0.77300  1.0000
  H   H24       1.0  0.05540  0.50160  0.27300  1.0000
  H   H25       1.0  0.43180  0.94010  0.42300  1.0000
  H   H26       1.0  0.56820  0.05990  0.92300  1.0000
  H   H27       1.0  0.06820  0.94010  0.92300  1.0000
  H   H28       1.0  0.93180  0.05990  0.42300  1.0000
  C   C57       1.0  0.48270  0.99130  0.43040  1.0000
  C   C58       1.0  0.51730  0.00870  0.93040  1.0000
  C   C59       1.0  0.01730  0.99130  0.93040  1.0000
  C   C60       1.0  0.98270  0.00870  0.43040  1.0000
  H   H29       1.0  0.53480  0.03340  0.42500  1.0000
  H   H30       1.0  0.46520  0.96660  0.92500  1.0000
  H   H31       1.0  0.96520  0.03340  0.92500  1.0000
  H   H32       1.0  0.03480  0.96660  0.42500  1.0000
  O   O33       1.0  0.59340  0.94670  0.24990  1.0000
  O   O34       1.0  0.40660  0.05330  0.74990  1.0000
  O   O35       1.0  0.90660  0.94670  0.74990  1.0000
  O   O36       1.0  0.09340  0.05330  0.24990  1.0000
  C   C61       1.0  0.65090  0.98980  0.26970  1.0000
  C   C62       1.0  0.34910  0.01020  0.76970  1.0000
  C   C63       1.0  0.84910  0.98980  0.76970  1.0000
  C   C64       1.0  0.15090  0.01020  0.26970  1.0000
  C   C65       1.0  0.49890  0.38500  0.26500  1.0000
  C   C66       1.0  0.50110  0.61500  0.76500  1.0000
  C   C67       1.0  0.00110  0.38500  0.76500  1.0000
  C   C68       1.0  0.99890  0.61500  0.26500  1.0000
  C   C69       1.0  0.48050  0.00360  0.46160  1.0000
  C   C70       1.0  0.51950  0.99640  0.96160  1.0000
  C   C71       1.0  0.01950  0.00360  0.96160  1.0000
  C   C72       1.0  0.98050  0.99640  0.46160  1.0000
  C   C73       1.0  0.66830  0.99570  0.24330  1.0000
  C   C74       1.0  0.33170  0.00430  0.74330  1.0000
  C   C75       1.0  0.83170  0.99570  0.74330  1.0000
  C   C76       1.0  0.16830  0.00430  0.24330  1.0000
  C   C77       1.0  0.67140  0.00490  0.29370  1.0000
  C   C78       1.0  0.32860  0.99510  0.79370  1.0000
  C   C79       1.0  0.82860  0.00490  0.79370  1.0000
  C   C80       1.0  0.17140  0.99510  0.29370  1.0000
  C   C81       1.0  0.46620  0.33930  0.27200  1.0000
  C   C82       1.0  0.53380  0.66070  0.77200  1.0000
  C   C83       1.0  0.03380  0.33930  0.77200  1.0000
  C   C84       1.0  0.96620  0.66070  0.27200  1.0000
  C   C85       1.0  0.52940  0.33070  0.25920  1.0000
  C   C86       1.0  0.47060  0.66930  0.75920  1.0000
  C   C87       1.0  0.97060  0.33070  0.75920  1.0000
  C   C88       1.0  0.02940  0.66930  0.25920  1.0000
  C   C89       1.0  0.44770  0.03070  0.47530  1.0000
  C   C90       1.0  0.55230  0.96930  0.97530  1.0000
  C   C91       1.0  0.05230  0.03070  0.97530  1.0000
  C   C92       1.0  0.94770  0.96930  0.47530  1.0000
  C   C93       1.0  0.51110  0.99330  0.48040  1.0000
  C   C94       1.0  0.48890  0.00670  0.98040  1.0000
  C   C95       1.0  0.98890  0.99330  0.98040  1.0000
  C   C96       1.0  0.01110  0.00670  0.48040  1.0000
  H   H33       1.0  0.65450  0.98500  0.22590  1.0000
  H   H34       1.0  0.34550  0.01500  0.72590  1.0000
  H   H35       1.0  0.84550  0.98500  0.72590  1.0000
  H   H36       1.0  0.15450  0.01500  0.22590  1.0000
  C   C97       1.0  0.70460  0.01610  0.24060  1.0000
  C   C98       1.0  0.29540  0.98390  0.74060  1.0000
  C   C99       1.0  0.79540  0.01610  0.74060  1.0000
  C   C100      1.0  0.20460  0.98390  0.24060  1.0000
  C   C101      1.0  0.70820  0.02660  0.29200  1.0000
  C   C102      1.0  0.29180  0.97340  0.79200  1.0000
  C   C103      1.0  0.79180  0.02660  0.79200  1.0000
  C   C104      1.0  0.20820  0.97340  0.29200  1.0000
  H   H37       1.0  0.66020  0.00050  0.31250  1.0000
  H   H38       1.0  0.33980  0.99950  0.81250  1.0000
  H   H39       1.0  0.83980  0.00050  0.81250  1.0000
  H   H40       1.0  0.16020  0.99950  0.31250  1.0000
  H   H41       1.0  0.44470  0.37440  0.27570  1.0000
  H   H42       1.0  0.55530  0.62560  0.77570  1.0000
  H   H43       1.0  0.05530  0.37440  0.77570  1.0000
  H   H44       1.0  0.94470  0.62560  0.27570  1.0000
  C   C105      1.0  0.46410  0.24490  0.27350  1.0000
  C   C106      1.0  0.53590  0.75510  0.77350  1.0000
  C   C107      1.0  0.03590  0.24490  0.77350  1.0000
  C   C108      1.0  0.96410  0.75510  0.27350  1.0000
  C   C109      1.0  0.52800  0.23790  0.26080  1.0000
  C   C110      1.0  0.47200  0.76210  0.76080  1.0000
  C   C111      1.0  0.97200  0.23790  0.76080  1.0000
  C   C112      1.0  0.02800  0.76210  0.26080  1.0000
  H   H45       1.0  0.55180  0.35940  0.25400  1.0000
  H   H46       1.0  0.44820  0.64060  0.75400  1.0000
  H   H47       1.0  0.94820  0.35940  0.75400  1.0000
  H   H48       1.0  0.05180  0.64060  0.25400  1.0000
  H   H49       1.0  0.42650  0.04110  0.46360  1.0000
  H   H50       1.0  0.57350  0.95890  0.96360  1.0000
  H   H51       1.0  0.07350  0.04110  0.96360  1.0000
  H   H52       1.0  0.92650  0.95890  0.46360  1.0000
  C   C113      1.0  0.44560  0.04260  0.50590  1.0000
  C   C114      1.0  0.55440  0.95740  0.00590  1.0000
  C   C115      1.0  0.05440  0.04260  0.00590  1.0000
  C   C116      1.0  0.94560  0.95740  0.50590  1.0000
  C   C117      1.0  0.50860  0.00730  0.50960  1.0000
  C   C118      1.0  0.49140  0.99270  0.00960  1.0000
  C   C119      1.0  0.99140  0.00730  0.00960  1.0000
  C   C120      1.0  0.00860  0.99270  0.50960  1.0000
  H   H53       1.0  0.53410  0.97600  0.47220  1.0000
  H   H54       1.0  0.46590  0.02400  0.97220  1.0000
  H   H55       1.0  0.96590  0.97600  0.97220  1.0000
  H   H56       1.0  0.03410  0.02400  0.47220  1.0000
  H   H57       1.0  0.71530  0.02010  0.22160  1.0000
  H   H58       1.0  0.28470  0.97990  0.72160  1.0000
  H   H59       1.0  0.78470  0.02010  0.72160  1.0000
  H   H60       1.0  0.21530  0.97990  0.22160  1.0000
  C   C121      1.0  0.72600  0.03120  0.26540  1.0000
  C   C122      1.0  0.27400  0.96880  0.76540  1.0000
  C   C123      1.0  0.77400  0.03120  0.76540  1.0000
  C   C124      1.0  0.22600  0.96880  0.26540  1.0000
  H   H61       1.0  0.72150  0.03860  0.30960  1.0000
  H   H62       1.0  0.27850  0.96140  0.80960  1.0000
  H   H63       1.0  0.77850  0.03860  0.80960  1.0000
  H   H64       1.0  0.22150  0.96140  0.30960  1.0000
  H   H65       1.0  0.44170  0.21510  0.27820  1.0000
  H   H66       1.0  0.55830  0.78490  0.77820  1.0000
  H   H67       1.0  0.05830  0.21510  0.77820  1.0000
  H   H68       1.0  0.94170  0.78490  0.27820  1.0000
  C   C125      1.0  0.49720  0.19250  0.26760  1.0000
  C   C126      1.0  0.50280  0.80750  0.76760  1.0000
  C   C127      1.0  0.00280  0.19250  0.76760  1.0000
  C   C128      1.0  0.99720  0.80750  0.26760  1.0000
  H   H69       1.0  0.54960  0.20380  0.25680  1.0000
  H   H70       1.0  0.45040  0.79620  0.75680  1.0000
  H   H71       1.0  0.95040  0.20380  0.75680  1.0000
  H   H72       1.0  0.04960  0.79620  0.25680  1.0000
  H   H73       1.0  0.42310  0.05990  0.51480  1.0000
  H   H74       1.0  0.57690  0.94010  0.01480  1.0000
  H   H75       1.0  0.07690  0.05990  0.01480  1.0000
  H   H76       1.0  0.92310  0.94010  0.51480  1.0000
  C   C129      1.0  0.47630  0.02900  0.52310  1.0000
  C   C130      1.0  0.52370  0.97100  0.02310  1.0000
  C   C131      1.0  0.02370  0.02900  0.02310  1.0000
  C   C132      1.0  0.97630  0.97100  0.52310  1.0000
  H   H77       1.0  0.53010  0.00190  0.52130  1.0000
  H   H78       1.0  0.46990  0.99810  0.02130  1.0000
  H   H79       1.0  0.96990  0.00190  0.02130  1.0000
  H   H80       1.0  0.03010  0.99810  0.52130  1.0000
  C   C133      1.0  0.76540  0.04930  0.26360  1.0000
  C   C134      1.0  0.23460  0.95070  0.76360  1.0000
  C   C135      1.0  0.73460  0.04930  0.76360  1.0000
  C   C136      1.0  0.26540  0.95070  0.26360  1.0000
  C   C137      1.0  0.49460  0.09190  0.26940  1.0000
  C   C138      1.0  0.50540  0.90810  0.76940  1.0000
  C   C139      1.0  0.00540  0.09190  0.76940  1.0000
  C   C140      1.0  0.99460  0.90810  0.26940  1.0000
  C   C141      1.0  0.47350  0.04010  0.55530  1.0000
  C   C142      1.0  0.52650  0.95990  0.05530  1.0000
  C   C143      1.0  0.02650  0.04010  0.05530  1.0000
  C   C144      1.0  0.97350  0.95990  0.55530  1.0000
  C   C145      1.0  0.78390  0.05230  0.23670  1.0000
  C   C146      1.0  0.21610  0.94770  0.73670  1.0000
  C   C147      1.0  0.71610  0.05230  0.73670  1.0000
  C   C148      1.0  0.28390  0.94770  0.23670  1.0000
  C   C149      1.0  0.78740  0.06150  0.28780  1.0000
  C   C150      1.0  0.21260  0.93850  0.78780  1.0000
  C   C151      1.0  0.71260  0.06150  0.78780  1.0000
  C   C152      1.0  0.28740  0.93850  0.28780  1.0000
  O   O37       1.0  0.50280  0.01630  0.56940  1.0000
  O   O38       1.0  0.49720  0.98370  0.06940  1.0000
  O   O39       1.0  0.99720  0.01630  0.06940  1.0000
  O   O40       1.0  0.00280  0.98370  0.56940  1.0000
  O   O41       1.0  0.44550  0.06630  0.56700  1.0000
  O   O42       1.0  0.55450  0.93370  0.06700  1.0000
  O   O43       1.0  0.05450  0.06630  0.06700  1.0000
  O   O44       1.0  0.94550  0.93370  0.56700  1.0000
  H   H81       1.0  0.77020  0.04510  0.21910  1.0000
  H   H82       1.0  0.22980  0.95490  0.71910  1.0000
  H   H83       1.0  0.72980  0.04510  0.71910  1.0000
  H   H84       1.0  0.27020  0.95490  0.21910  1.0000
  C   C153      1.0  0.82160  0.06540  0.23460  1.0000
  C   C154      1.0  0.17840  0.93460  0.73460  1.0000
  C   C155      1.0  0.67840  0.06540  0.73460  1.0000
  C   C156      1.0  0.32160  0.93460  0.23460  1.0000
  C   C157      1.0  0.82460  0.07450  0.28610  1.0000
  C   C158      1.0  0.17540  0.92550  0.78610  1.0000
  C   C159      1.0  0.67540  0.07450  0.78610  1.0000
  C   C160      1.0  0.32460  0.92550  0.28610  1.0000
  H   H85       1.0  0.77630  0.06080  0.30670  1.0000
  H   H86       1.0  0.22370  0.93920  0.80670  1.0000
  H   H87       1.0  0.72370  0.06080  0.80670  1.0000
  H   H88       1.0  0.27630  0.93920  0.30670  1.0000
  Zn  Zn9       1.0  0.52382  0.02953  0.61003  1.0000
  Zn  Zn10      1.0  0.47618  0.97047  0.11003  1.0000
  Zn  Zn11      1.0  0.97618  0.02953  0.11003  1.0000
  Zn  Zn12      1.0  0.02382  0.97047  0.61003  1.0000
  Zn  Zn13      1.0  0.43160  0.05034  0.60912  1.0000
  Zn  Zn14      1.0  0.56840  0.94966  0.10912  1.0000
  Zn  Zn15      1.0  0.06840  0.05034  0.10912  1.0000
  Zn  Zn16      1.0  0.93160  0.94966  0.60912  1.0000
  H   H89       1.0  0.83310  0.06940  0.21590  1.0000
  H   H90       1.0  0.16690  0.93060  0.71590  1.0000
  H   H91       1.0  0.66690  0.06940  0.71590  1.0000
  H   H92       1.0  0.33310  0.93060  0.21590  1.0000
  C   C161      1.0  0.84200  0.07250  0.26010  1.0000
  C   C162      1.0  0.15800  0.92750  0.76010  1.0000
  C   C163      1.0  0.65800  0.07250  0.76010  1.0000
  C   C164      1.0  0.34200  0.92750  0.26010  1.0000
  H   H93       1.0  0.83820  0.08520  0.30360  1.0000
  H   H94       1.0  0.16180  0.91480  0.80360  1.0000
  H   H95       1.0  0.66180  0.08520  0.80360  1.0000
  H   H96       1.0  0.33820  0.91480  0.30360  1.0000
  O   O45       1.0  0.51540  0.15890  0.61680  1.0000
  O   O46       1.0  0.48460  0.84110  0.11680  1.0000
  O   O47       1.0  0.98460  0.15890  0.11680  1.0000
  O   O48       1.0  0.01540  0.84110  0.61680  1.0000
  O   O49       1.0  0.49990  0.92440  0.62760  1.0000
  O   O50       1.0  0.50010  0.07560  0.12760  1.0000
  O   O51       1.0  0.00010  0.92440  0.12760  1.0000
  O   O52       1.0  0.99990  0.07560  0.62760  1.0000
  O   O53       1.0  0.57620  0.00590  0.59940  1.0000
  O   O54       1.0  0.42380  0.99410  0.09940  1.0000
  O   O55       1.0  0.92380  0.00590  0.09940  1.0000
  O   O56       1.0  0.07620  0.99410  0.59940  1.0000
  O   O57       1.0  0.45720  0.15130  0.62910  1.0000
  O   O58       1.0  0.54280  0.84870  0.12910  1.0000
  O   O59       1.0  0.04280  0.15130  0.12910  1.0000
  O   O60       1.0  0.95720  0.84870  0.62910  1.0000
  O   O61       1.0  0.37990  0.07570  0.60840  1.0000
  O   O62       1.0  0.62010  0.92430  0.10840  1.0000
  O   O63       1.0  0.12010  0.07570  0.10840  1.0000
  O   O64       1.0  0.87990  0.92430  0.60840  1.0000
  O   O65       1.0  0.44030  0.92030  0.61430  1.0000
  O   O66       1.0  0.55970  0.07970  0.11430  1.0000
  O   O67       1.0  0.05970  0.92030  0.11430  1.0000
  O   O68       1.0  0.94030  0.07970  0.61430  1.0000
  C   C165      1.0  0.88220  0.07570  0.25750  1.0000
  C   C166      1.0  0.11780  0.92430  0.75750  1.0000
  C   C167      1.0  0.61780  0.07570  0.75750  1.0000
  C   C168      1.0  0.38220  0.92430  0.25750  1.0000
  C   C169      1.0  0.48470  0.19600  0.62270  1.0000
  C   C170      1.0  0.51530  0.80400  0.12270  1.0000
  C   C171      1.0  0.01530  0.19600  0.12270  1.0000
  C   C172      1.0  0.98470  0.80400  0.62270  1.0000
  C   C173      1.0  0.36480  0.05330  0.63190  1.0000
  C   C174      1.0  0.63520  0.94670  0.13190  1.0000
  C   C175      1.0  0.13520  0.05330  0.13190  1.0000
  C   C176      1.0  0.86480  0.94670  0.63190  1.0000
  O   O69       1.0  0.89980  0.06220  0.23470  1.0000
  O   O70       1.0  0.10020  0.93780  0.73470  1.0000
  O   O71       1.0  0.60020  0.06220  0.73470  1.0000
  O   O72       1.0  0.39980  0.93780  0.23470  1.0000
  C   C177      1.0  0.48260  0.29640  0.62230  1.0000
  C   C178      1.0  0.51740  0.70360  0.12230  1.0000
  C   C179      1.0  0.01740  0.29640  0.12230  1.0000
  C   C180      1.0  0.98260  0.70360  0.62230  1.0000
  O   O73       1.0  0.38220  0.03100  0.65360  1.0000
  O   O74       1.0  0.61780  0.96900  0.15360  1.0000
  O   O75       1.0  0.11780  0.03100  0.15360  1.0000
  O   O76       1.0  0.88220  0.96900  0.65360  1.0000
  C   C181      1.0  0.32430  0.05070  0.63170  1.0000
  C   C182      1.0  0.67570  0.94930  0.13170  1.0000
  C   C183      1.0  0.17570  0.05070  0.13170  1.0000
  C   C184      1.0  0.82430  0.94930  0.63170  1.0000
  C   C185      1.0  0.44950  0.34090  0.62700  1.0000
  C   C186      1.0  0.55050  0.65910  0.12700  1.0000
  C   C187      1.0  0.05050  0.34090  0.12700  1.0000
  C   C188      1.0  0.94950  0.65910  0.62700  1.0000
  C   C189      1.0  0.51440  0.34780  0.61510  1.0000
  C   C190      1.0  0.48560  0.65220  0.11510  1.0000
  C   C191      1.0  0.98560  0.34780  0.11510  1.0000
  C   C192      1.0  0.01440  0.65220  0.61510  1.0000
  C   C193      1.0  0.30340  0.08650  0.60830  1.0000
  C   C194      1.0  0.69660  0.91350  0.10830  1.0000
  C   C195      1.0  0.19660  0.08650  0.10830  1.0000
  C   C196      1.0  0.80340  0.91350  0.60830  1.0000
  C   C197      1.0  0.30560  0.00760  0.65450  1.0000
  C   C198      1.0  0.69440  0.99240  0.15450  1.0000
  C   C199      1.0  0.19440  0.00760  0.15450  1.0000
  C   C200      1.0  0.80560  0.99240  0.65450  1.0000
  H   H97       1.0  0.42810  0.30590  0.63100  1.0000
  H   H98       1.0  0.57190  0.69410  0.13100  1.0000
  H   H99       1.0  0.07190  0.30590  0.13100  1.0000
  H   H100      1.0  0.92810  0.69410  0.63100  1.0000
  C   C201      1.0  0.44710  0.43750  0.62580  1.0000
  C   C202      1.0  0.55290  0.56250  0.12580  1.0000
  C   C203      1.0  0.05290  0.43750  0.12580  1.0000
  C   C204      1.0  0.94710  0.56250  0.62580  1.0000
  C   C205      1.0  0.51110  0.44270  0.61410  1.0000
  C   C206      1.0  0.48890  0.55730  0.11410  1.0000
  C   C207      1.0  0.98890  0.44270  0.11410  1.0000
  C   C208      1.0  0.01110  0.55730  0.61410  1.0000
  H   H101      1.0  0.53710  0.31850  0.61120  1.0000
  H   H102      1.0  0.46290  0.68150  0.11120  1.0000
  H   H103      1.0  0.96290  0.31850  0.11120  1.0000
  H   H104      1.0  0.03710  0.68150  0.61120  1.0000
  H   H105      1.0  0.31560  0.11560  0.59230  1.0000
  H   H106      1.0  0.68440  0.88440  0.09230  1.0000
  H   H107      1.0  0.18440  0.11560  0.09230  1.0000
  H   H108      1.0  0.81560  0.88440  0.59230  1.0000
  C   C209      1.0  0.26540  0.08010  0.60790  1.0000
  C   C210      1.0  0.73460  0.91990  0.10790  1.0000
  C   C211      1.0  0.23460  0.08010  0.10790  1.0000
  C   C212      1.0  0.76540  0.91990  0.60790  1.0000
  C   C213      1.0  0.26760  0.99810  0.65340  1.0000
  C   C214      1.0  0.73240  0.00190  0.15340  1.0000
  C   C215      1.0  0.23240  0.99810  0.15340  1.0000
  C   C216      1.0  0.76760  0.00190  0.65340  1.0000
  H   H109      1.0  0.31880  0.98440  0.67090  1.0000
  H   H110      1.0  0.68120  0.01560  0.17090  1.0000
  H   H111      1.0  0.18120  0.98440  0.17090  1.0000
  H   H112      1.0  0.81880  0.01560  0.67090  1.0000
  H   H113      1.0  0.42430  0.46720  0.62930  1.0000
  H   H114      1.0  0.57570  0.53280  0.12930  1.0000
  H   H115      1.0  0.07570  0.46720  0.12930  1.0000
  H   H116      1.0  0.92430  0.53280  0.62930  1.0000
  C   C217      1.0  0.47820  0.48880  0.61960  1.0000
  C   C218      1.0  0.52180  0.51120  0.11960  1.0000
  C   C219      1.0  0.02180  0.48880  0.11960  1.0000
  C   C220      1.0  0.97820  0.51120  0.61960  1.0000
  H   H117      1.0  0.53230  0.47790  0.60940  1.0000
  H   H118      1.0  0.46770  0.52210  0.10940  1.0000
  H   H119      1.0  0.96770  0.47790  0.10940  1.0000
  H   H120      1.0  0.03230  0.52210  0.60940  1.0000
  H   H121      1.0  0.25190  0.10580  0.59200  1.0000
  H   H122      1.0  0.74810  0.89420  0.09200  1.0000
  H   H123      1.0  0.24810  0.10580  0.09200  1.0000
  H   H124      1.0  0.75190  0.89420  0.59200  1.0000
  C   C221      1.0  0.24750  0.03700  0.63040  1.0000
  C   C222      1.0  0.75250  0.96300  0.13040  1.0000
  C   C223      1.0  0.25250  0.03700  0.13040  1.0000
  C   C224      1.0  0.74750  0.96300  0.63040  1.0000
  H   H125      1.0  0.25530  0.96500  0.66850  1.0000
  H   H126      1.0  0.74470  0.03500  0.16850  1.0000
  H   H127      1.0  0.24470  0.96500  0.16850  1.0000
  H   H128      1.0  0.75530  0.03500  0.66850  1.0000
  C   C225      1.0  0.47670  0.59000  0.61870  1.0000
  C   C226      1.0  0.52330  0.41000  0.11870  1.0000
  C   C227      1.0  0.02330  0.59000  0.11870  1.0000
  C   C228      1.0  0.97670  0.41000  0.61870  1.0000
  C   C229      1.0  0.20690  0.02680  0.62920  1.0000
  C   C230      1.0  0.79310  0.97320  0.12920  1.0000
  C   C231      1.0  0.29310  0.02680  0.12920  1.0000
  C   C232      1.0  0.70690  0.97320  0.62920  1.0000
  C   C233      1.0  0.44290  0.63490  0.61400  1.0000
  C   C234      1.0  0.55710  0.36510  0.11400  1.0000
  C   C235      1.0  0.05710  0.63490  0.11400  1.0000
  C   C236      1.0  0.94290  0.36510  0.61400  1.0000
  C   C237      1.0  0.50690  0.64220  0.62410  1.0000
  C   C238      1.0  0.49310  0.35780  0.12410  1.0000
  C   C239      1.0  0.99310  0.64220  0.12410  1.0000
  C   C240      1.0  0.00690  0.35780  0.62410  1.0000
  C   C241      1.0  0.18790  0.02750  0.60270  1.0000
  C   C242      1.0  0.81210  0.97250  0.10270  1.0000
  C   C243      1.0  0.31210  0.02750  0.10270  1.0000
  C   C244      1.0  0.68790  0.97250  0.60270  1.0000
  C   C245      1.0  0.18610  0.01710  0.65450  1.0000
  C   C246      1.0  0.81390  0.98290  0.15450  1.0000
  C   C247      1.0  0.31390  0.01710  0.15450  1.0000
  C   C248      1.0  0.68610  0.98290  0.65450  1.0000
  H   H129      1.0  0.42130  0.60000  0.61080  1.0000
  H   H130      1.0  0.57870  0.40000  0.11080  1.0000
  H   H131      1.0  0.07870  0.60000  0.11080  1.0000
  H   H132      1.0  0.92130  0.40000  0.61080  1.0000
  C   C249      1.0  0.44120  0.72950  0.61400  1.0000
  C   C250      1.0  0.55880  0.27050  0.11400  1.0000
  C   C251      1.0  0.05880  0.72950  0.11400  1.0000
  C   C252      1.0  0.94120  0.27050  0.61400  1.0000
  C   C253      1.0  0.50520  0.73650  0.62470  1.0000
  C   C254      1.0  0.49480  0.26350  0.12470  1.0000
  C   C255      1.0  0.99480  0.73650  0.12470  1.0000
  C   C256      1.0  0.00520  0.26350  0.62470  1.0000
  H   H133      1.0  0.52970  0.61280  0.62760  1.0000
  H   H134      1.0  0.47030  0.38720  0.12760  1.0000
  H   H135      1.0  0.97030  0.61280  0.12760  1.0000
  H   H136      1.0  0.02970  0.38720  0.62760  1.0000
  H   H137      1.0  0.20120  0.03810  0.58500  1.0000
  H   H138      1.0  0.79880  0.96190  0.08500  1.0000
  H   H139      1.0  0.29880  0.03810  0.08500  1.0000
  H   H140      1.0  0.70120  0.96190  0.58500  1.0000
  C   C257      1.0  0.15070  0.01350  0.60080  1.0000
  C   C258      1.0  0.84930  0.98650  0.10080  1.0000
  C   C259      1.0  0.34930  0.01350  0.10080  1.0000
  C   C260      1.0  0.65070  0.98650  0.60080  1.0000
  C   C261      1.0  0.14830  0.00640  0.65340  1.0000
  C   C262      1.0  0.85170  0.99360  0.15340  1.0000
  C   C263      1.0  0.35170  0.00640  0.15340  1.0000
  C   C264      1.0  0.64830  0.99360  0.65340  1.0000
  H   H141      1.0  0.19790  0.01780  0.67310  1.0000
  H   H142      1.0  0.80210  0.98220  0.17310  1.0000
  H   H143      1.0  0.30210  0.01780  0.17310  1.0000
  H   H144      1.0  0.69790  0.98220  0.67310  1.0000
  H   H145      1.0  0.41850  0.75920  0.61030  1.0000
  H   H146      1.0  0.58150  0.24080  0.11030  1.0000
  H   H147      1.0  0.08150  0.75920  0.11030  1.0000
  H   H148      1.0  0.91850  0.24080  0.61030  1.0000
  C   C265      1.0  0.47330  0.78290  0.61950  1.0000
  C   C266      1.0  0.52670  0.21710  0.11950  1.0000
  C   C267      1.0  0.02670  0.78290  0.11950  1.0000
  C   C268      1.0  0.97330  0.21710  0.61950  1.0000
  H   H149      1.0  0.52680  0.77030  0.62890  1.0000
  H   H150      1.0  0.47320  0.22970  0.12890  1.0000
  H   H151      1.0  0.97320  0.77030  0.12890  1.0000
  H   H152      1.0  0.02680  0.22970  0.62890  1.0000
  H   H153      1.0  0.13900  0.01110  0.58210  1.0000
  H   H154      1.0  0.86100  0.98890  0.08210  1.0000
  H   H155      1.0  0.36100  0.01110  0.08210  1.0000
  H   H156      1.0  0.63900  0.98890  0.58210  1.0000
  C   C269      1.0  0.13020  0.00280  0.62660  1.0000
  C   C270      1.0  0.86980  0.99720  0.12660  1.0000
  C   C271      1.0  0.36980  0.00280  0.12660  1.0000
  C   C272      1.0  0.63020  0.99720  0.62660  1.0000
  H   H157      1.0  0.13470  0.00140  0.67110  1.0000
  H   H158      1.0  0.86530  0.99860  0.17110  1.0000
  H   H159      1.0  0.36530  0.00140  0.17110  1.0000
  H   H160      1.0  0.63470  0.99860  0.67110  1.0000
  C   C273      1.0  0.47100  0.88390  0.62040  1.0000
  C   C274      1.0  0.52900  0.11610  0.12040  1.0000
  C   C275      1.0  0.02900  0.88390  0.12040  1.0000
  C   C276      1.0  0.97100  0.11610  0.62040  1.0000
  C   C277      1.0  0.09020  0.99000  0.62470  1.0000
  C   C278      1.0  0.90980  0.01000  0.12470  1.0000
  C   C279      1.0  0.40980  0.99000  0.12470  1.0000
  C   C280      1.0  0.59020  0.01000  0.62470  1.0000
  O   O77       1.0  0.07160  0.97660  0.64750  1.0000
  O   O78       1.0  0.92840  0.02340  0.14750  1.0000
  O   O79       1.0  0.42840  0.97660  0.14750  1.0000
  O   O80       1.0  0.57160  0.02340  0.64750  1.0000
  Zn  Zn17      1.0  0.67273  0.46415  0.53396  1.0000
  Zn  Zn18      1.0  0.32727  0.53585  0.03396  1.0000
  Zn  Zn19      1.0  0.82727  0.46415  0.03396  1.0000
  Zn  Zn20      1.0  0.17273  0.53585  0.53396  1.0000
  Zn  Zn21      1.0  0.76516  0.44553  0.53063  1.0000
  Zn  Zn22      1.0  0.23484  0.55447  0.03063  1.0000
  Zn  Zn23      1.0  0.73484  0.44553  0.03063  1.0000
  Zn  Zn24      1.0  0.26516  0.55447  0.53063  1.0000
  Zn  Zn25      1.0  0.71473  0.56041  0.85913  1.0000
  Zn  Zn26      1.0  0.28527  0.43959  0.35913  1.0000
  Zn  Zn27      1.0  0.78527  0.56041  0.35913  1.0000
  Zn  Zn28      1.0  0.21473  0.43959  0.85913  1.0000
  Zn  Zn29      1.0  0.80706  0.54404  0.85467  1.0000
  Zn  Zn30      1.0  0.19294  0.45596  0.35467  1.0000
  Zn  Zn31      1.0  0.69294  0.54404  0.35467  1.0000
  Zn  Zn32      1.0  0.30706  0.45596  0.85467  1.0000
  O   O81       1.0  0.69520  0.56830  0.51500  1.0000
  O   O82       1.0  0.30480  0.43170  0.01500  1.0000
  O   O83       1.0  0.80480  0.56830  0.01500  1.0000
  O   O84       1.0  0.19520  0.43170  0.51500  1.0000
  O   O85       1.0  0.75430  0.57480  0.52600  1.0000
  O   O86       1.0  0.24570  0.42520  0.02600  1.0000
  O   O87       1.0  0.74570  0.57480  0.02600  1.0000
  O   O88       1.0  0.25430  0.42520  0.52600  1.0000
  O   O89       1.0  0.74220  0.34160  0.51120  1.0000
  O   O90       1.0  0.25780  0.65840  0.01120  1.0000
  O   O91       1.0  0.75780  0.34160  0.01120  1.0000
  O   O92       1.0  0.24220  0.65840  0.51120  1.0000
  O   O93       1.0  0.68300  0.33630  0.52590  1.0000
  O   O94       1.0  0.31700  0.66370  0.02590  1.0000
  O   O95       1.0  0.81700  0.33630  0.02590  1.0000
  O   O96       1.0  0.18300  0.66370  0.52590  1.0000
  O   O97       1.0  0.74590  0.42860  0.57180  1.0000
  O   O98       1.0  0.25410  0.57140  0.07180  1.0000
  O   O99       1.0  0.75410  0.42860  0.07180  1.0000
  O   O100      1.0  0.24590  0.57140  0.57180  1.0000
  O   O101      1.0  0.68920  0.48020  0.57550  1.0000
  O   O102      1.0  0.31080  0.51980  0.07550  1.0000
  O   O103      1.0  0.81080  0.48020  0.07550  1.0000
  O   O104      1.0  0.18920  0.51980  0.57550  1.0000
  O   O105      1.0  0.73040  0.58380  0.81809  1.0000
  O   O106      1.0  0.26960  0.41620  0.31809  1.0000
  O   O107      1.0  0.76960  0.58380  0.31809  1.0000
  O   O108      1.0  0.23040  0.41620  0.81809  1.0000
  O   O109      1.0  0.78800  0.52900  0.81400  1.0000
  O   O110      1.0  0.21200  0.47100  0.31400  1.0000
  O   O111      1.0  0.71200  0.52900  0.31400  1.0000
  O   O112      1.0  0.28800  0.47100  0.81400  1.0000
  O   O113      1.0  0.62050  0.48270  0.53980  1.0000
  O   O114      1.0  0.37950  0.51730  0.03980  1.0000
  O   O115      1.0  0.87950  0.48270  0.03980  1.0000
  O   O116      1.0  0.12050  0.51730  0.53980  1.0000
  O   O117      1.0  0.62350  0.47310  0.49130  1.0000
  O   O118      1.0  0.37650  0.52690  0.99130  1.0000
  O   O119      1.0  0.87650  0.47310  0.99130  1.0000
  O   O120      1.0  0.12350  0.52690  0.49130  1.0000
  O   O121      1.0  0.31290  0.54460  0.49230  1.0000
  O   O122      1.0  0.68710  0.45540  0.99230  1.0000
  O   O123      1.0  0.18710  0.54460  0.99230  1.0000
  O   O124      1.0  0.81290  0.45540  0.49230  1.0000
  O   O125      1.0  0.31720  0.56960  0.53960  1.0000
  O   O126      1.0  0.68280  0.43040  0.03960  1.0000
  O   O127      1.0  0.18280  0.56960  0.03960  1.0000
  O   O128      1.0  0.81720  0.43040  0.53960  1.0000
  O   O129      1.0  0.73830  0.66190  0.87980  1.0000
  O   O130      1.0  0.26170  0.33810  0.37980  1.0000
  O   O131      1.0  0.76170  0.66190  0.37980  1.0000
  O   O132      1.0  0.23830  0.33810  0.87980  1.0000
  O   O133      1.0  0.79750  0.66960  0.86600  1.0000
  O   O134      1.0  0.20250  0.33040  0.36600  1.0000
  O   O135      1.0  0.70250  0.66960  0.36600  1.0000
  O   O136      1.0  0.29750  0.33040  0.86600  1.0000
  O   O137      1.0  0.78480  0.43550  0.87300  1.0000
  O   O138      1.0  0.21520  0.56450  0.37300  1.0000
  O   O139      1.0  0.71520  0.43550  0.37300  1.0000
  O   O140      1.0  0.28480  0.56450  0.87300  1.0000
  O   O141      1.0  0.72470  0.42990  0.86340  1.0000
  O   O142      1.0  0.27530  0.57010  0.36340  1.0000
  O   O143      1.0  0.77530  0.42990  0.36340  1.0000
  O   O144      1.0  0.22470  0.57010  0.86340  1.0000
  O   O145      1.0  0.66360  0.57880  0.85470  1.0000
  O   O146      1.0  0.33640  0.42120  0.35470  1.0000
  O   O147      1.0  0.83640  0.57880  0.35470  1.0000
  O   O148      1.0  0.16360  0.42120  0.85470  1.0000
  O   O149      1.0  0.66510  0.53950  0.90190  1.0000
  O   O150      1.0  0.33490  0.46050  0.40190  1.0000
  O   O151      1.0  0.83490  0.53950  0.40190  1.0000
  O   O152      1.0  0.16510  0.46050  0.90190  1.0000
  O   O153      1.0  0.35500  0.47200  0.89180  1.0000
  O   O154      1.0  0.64500  0.52800  0.39180  1.0000
  O   O155      1.0  0.14500  0.47200  0.39180  1.0000
  O   O156      1.0  0.85500  0.52800  0.89180  1.0000
  O   O157      1.0  0.35909  0.47230  0.84420  1.0000
  O   O158      1.0  0.64091  0.52770  0.34420  1.0000
  O   O159      1.0  0.14091  0.47230  0.34420  1.0000
  O   O160      1.0  0.85909  0.52770  0.84420  1.0000
  C   C281      1.0  0.72450  0.61340  0.52050  1.0000
  C   C282      1.0  0.27550  0.38660  0.02050  1.0000
  C   C283      1.0  0.77550  0.61340  0.02050  1.0000
  C   C284      1.0  0.22450  0.38660  0.52050  1.0000
  C   C285      1.0  0.72250  0.71360  0.51970  1.0000
  C   C286      1.0  0.27750  0.28640  0.01970  1.0000
  C   C287      1.0  0.77750  0.71360  0.01970  1.0000
  C   C288      1.0  0.22250  0.28640  0.51970  1.0000
  C   C289      1.0  0.69020  0.75940  0.51400  1.0000
  C   C290      1.0  0.30980  0.24060  0.01400  1.0000
  C   C291      1.0  0.80980  0.75940  0.01400  1.0000
  C   C292      1.0  0.19020  0.24060  0.51400  1.0000
  H   H161      1.0  0.66850  0.72530  0.51020  1.0000
  H   H162      1.0  0.33150  0.27470  0.01020  1.0000
  H   H163      1.0  0.83150  0.72530  0.01020  1.0000
  H   H164      1.0  0.16850  0.27470  0.51020  1.0000
  C   C293      1.0  0.68870  0.85160  0.51380  1.0000
  C   C294      1.0  0.31130  0.14840  0.01380  1.0000
  C   C295      1.0  0.81130  0.85160  0.01380  1.0000
  C   C296      1.0  0.18870  0.14840  0.51380  1.0000
  H   H165      1.0  0.66630  0.88110  0.50890  1.0000
  H   H166      1.0  0.33370  0.11890  0.00890  1.0000
  H   H167      1.0  0.83370  0.88110  0.00890  1.0000
  H   H168      1.0  0.16630  0.11890  0.50890  1.0000
  C   C297      1.0  0.71980  0.90540  0.52070  1.0000
  C   C298      1.0  0.28020  0.09460  0.02070  1.0000
  C   C299      1.0  0.78020  0.90540  0.02070  1.0000
  C   C300      1.0  0.21980  0.09460  0.52070  1.0000
  C   C301      1.0  0.75250  0.86050  0.52680  1.0000
  C   C302      1.0  0.24750  0.13950  0.02680  1.0000
  C   C303      1.0  0.74750  0.86050  0.02680  1.0000
  C   C304      1.0  0.25250  0.13950  0.52680  1.0000
  H   H169      1.0  0.77390  0.89460  0.53130  1.0000
  H   H170      1.0  0.22610  0.10540  0.03130  1.0000
  H   H171      1.0  0.72610  0.89460  0.03130  1.0000
  H   H172      1.0  0.27390  0.10540  0.53130  1.0000
  C   C305      1.0  0.75350  0.76590  0.52630  1.0000
  C   C306      1.0  0.24650  0.23410  0.02630  1.0000
  C   C307      1.0  0.74650  0.76590  0.02630  1.0000
  C   C308      1.0  0.25350  0.23410  0.52630  1.0000
  H   H173      1.0  0.77600  0.73560  0.53050  1.0000
  H   H174      1.0  0.22400  0.26440  0.03050  1.0000
  H   H175      1.0  0.72400  0.73560  0.03050  1.0000
  H   H176      1.0  0.27600  0.26440  0.53050  1.0000
  C   C309      1.0  0.71800  0.00730  0.52030  1.0000
  C   C310      1.0  0.28200  0.99270  0.02030  1.0000
  C   C311      1.0  0.78200  0.00730  0.02030  1.0000
  C   C312      1.0  0.21800  0.99270  0.52030  1.0000
  C   C313      1.0  0.68480  0.05200  0.52470  1.0000
  C   C314      1.0  0.31520  0.94800  0.02470  1.0000
  C   C315      1.0  0.81520  0.05200  0.02470  1.0000
  C   C316      1.0  0.18480  0.94800  0.52470  1.0000
  H   H177      1.0  0.66320  0.01770  0.52830  1.0000
  H   H178      1.0  0.33680  0.98230  0.02830  1.0000
  H   H179      1.0  0.83680  0.01770  0.02830  1.0000
  H   H180      1.0  0.16320  0.98230  0.52830  1.0000
  C   C317      1.0  0.68350  0.14710  0.52390  1.0000
  C   C318      1.0  0.31650  0.85290  0.02390  1.0000
  C   C319      1.0  0.81650  0.14710  0.02390  1.0000
  C   C320      1.0  0.18350  0.85290  0.52390  1.0000
  H   H181      1.0  0.66080  0.17760  0.52700  1.0000
  H   H182      1.0  0.33920  0.82240  0.02700  1.0000
  H   H183      1.0  0.83920  0.17760  0.02700  1.0000
  H   H184      1.0  0.16080  0.82240  0.52700  1.0000
  C   C321      1.0  0.71390  0.19640  0.51880  1.0000
  C   C322      1.0  0.28610  0.80360  0.01880  1.0000
  C   C323      1.0  0.78610  0.19640  0.01880  1.0000
  C   C324      1.0  0.21390  0.80360  0.51880  1.0000
  C   C325      1.0  0.74740  0.15350  0.51380  1.0000
  C   C326      1.0  0.25260  0.84650  0.01380  1.0000
  C   C327      1.0  0.75260  0.15350  0.01380  1.0000
  C   C328      1.0  0.24740  0.84650  0.51380  1.0000
  H   H185      1.0  0.76890  0.18840  0.51000  1.0000
  H   H186      1.0  0.23110  0.81160  0.01000  1.0000
  H   H187      1.0  0.73110  0.18840  0.01000  1.0000
  H   H188      1.0  0.26890  0.81160  0.51000  1.0000
  C   C329      1.0  0.74870  0.05770  0.51450  1.0000
  C   C330      1.0  0.25130  0.94230  0.01450  1.0000
  C   C331      1.0  0.75130  0.05770  0.01450  1.0000
  C   C332      1.0  0.24870  0.94230  0.51450  1.0000
  H   H189      1.0  0.77120  0.02730  0.51080  1.0000
  H   H190      1.0  0.22880  0.97270  0.01080  1.0000
  H   H191      1.0  0.72880  0.02730  0.01080  1.0000
  H   H192      1.0  0.27120  0.97270  0.51080  1.0000
  C   C333      1.0  0.71380  0.30000  0.51830  1.0000
  C   C334      1.0  0.28620  0.70000  0.01830  1.0000
  C   C335      1.0  0.78620  0.30000  0.01830  1.0000
  C   C336      1.0  0.21380  0.70000  0.51830  1.0000
  C   C337      1.0  0.71970  0.45890  0.58650  1.0000
  C   C338      1.0  0.28030  0.54110  0.08650  1.0000
  C   C339      1.0  0.78030  0.45890  0.08650  1.0000
  C   C340      1.0  0.21970  0.54110  0.58650  1.0000
  C   C341      1.0  0.72510  0.46880  0.61830  1.0000
  C   C342      1.0  0.27490  0.53120  0.11830  1.0000
  C   C343      1.0  0.77490  0.46880  0.11830  1.0000
  C   C344      1.0  0.22510  0.53120  0.61830  1.0000
  C   C345      1.0  0.75790  0.45290  0.63110  1.0000
  C   C346      1.0  0.24210  0.54710  0.13110  1.0000
  C   C347      1.0  0.74210  0.45290  0.13110  1.0000
  C   C348      1.0  0.25790  0.54710  0.63110  1.0000
  H   H193      1.0  0.77790  0.43130  0.61960  1.0000
  H   H194      1.0  0.22210  0.56870  0.11960  1.0000
  H   H195      1.0  0.72210  0.43130  0.11960  1.0000
  H   H196      1.0  0.27790  0.56870  0.61960  1.0000
  C   C349      1.0  0.76220  0.46810  0.66110  1.0000
  C   C350      1.0  0.23780  0.53190  0.16110  1.0000
  C   C351      1.0  0.73780  0.46810  0.16110  1.0000
  C   C352      1.0  0.26220  0.53190  0.66110  1.0000
  H   H197      1.0  0.78590  0.45940  0.66920  1.0000
  H   H198      1.0  0.21410  0.54060  0.16920  1.0000
  H   H199      1.0  0.71410  0.45940  0.16920  1.0000
  H   H200      1.0  0.28590  0.54060  0.66920  1.0000
  C   C353      1.0  0.73520  0.49430  0.67930  1.0000
  C   C354      1.0  0.26480  0.50570  0.17930  1.0000
  C   C355      1.0  0.76480  0.49430  0.17930  1.0000
  C   C356      1.0  0.23520  0.50570  0.67930  1.0000
  C   C357      1.0  0.69930  0.49610  0.66680  1.0000
  C   C358      1.0  0.30070  0.50390  0.16680  1.0000
  C   C359      1.0  0.80070  0.49610  0.16680  1.0000
  C   C360      1.0  0.19930  0.50390  0.66680  1.0000
  H   H201      1.0  0.67860  0.50340  0.67920  1.0000
  H   H202      1.0  0.32140  0.49660  0.17920  1.0000
  H   H203      1.0  0.82140  0.50340  0.17920  1.0000
  H   H204      1.0  0.17860  0.49660  0.67920  1.0000
  C   C361      1.0  0.69420  0.48730  0.63670  1.0000
  C   C362      1.0  0.30580  0.51270  0.13670  1.0000
  C   C363      1.0  0.80580  0.48730  0.13670  1.0000
  C   C364      1.0  0.19420  0.51270  0.63670  1.0000
  H   H205      1.0  0.67050  0.49360  0.62840  1.0000
  H   H206      1.0  0.32950  0.50640  0.12840  1.0000
  H   H207      1.0  0.82950  0.49360  0.12840  1.0000
  H   H208      1.0  0.17050  0.50640  0.62840  1.0000
  C   C365      1.0  0.74060  0.51100  0.71040  1.0000
  C   C366      1.0  0.25940  0.48900  0.21040  1.0000
  C   C367      1.0  0.75940  0.51100  0.21040  1.0000
  C   C368      1.0  0.24060  0.48900  0.71040  1.0000
  C   C369      1.0  0.77270  0.48010  0.72490  1.0000
  C   C370      1.0  0.22730  0.51990  0.22490  1.0000
  C   C371      1.0  0.72730  0.48010  0.22490  1.0000
  C   C372      1.0  0.27270  0.51990  0.72490  1.0000
  H   H209      1.0  0.79080  0.44730  0.71420  1.0000
  H   H210      1.0  0.20920  0.55270  0.21420  1.0000
  H   H211      1.0  0.70920  0.44730  0.21420  1.0000
  H   H212      1.0  0.29080  0.55270  0.71420  1.0000
  C   C373      1.0  0.77790  0.49760  0.75480  1.0000
  C   C374      1.0  0.22210  0.50240  0.25480  1.0000
  C   C375      1.0  0.72210  0.49760  0.25480  1.0000
  C   C376      1.0  0.27790  0.50240  0.75480  1.0000
  H   H213      1.0  0.80040  0.48010  0.76370  1.0000
  H   H214      1.0  0.19960  0.51990  0.26370  1.0000
  H   H215      1.0  0.69960  0.48010  0.26370  1.0000
  H   H216      1.0  0.30040  0.51990  0.76370  1.0000
  C   C377      1.0  0.75160  0.53930  0.77160  1.0000
  C   C378      1.0  0.24840  0.46070  0.27160  1.0000
  C   C379      1.0  0.74840  0.53930  0.27160  1.0000
  C   C380      1.0  0.25160  0.46070  0.77160  1.0000
  C   C381      1.0  0.72010  0.56550  0.75790  1.0000
  C   C382      1.0  0.27990  0.43450  0.25790  1.0000
  C   C383      1.0  0.77990  0.56550  0.25790  1.0000
  C   C384      1.0  0.22010  0.43450  0.75790  1.0000
  H   H217      1.0  0.70110  0.59260  0.76930  1.0000
  H   H218      1.0  0.29890  0.40740  0.26930  1.0000
  H   H219      1.0  0.79890  0.59260  0.26930  1.0000
  H   H220      1.0  0.20110  0.40740  0.76930  1.0000
  C   C385      1.0  0.71480  0.55390  0.72770  1.0000
  C   C386      1.0  0.28520  0.44610  0.22770  1.0000
  C   C387      1.0  0.78520  0.55390  0.22770  1.0000
  C   C388      1.0  0.21480  0.44610  0.72770  1.0000
  H   H221      1.0  0.69290  0.57600  0.71890  1.0000
  H   H222      1.0  0.30710  0.42400  0.21890  1.0000
  H   H223      1.0  0.80710  0.57600  0.21890  1.0000
  H   H224      1.0  0.19290  0.42400  0.71890  1.0000
  C   C389      1.0  0.75750  0.55260  0.80300  1.0000
  C   C390      1.0  0.24250  0.44740  0.30300  1.0000
  C   C391      1.0  0.74250  0.55260  0.30300  1.0000
  C   C392      1.0  0.25750  0.44740  0.80300  1.0000
  C   C393      1.0  0.60620  0.48360  0.51460  1.0000
  C   C394      1.0  0.39380  0.51640  0.01460  1.0000
  C   C395      1.0  0.89380  0.48360  0.01460  1.0000
  C   C396      1.0  0.10620  0.51640  0.51460  1.0000
  C   C397      1.0  0.56450  0.49320  0.51290  1.0000
  C   C398      1.0  0.43550  0.50680  0.01290  1.0000
  C   C399      1.0  0.93550  0.49320  0.01290  1.0000
  C   C400      1.0  0.06450  0.50680  0.51290  1.0000
  C   C401      1.0  0.54690  0.50970  0.48730  1.0000
  C   C402      1.0  0.45310  0.49030  0.98730  1.0000
  C   C403      1.0  0.95310  0.50970  0.98730  1.0000
  C   C404      1.0  0.04690  0.49030  0.48730  1.0000
  H   H225      1.0  0.56070  0.51150  0.46950  1.0000
  H   H226      1.0  0.43930  0.48850  0.96950  1.0000
  H   H227      1.0  0.93930  0.51150  0.96950  1.0000
  H   H228      1.0  0.06070  0.48850  0.46950  1.0000
  C   C405      1.0  0.51000  0.52370  0.48620  1.0000
  C   C406      1.0  0.49000  0.47630  0.98620  1.0000
  C   C407      1.0  0.99000  0.52370  0.98620  1.0000
  C   C408      1.0  0.01000  0.47630  0.48620  1.0000
  H   H229      1.0  0.49880  0.53650  0.46780  1.0000
  H   H230      1.0  0.50120  0.46350  0.96780  1.0000
  H   H231      1.0  0.00120  0.53650  0.96780  1.0000
  H   H232      1.0  0.99880  0.46350  0.46780  1.0000
  C   C409      1.0  0.48890  0.52000  0.51080  1.0000
  C   C410      1.0  0.51110  0.48000  0.01080  1.0000
  C   C411      1.0  0.01110  0.52000  0.01080  1.0000
  C   C412      1.0  0.98890  0.48000  0.51080  1.0000
  C   C413      1.0  0.50640  0.49850  0.53690  1.0000
  C   C414      1.0  0.49360  0.50150  0.03690  1.0000
  C   C415      1.0  0.99360  0.49850  0.03690  1.0000
  C   C416      1.0  0.00640  0.50150  0.53690  1.0000
  H   H233      1.0  0.49260  0.49100  0.55440  1.0000
  H   H234      1.0  0.50740  0.50900  0.05440  1.0000
  H   H235      1.0  0.00740  0.49100  0.05440  1.0000
  H   H236      1.0  0.99260  0.50900  0.55440  1.0000
  C   C417      1.0  0.54460  0.48790  0.53740  1.0000
  C   C418      1.0  0.45540  0.51210  0.03740  1.0000
  C   C419      1.0  0.95540  0.48790  0.03740  1.0000
  C   C420      1.0  0.04460  0.51210  0.53740  1.0000
  H   H237      1.0  0.55650  0.47670  0.55560  1.0000
  H   H238      1.0  0.44350  0.52330  0.05560  1.0000
  H   H239      1.0  0.94350  0.47670  0.05560  1.0000
  H   H240      1.0  0.05650  0.52330  0.55560  1.0000
  C   C421      1.0  0.44940  0.53340  0.51110  1.0000
  C   C422      1.0  0.55060  0.46660  0.01110  1.0000
  C   C423      1.0  0.05060  0.53340  0.01110  1.0000
  C   C424      1.0  0.94940  0.46660  0.51110  1.0000
  C   C425      1.0  0.42670  0.51780  0.48580  1.0000
  C   C426      1.0  0.57330  0.48220  0.98580  1.0000
  C   C427      1.0  0.07330  0.51780  0.98580  1.0000
  C   C428      1.0  0.92670  0.48220  0.48580  1.0000
  H   H241      1.0  0.43790  0.50000  0.46780  1.0000
  H   H242      1.0  0.56210  0.50000  0.96780  1.0000
  H   H243      1.0  0.06210  0.50000  0.96780  1.0000
  H   H244      1.0  0.93790  0.50000  0.46780  1.0000
  C   C429      1.0  0.39010  0.52770  0.48670  1.0000
  C   C430      1.0  0.60990  0.47230  0.98670  1.0000
  C   C431      1.0  0.10990  0.52770  0.98670  1.0000
  C   C432      1.0  0.89010  0.47230  0.48670  1.0000
  H   H245      1.0  0.37610  0.51820  0.46940  1.0000
  H   H246      1.0  0.62390  0.48180  0.96940  1.0000
  H   H247      1.0  0.12390  0.51820  0.96940  1.0000
  H   H248      1.0  0.87610  0.48180  0.46940  1.0000
  C   C433      1.0  0.37250  0.55190  0.51300  1.0000
  C   C434      1.0  0.62750  0.44810  0.01300  1.0000
  C   C435      1.0  0.12750  0.55190  0.01300  1.0000
  C   C436      1.0  0.87250  0.44810  0.51300  1.0000
  C   C437      1.0  0.39220  0.56770  0.53720  1.0000
  C   C438      1.0  0.60780  0.43230  0.03720  1.0000
  C   C439      1.0  0.10780  0.56770  0.03720  1.0000
  C   C440      1.0  0.89220  0.43230  0.53720  1.0000
  H   H249      1.0  0.38030  0.58750  0.55470  1.0000
  H   H250      1.0  0.61970  0.41250  0.05470  1.0000
  H   H251      1.0  0.11970  0.58750  0.05470  1.0000
  H   H252      1.0  0.88030  0.41250  0.55470  1.0000
  C   C441      1.0  0.43130  0.55510  0.53720  1.0000
  C   C442      1.0  0.56870  0.44490  0.03720  1.0000
  C   C443      1.0  0.06870  0.55510  0.03720  1.0000
  C   C444      1.0  0.93130  0.44490  0.53720  1.0000
  H   H253      1.0  0.44470  0.56140  0.55500  1.0000
  H   H254      1.0  0.55530  0.43860  0.05500  1.0000
  H   H255      1.0  0.05530  0.56140  0.05500  1.0000
  H   H256      1.0  0.94470  0.43860  0.55500  1.0000
  C   C445      1.0  0.33180  0.55520  0.51390  1.0000
  C   C446      1.0  0.66820  0.44480  0.01390  1.0000
  C   C447      1.0  0.16820  0.55520  0.01390  1.0000
  C   C448      1.0  0.83180  0.44480  0.51390  1.0000
  C   C449      1.0  0.76590  0.70490  0.87400  1.0000
  C   C450      1.0  0.23410  0.29510  0.37400  1.0000
  C   C451      1.0  0.73410  0.70490  0.37400  1.0000
  C   C452      1.0  0.26590  0.29510  0.87400  1.0000
  C   C453      1.0  0.76540  0.80800  0.87510  1.0000
  C   C454      1.0  0.23460  0.19200  0.37510  1.0000
  C   C455      1.0  0.73460  0.80800  0.37510  1.0000
  C   C456      1.0  0.26540  0.19200  0.87510  1.0000
  C   C457      1.0  0.79640  0.85850  0.87030  1.0000
  C   C458      1.0  0.20360  0.14150  0.37030  1.0000
  C   C459      1.0  0.70360  0.85850  0.37030  1.0000
  C   C460      1.0  0.29640  0.14150  0.87030  1.0000
  H   H257      1.0  0.81900  0.82800  0.86720  1.0000
  H   H258      1.0  0.18100  0.17200  0.36720  1.0000
  H   H259      1.0  0.68100  0.82800  0.36720  1.0000
  H   H260      1.0  0.31900  0.17200  0.86720  1.0000
  C   C461      1.0  0.79530  0.95290  0.86980  1.0000
  C   C462      1.0  0.20470  0.04710  0.36980  1.0000
  C   C463      1.0  0.70470  0.95290  0.36980  1.0000
  C   C464      1.0  0.29530  0.04710  0.86980  1.0000
  H   H261      1.0  0.81710  0.98710  0.86670  1.0000
  H   H262      1.0  0.18290  0.01290  0.36670  1.0000
  H   H263      1.0  0.68290  0.98710  0.36670  1.0000
  H   H264      1.0  0.31710  0.01290  0.86670  1.0000
  C   C465      1.0  0.76160  0.99820  0.87420  1.0000
  C   C466      1.0  0.23840  0.00180  0.37420  1.0000
  C   C467      1.0  0.73840  0.99820  0.37420  1.0000
  C   C468      1.0  0.26160  0.00180  0.87420  1.0000
  C   C469      1.0  0.73030  0.94530  0.87870  1.0000
  C   C470      1.0  0.26970  0.05470  0.37870  1.0000
  C   C471      1.0  0.76970  0.94530  0.37870  1.0000
  C   C472      1.0  0.23030  0.05470  0.87870  1.0000
  H   H265      1.0  0.70730  0.97440  0.88140  1.0000
  H   H266      1.0  0.29270  0.02560  0.38140  1.0000
  H   H267      1.0  0.79270  0.97440  0.38140  1.0000
  H   H268      1.0  0.20730  0.02560  0.88140  1.0000
  C   C473      1.0  0.73250  0.85150  0.87940  1.0000
  C   C474      1.0  0.26750  0.14850  0.37940  1.0000
  C   C475      1.0  0.76750  0.85150  0.37940  1.0000
  C   C476      1.0  0.23250  0.14850  0.87940  1.0000
  H   H269      1.0  0.71100  0.81630  0.88280  1.0000
  H   H270      1.0  0.28900  0.18370  0.38280  1.0000
  H   H271      1.0  0.78900  0.81630  0.38280  1.0000
  H   H272      1.0  0.21100  0.18370  0.88280  1.0000
  C   C477      1.0  0.75970  0.10030  0.87290  1.0000
  C   C478      1.0  0.24030  0.89970  0.37290  1.0000
  C   C479      1.0  0.74030  0.10030  0.37290  1.0000
  C   C480      1.0  0.25970  0.89970  0.87290  1.0000
  C   C481      1.0  0.72710  0.14560  0.86530  1.0000
  C   C482      1.0  0.27290  0.85440  0.36530  1.0000
  C   C483      1.0  0.77290  0.14560  0.36530  1.0000
  C   C484      1.0  0.22710  0.85440  0.86530  1.0000
  H   H273      1.0  0.70570  0.11100  0.86100  1.0000
  H   H274      1.0  0.29430  0.88900  0.36100  1.0000
  H   H275      1.0  0.79430  0.11100  0.36100  1.0000
  H   H276      1.0  0.20570  0.88900  0.86100  1.0000
  C   C485      1.0  0.72580  0.24090  0.86400  1.0000
  C   C486      1.0  0.27420  0.75910  0.36400  1.0000
  C   C487      1.0  0.77420  0.24090  0.36400  1.0000
  C   C488      1.0  0.22580  0.75910  0.86400  1.0000
  H   H277      1.0  0.70360  0.27090  0.85870  1.0000
  H   H278      1.0  0.29640  0.72910  0.35870  1.0000
  H   H279      1.0  0.79640  0.27090  0.35870  1.0000
  H   H280      1.0  0.20360  0.72910  0.85870  1.0000
  C   C489      1.0  0.75670  0.29210  0.87050  1.0000
  C   C490      1.0  0.24330  0.70790  0.37050  1.0000
  C   C491      1.0  0.74330  0.29210  0.37050  1.0000
  C   C492      1.0  0.25670  0.70790  0.87050  1.0000
  C   C493      1.0  0.78910  0.24660  0.87790  1.0000
  C   C494      1.0  0.21090  0.75340  0.37790  1.0000
  C   C495      1.0  0.71090  0.24660  0.37790  1.0000
  C   C496      1.0  0.28910  0.75340  0.87790  1.0000
  H   H281      1.0  0.81050  0.28150  0.88180  1.0000
  H   H282      1.0  0.18950  0.71850  0.38180  1.0000
  H   H283      1.0  0.68950  0.28150  0.38180  1.0000
  H   H284      1.0  0.31050  0.71850  0.88180  1.0000
  C   C497      1.0  0.79090  0.15250  0.87970  1.0000
  C   C498      1.0  0.20910  0.84750  0.37970  1.0000
  C   C499      1.0  0.70910  0.15250  0.37970  1.0000
  C   C500      1.0  0.29090  0.84750  0.87970  1.0000
  H   H285      1.0  0.81300  0.12330  0.88550  1.0000
  H   H286      1.0  0.18700  0.87670  0.38550  1.0000
  H   H287      1.0  0.68700  0.12330  0.38550  1.0000
  H   H288      1.0  0.31300  0.87670  0.88550  1.0000
  C   C501      1.0  0.75510  0.39380  0.86870  1.0000
  C   C502      1.0  0.24490  0.60620  0.36870  1.0000
  C   C503      1.0  0.74490  0.39380  0.36870  1.0000
  C   C504      1.0  0.25510  0.60620  0.86870  1.0000
  C   C505      1.0  0.64720  0.55630  0.87870  1.0000
  C   C506      1.0  0.35280  0.44370  0.37870  1.0000
  C   C507      1.0  0.85280  0.55630  0.37870  1.0000
  C   C508      1.0  0.14720  0.44370  0.87870  1.0000
  C   C509      1.0  0.60650  0.55300  0.87840  1.0000
  C   C510      1.0  0.39350  0.44700  0.37840  1.0000
  C   C511      1.0  0.89350  0.55300  0.37840  1.0000
  C   C512      1.0  0.10650  0.44700  0.87840  1.0000
  C   C513      1.0  0.58770  0.51870  0.90190  1.0000
  C   C514      1.0  0.41230  0.48130  0.40190  1.0000
  C   C515      1.0  0.91230  0.51870  0.40190  1.0000
  C   C516      1.0  0.08770  0.48130  0.90190  1.0000
  H   H289      1.0  0.60050  0.50280  0.91940  1.0000
  H   H290      1.0  0.39950  0.49720  0.41940  1.0000
  H   H291      1.0  0.89950  0.50280  0.41940  1.0000
  H   H292      1.0  0.10050  0.49720  0.91940  1.0000
  C   C517      1.0  0.54980  0.50700  0.90060  1.0000
  C   C518      1.0  0.45020  0.49300  0.40060  1.0000
  C   C519      1.0  0.95020  0.50700  0.40060  1.0000
  C   C520      1.0  0.04980  0.49300  0.90060  1.0000
  H   H293      1.0  0.53720  0.47880  0.91650  1.0000
  H   H294      1.0  0.46280  0.52120  0.41650  1.0000
  H   H295      1.0  0.96280  0.47880  0.41650  1.0000
  H   H296      1.0  0.03720  0.52120  0.91650  1.0000
  C   C521      1.0  0.52980  0.53710  0.87540  1.0000
  C   C522      1.0  0.47020  0.46290  0.37540  1.0000
  C   C523      1.0  0.97020  0.53710  0.37540  1.0000
  C   C524      1.0  0.02980  0.46290  0.87540  1.0000
  C   C525      1.0  0.54910  0.57040  0.85190  1.0000
  C   C526      1.0  0.45090  0.42960  0.35190  1.0000
  C   C527      1.0  0.95090  0.57040  0.35190  1.0000
  C   C528      1.0  0.04910  0.42960  0.85190  1.0000
  H   H297      1.0  0.53640  0.59130  0.83480  1.0000
  H   H298      1.0  0.46360  0.40870  0.33480  1.0000
  H   H299      1.0  0.96360  0.59130  0.33480  1.0000
  H   H300      1.0  0.03640  0.40870  0.83480  1.0000
  C   C529      1.0  0.58720  0.57380  0.85280  1.0000
  C   C530      1.0  0.41280  0.42620  0.35280  1.0000
  C   C531      1.0  0.91280  0.57380  0.35280  1.0000
  C   C532      1.0  0.08720  0.42620  0.85280  1.0000
  H   H301      1.0  0.60030  0.59080  0.83560  1.0000
  H   H302      1.0  0.39970  0.40920  0.33560  1.0000
  H   H303      1.0  0.89970  0.59080  0.33560  1.0000
  H   H304      1.0  0.10030  0.40920  0.83560  1.0000
  C   C533      1.0  0.48940  0.52370  0.87420  1.0000
  C   C534      1.0  0.51060  0.47630  0.37420  1.0000
  C   C535      1.0  0.01060  0.52370  0.37420  1.0000
  C   C536      1.0  0.98940  0.47630  0.87420  1.0000
  C   C537      1.0  0.46870  0.52120  0.89950  1.0000
  C   C538      1.0  0.53130  0.47880  0.39950  1.0000
  C   C539      1.0  0.03130  0.52120  0.39950  1.0000
  C   C540      1.0  0.96870  0.47880  0.89950  1.0000
  H   H305      1.0  0.48020  0.52750  0.91820  1.0000
  H   H306      1.0  0.51980  0.47250  0.41820  1.0000
  H   H307      1.0  0.01980  0.52750  0.41820  1.0000
  H   H308      1.0  0.98020  0.47250  0.91820  1.0000
  C   C541      1.0  0.43060  0.50950  0.89790  1.0000
  C   C542      1.0  0.56940  0.49050  0.39790  1.0000
  C   C543      1.0  0.06940  0.50950  0.39790  1.0000
  C   C544      1.0  0.93060  0.49050  0.89790  1.0000
  H   H309      1.0  0.41650  0.51130  0.91550  1.0000
  H   H310      1.0  0.58350  0.48870  0.41550  1.0000
  H   H311      1.0  0.08350  0.51130  0.41550  1.0000
  H   H312      1.0  0.91650  0.48870  0.91550  1.0000
  C   C545      1.0  0.41370  0.49580  0.87190  1.0000
  C   C546      1.0  0.58630  0.50420  0.37190  1.0000
  C   C547      1.0  0.08630  0.49580  0.37190  1.0000
  C   C548      1.0  0.91370  0.50420  0.87190  1.0000
  C   C549      1.0  0.43460  0.49650  0.84580  1.0000
  C   C550      1.0  0.56540  0.50350  0.34580  1.0000
  C   C551      1.0  0.06540  0.49650  0.34580  1.0000
  C   C552      1.0  0.93460  0.50350  0.84580  1.0000
  H   H313      1.0  0.42330  0.48640  0.82720  1.0000
  H   H314      1.0  0.57670  0.51360  0.32720  1.0000
  H   H315      1.0  0.07670  0.48640  0.32720  1.0000
  H   H316      1.0  0.92330  0.51360  0.82720  1.0000
  C   C553      1.0  0.47240  0.51240  0.84770  1.0000
  C   C554      1.0  0.52760  0.48760  0.34770  1.0000
  C   C555      1.0  0.02760  0.51240  0.34770  1.0000
  C   C556      1.0  0.97240  0.48760  0.84770  1.0000
  H   H317      1.0  0.48660  0.51540  0.83020  1.0000
  H   H318      1.0  0.51340  0.48460  0.33020  1.0000
  H   H319      1.0  0.01340  0.51540  0.33020  1.0000
  H   H320      1.0  0.98660  0.48460  0.83020  1.0000
  C   C557      1.0  0.37380  0.47920  0.86970  1.0000
  C   C558      1.0  0.62620  0.52080  0.36970  1.0000
  C   C559      1.0  0.12620  0.47920  0.36970  1.0000
  C   C560      1.0  0.87380  0.52080  0.86970  1.0000
