data_image0
_chemical_formula_structural       Mo28P8O108C4H8
_chemical_formula_sum              "Mo28 P8 O108 C4 H8"
_cell_length_a       11.8055
_cell_length_b       24.057
_cell_length_c       22.381
_cell_angle_alpha    90
_cell_angle_beta     99.901
_cell_angle_gamma    90

_space_group_name_H-M_alt    "P 1"
_space_group_IT_number       1

loop_
  _space_group_symop_operation_xyz
  'x, y, z'

loop_
  _atom_site_type_symbol
  _atom_site_label
  _atom_site_symmetry_multiplicity
  _atom_site_fract_x
  _atom_site_fract_y
  _atom_site_fract_z
  _atom_site_occupancy
  Mo  Mo1       1.0  0.82086  0.46254  0.05101  1.0000
  Mo  Mo2       1.0  0.82086  0.53746  0.55101  1.0000
  Mo  Mo3       1.0  0.32086  0.96254  0.05101  1.0000
  Mo  Mo4       1.0  0.32086  0.03746  0.55101  1.0000
  Mo  Mo5       1.0  0.68350  0.33268  0.03453  1.0000
  Mo  Mo6       1.0  0.68350  0.66732  0.53453  1.0000
  Mo  Mo7       1.0  0.18350  0.83268  0.03453  1.0000
  Mo  Mo8       1.0  0.18350  0.16732  0.53453  1.0000
  Mo  Mo9       1.0  0.86666  0.24217  0.09100  1.0000
  Mo  Mo10      1.0  0.86666  0.75783  0.59100  1.0000
  Mo  Mo11      1.0  0.36666  0.74217  0.09100  1.0000
  Mo  Mo12      1.0  0.36666  0.25783  0.59100  1.0000
  Mo  Mo13      1.0  0.00355  0.35694  0.06958  1.0000
  Mo  Mo14      1.0  0.00355  0.64306  0.56958  1.0000
  Mo  Mo15      1.0  0.50355  0.85694  0.06958  1.0000
  Mo  Mo16      1.0  0.50355  0.14306  0.56958  1.0000
  Mo  Mo17      1.0  0.01860  0.27040  0.22009  1.0000
  Mo  Mo18      1.0  0.01860  0.72960  0.72009  1.0000
  Mo  Mo19      1.0  0.51860  0.77040  0.22009  1.0000
  Mo  Mo20      1.0  0.51860  0.22960  0.72009  1.0000
  Mo  Mo21      1.0  0.14801  0.41315  0.23260  1.0000
  Mo  Mo22      1.0  0.14801  0.58685  0.73260  1.0000
  Mo  Mo23      1.0  0.64801  0.91315  0.23260  1.0000
  Mo  Mo24      1.0  0.64801  0.08685  0.73260  1.0000
  Mo  Mo25      1.0  0.98197  0.52338  0.20467  1.0000
  Mo  Mo26      1.0  0.98197  0.47662  0.70467  1.0000
  Mo  Mo27      1.0  0.48197  0.02338  0.20467  1.0000
  Mo  Mo28      1.0  0.48197  0.97662  0.70467  1.0000
  P   P1        1.0  0.85803  0.38896  0.18725  1.0000
  P   P2        1.0  0.85803  0.61104  0.68725  1.0000
  P   P3        1.0  0.35803  0.88896  0.18725  1.0000
  P   P4        1.0  0.35803  0.11104  0.68725  1.0000
  P   P5        1.0  0.70245  0.48818  0.16864  1.0000
  P   P6        1.0  0.70245  0.51182  0.66864  1.0000
  P   P7        1.0  0.20245  0.98818  0.16864  1.0000
  P   P8        1.0  0.20245  0.01182  0.66864  1.0000
  O   O1        1.0  0.85270  0.38860  0.11780  1.0000
  O   O2        1.0  0.85270  0.61140  0.61780  1.0000
  O   O3        1.0  0.35270  0.88860  0.11780  1.0000
  O   O4        1.0  0.35270  0.11140  0.61780  1.0000
  O   O5        1.0  0.87090  0.33000  0.21170  1.0000
  O   O6        1.0  0.87090  0.67000  0.71170  1.0000
  O   O7        1.0  0.37090  0.83000  0.21170  1.0000
  O   O8        1.0  0.37090  0.17000  0.71170  1.0000
  O   O9        1.0  0.95430  0.42810  0.21680  1.0000
  O   O10       1.0  0.95430  0.57190  0.71680  1.0000
  O   O11       1.0  0.45430  0.92810  0.21680  1.0000
  O   O12       1.0  0.45430  0.07190  0.71680  1.0000
  O   O13       1.0  0.80950  0.52280  0.19530  1.0000
  O   O14       1.0  0.80950  0.47720  0.69530  1.0000
  O   O15       1.0  0.30950  0.02280  0.19530  1.0000
  O   O16       1.0  0.30950  0.97720  0.69530  1.0000
  O   O17       1.0  0.59510  0.51310  0.18260  1.0000
  O   O18       1.0  0.59510  0.48690  0.68260  1.0000
  O   O19       1.0  0.09510  0.01310  0.18260  1.0000
  O   O20       1.0  0.09510  0.98690  0.68260  1.0000
  O   O21       1.0  0.69820  0.47980  0.09980  1.0000
  O   O22       1.0  0.69820  0.52020  0.59980  1.0000
  O   O23       1.0  0.19820  0.97980  0.09980  1.0000
  O   O24       1.0  0.19820  0.02020  0.59980  1.0000
  O   O25       1.0  0.92110  0.49610  0.10620  1.0000
  O   O26       1.0  0.92110  0.50390  0.60620  1.0000
  O   O27       1.0  0.42110  0.99610  0.10620  1.0000
  O   O28       1.0  0.42110  0.00390  0.60620  1.0000
  O   O29       1.0  0.93040  0.41680  0.01990  1.0000
  O   O30       1.0  0.93040  0.58320  0.51990  1.0000
  O   O31       1.0  0.43040  0.91680  0.01990  1.0000
  O   O32       1.0  0.43040  0.08320  0.51990  1.0000
  O   O33       1.0  0.78580  0.51020  0.99510  1.0000
  O   O34       1.0  0.78580  0.48980  0.49510  1.0000
  O   O35       1.0  0.28580  0.01020  0.99510  1.0000
  O   O36       1.0  0.28580  0.98980  0.49510  1.0000
  O   O37       1.0  0.70550  0.40450  0.01230  1.0000
  O   O38       1.0  0.70550  0.59550  0.51230  1.0000
  O   O39       1.0  0.20550  0.90450  0.01230  1.0000
  O   O40       1.0  0.20550  0.09550  0.51230  1.0000
  O   O41       1.0  0.60980  0.33800  0.09310  1.0000
  O   O42       1.0  0.60980  0.66200  0.59310  1.0000
  O   O43       1.0  0.10980  0.83800  0.09310  1.0000
  O   O44       1.0  0.10980  0.16200  0.59310  1.0000
  O   O45       1.0  0.59050  0.30590  0.97480  1.0000
  O   O46       1.0  0.59050  0.69410  0.47480  1.0000
  O   O47       1.0  0.09050  0.80590  0.97480  1.0000
  O   O48       1.0  0.09050  0.19410  0.47480  1.0000
  O   O49       1.0  0.71570  0.24480  0.07300  1.0000
  O   O50       1.0  0.71570  0.75520  0.57300  1.0000
  O   O51       1.0  0.21570  0.74480  0.07300  1.0000
  O   O52       1.0  0.21570  0.25520  0.57300  1.0000
  O   O53       1.0  0.84800  0.30970  0.03590  1.0000
  O   O54       1.0  0.84800  0.69030  0.53590  1.0000
  O   O55       1.0  0.34800  0.80970  0.03590  1.0000
  O   O56       1.0  0.34800  0.19030  0.53590  1.0000
  O   O57       1.0  0.91230  0.18890  0.05160  1.0000
  O   O58       1.0  0.91230  0.81110  0.55160  1.0000
  O   O59       1.0  0.41230  0.68890  0.05160  1.0000
  O   O60       1.0  0.41230  0.31110  0.55160  1.0000
  O   O61       1.0  0.89400  0.22360  0.17110  1.0000
  O   O62       1.0  0.89400  0.77640  0.67110  1.0000
  O   O63       1.0  0.39400  0.72360  0.17110  1.0000
  O   O64       1.0  0.39400  0.27640  0.67110  1.0000
  O   O65       1.0  0.99920  0.29220  0.12240  1.0000
  O   O66       1.0  0.99920  0.70780  0.62240  1.0000
  O   O67       1.0  0.49920  0.79220  0.12240  1.0000
  O   O68       1.0  0.49920  0.20780  0.62240  1.0000
  O   O69       1.0  0.08620  0.33320  0.02030  1.0000
  O   O70       1.0  0.08620  0.66680  0.52030  1.0000
  O   O71       1.0  0.58620  0.83320  0.02030  1.0000
  O   O72       1.0  0.58620  0.16680  0.52030  1.0000
  O   O73       1.0  0.09610  0.39270  0.12560  1.0000
  O   O74       1.0  0.09610  0.60730  0.62560  1.0000
  O   O75       1.0  0.59610  0.89270  0.12560  1.0000
  O   O76       1.0  0.59610  0.10730  0.62560  1.0000
  O   O77       1.0  0.12870  0.22720  0.21110  1.0000
  O   O78       1.0  0.12870  0.77280  0.71110  1.0000
  O   O79       1.0  0.62870  0.72720  0.21110  1.0000
  O   O80       1.0  0.62870  0.27280  0.71110  1.0000
  O   O81       1.0  0.99290  0.25350  0.29040  1.0000
  O   O82       1.0  0.99290  0.74650  0.79040  1.0000
  O   O83       1.0  0.49290  0.75350  0.29040  1.0000
  O   O84       1.0  0.49290  0.24650  0.79040  1.0000
  O   O85       1.0  0.10460  0.33770  0.23370  1.0000
  O   O86       1.0  0.10460  0.66230  0.73370  1.0000
  O   O87       1.0  0.60460  0.83770  0.23370  1.0000
  O   O88       1.0  0.60460  0.16230  0.73370  1.0000
  O   O89       1.0  0.28780  0.40730  0.22420  1.0000
  O   O90       1.0  0.28780  0.59270  0.72420  1.0000
  O   O91       1.0  0.78780  0.90730  0.22420  1.0000
  O   O92       1.0  0.78780  0.09270  0.72420  1.0000
  O   O93       1.0  0.15900  0.42880  0.30700  1.0000
  O   O94       1.0  0.15900  0.57120  0.80700  1.0000
  O   O95       1.0  0.65900  0.92880  0.30700  1.0000
  O   O96       1.0  0.65900  0.07120  0.80700  1.0000
  O   O97       1.0  0.11930  0.48750  0.19730  1.0000
  O   O98       1.0  0.11930  0.51250  0.69730  1.0000
  O   O99       1.0  0.61930  0.98750  0.19730  1.0000
  O   O100      1.0  0.61930  0.01250  0.69730  1.0000
  O   O101      1.0  0.99890  0.53580  0.28070  1.0000
  O   O102      1.0  0.99890  0.46420  0.78070  1.0000
  O   O103      1.0  0.49890  0.03580  0.28070  1.0000
  O   O104      1.0  0.49890  0.96420  0.78070  1.0000
  O   O105      1.0  0.00320  0.58750  0.17560  1.0000
  O   O106      1.0  0.00320  0.41250  0.67560  1.0000
  O   O107      1.0  0.50320  0.08750  0.17560  1.0000
  O   O108      1.0  0.50320  0.91250  0.67560  1.0000
  C   C1        1.0  0.72860  0.41890  0.20130  1.0000
  C   C2        1.0  0.72860  0.58110  0.70130  1.0000
  C   C3        1.0  0.22860  0.91890  0.20130  1.0000
  C   C4        1.0  0.22860  0.08110  0.70130  1.0000
  H   H1        1.0  0.73100  0.42110  0.24560  1.0000
  H   H2        1.0  0.73100  0.57890  0.74560  1.0000
  H   H3        1.0  0.23100  0.92110  0.24560  1.0000
  H   H4        1.0  0.23100  0.07890  0.74560  1.0000
  H   H5        1.0  0.66370  0.39430  0.18430  1.0000
  H   H6        1.0  0.66370  0.60570  0.68430  1.0000
  H   H7        1.0  0.16370  0.89430  0.18430  1.0000
  H   H8        1.0  0.16370  0.10570  0.68430  1.0000
