data_image0
_chemical_formula_structural       C8H8C16H8C8H8C24N8O32Fe4
_chemical_formula_sum              "C56 H24 N8 O32 Fe4"
_cell_length_a       15.0657
_cell_length_b       8.3054
_cell_length_c       17.0198
_cell_angle_alpha    90
_cell_angle_beta     100.851
_cell_angle_gamma    90

_space_group_name_H-M_alt    "P 1"
_space_group_IT_number       1

loop_
  _space_group_symop_operation_xyz
  'x, y, z'

loop_
  _atom_site_type_symbol
  _atom_site_label
  _atom_site_symmetry_multiplicity
  _atom_site_fract_x
  _atom_site_fract_y
  _atom_site_fract_z
  _atom_site_occupancy
  C   C1        1.0  0.82820  0.29170  0.26336  1.0000
  C   C2        1.0  0.82820  0.70830  0.76336  1.0000
  C   C3        1.0  0.32820  0.79170  0.26336  1.0000
  C   C4        1.0  0.32820  0.20830  0.76336  1.0000
  C   C5        1.0  0.17180  0.70830  0.73664  1.0000
  C   C6        1.0  0.17180  0.29170  0.23664  1.0000
  C   C7        1.0  0.67180  0.20830  0.73664  1.0000
  C   C8        1.0  0.67180  0.79170  0.23664  1.0000
  H   H1        1.0  0.84510  0.27980  0.31850  1.0000
  H   H2        1.0  0.84510  0.72020  0.81850  1.0000
  H   H3        1.0  0.34510  0.77980  0.31850  1.0000
  H   H4        1.0  0.34510  0.22020  0.81850  1.0000
  H   H5        1.0  0.15490  0.72020  0.68150  1.0000
  H   H6        1.0  0.15490  0.27980  0.18150  1.0000
  H   H7        1.0  0.65490  0.22020  0.68150  1.0000
  H   H8        1.0  0.65490  0.77980  0.18150  1.0000
  C   C9        1.0  0.74400  0.35620  0.23300  1.0000
  C   C10       1.0  0.74400  0.64380  0.73300  1.0000
  C   C11       1.0  0.24400  0.85620  0.23300  1.0000
  C   C12       1.0  0.24400  0.14380  0.73300  1.0000
  C   C13       1.0  0.25600  0.64380  0.76700  1.0000
  C   C14       1.0  0.25600  0.35620  0.26700  1.0000
  C   C15       1.0  0.75600  0.14380  0.76700  1.0000
  C   C16       1.0  0.75600  0.85620  0.26700  1.0000
  C   C17       1.0  0.72190  0.38250  0.15170  1.0000
  C   C18       1.0  0.72190  0.61750  0.65170  1.0000
  C   C19       1.0  0.22190  0.88250  0.15170  1.0000
  C   C20       1.0  0.22190  0.11750  0.65170  1.0000
  C   C21       1.0  0.27810  0.61750  0.84830  1.0000
  C   C22       1.0  0.27810  0.38250  0.34830  1.0000
  C   C23       1.0  0.77810  0.11750  0.84830  1.0000
  C   C24       1.0  0.77810  0.88250  0.34830  1.0000
  H   H9        1.0  0.66660  0.42830  0.12940  1.0000
  H   H10       1.0  0.66660  0.57170  0.62940  1.0000
  H   H11       1.0  0.16660  0.92830  0.12940  1.0000
  H   H12       1.0  0.16660  0.07170  0.62940  1.0000
  H   H13       1.0  0.33340  0.57170  0.87060  1.0000
  H   H14       1.0  0.33340  0.42830  0.37060  1.0000
  H   H15       1.0  0.83340  0.07170  0.87060  1.0000
  H   H16       1.0  0.83340  0.92830  0.37060  1.0000
  C   C25       1.0  0.78230  0.34060  0.10340  1.0000
  C   C26       1.0  0.78230  0.65940  0.60340  1.0000
  C   C27       1.0  0.28230  0.84060  0.10340  1.0000
  C   C28       1.0  0.28230  0.15940  0.60340  1.0000
  C   C29       1.0  0.21770  0.65940  0.89660  1.0000
  C   C30       1.0  0.21770  0.34060  0.39660  1.0000
  C   C31       1.0  0.71770  0.15940  0.89660  1.0000
  C   C32       1.0  0.71770  0.84060  0.39660  1.0000
  H   H17       1.0  0.76920  0.36090  0.04870  1.0000
  H   H18       1.0  0.76920  0.63910  0.54870  1.0000
  H   H19       1.0  0.26920  0.86090  0.04870  1.0000
  H   H20       1.0  0.26920  0.13910  0.54870  1.0000
  H   H21       1.0  0.23080  0.63910  0.95130  1.0000
  H   H22       1.0  0.23080  0.36090  0.45130  1.0000
  H   H23       1.0  0.73080  0.13910  0.95130  1.0000
  H   H24       1.0  0.73080  0.86090  0.45130  1.0000
  C   C33       1.0  0.86230  0.26810  0.13803  1.0000
  C   C34       1.0  0.86230  0.73190  0.63803  1.0000
  C   C35       1.0  0.36230  0.76810  0.13803  1.0000
  C   C36       1.0  0.36230  0.23190  0.63803  1.0000
  C   C37       1.0  0.13770  0.73190  0.86197  1.0000
  C   C38       1.0  0.13770  0.26810  0.36197  1.0000
  C   C39       1.0  0.63770  0.23190  0.86197  1.0000
  C   C40       1.0  0.63770  0.76810  0.36197  1.0000
  C   C41       1.0  0.92820  0.20040  0.08889  1.0000
  C   C42       1.0  0.92820  0.79960  0.58889  1.0000
  C   C43       1.0  0.42820  0.70040  0.08889  1.0000
  C   C44       1.0  0.42820  0.29960  0.58889  1.0000
  C   C45       1.0  0.07180  0.79960  0.91111  1.0000
  C   C46       1.0  0.07180  0.20040  0.41111  1.0000
  C   C47       1.0  0.57180  0.29960  0.91111  1.0000
  C   C48       1.0  0.57180  0.70040  0.41111  1.0000
  C   C49       1.0  0.67810  0.38770  0.28860  1.0000
  C   C50       1.0  0.67810  0.61230  0.78860  1.0000
  C   C51       1.0  0.17810  0.88770  0.28860  1.0000
  C   C52       1.0  0.17810  0.11230  0.78860  1.0000
  C   C53       1.0  0.32190  0.61230  0.71140  1.0000
  C   C54       1.0  0.32190  0.38770  0.21140  1.0000
  C   C55       1.0  0.82190  0.11230  0.71140  1.0000
  C   C56       1.0  0.82190  0.88770  0.21140  1.0000
  N   N1        1.0  0.88653  0.24570  0.21711  1.0000
  N   N2        1.0  0.88653  0.75430  0.71711  1.0000
  N   N3        1.0  0.38653  0.74570  0.21711  1.0000
  N   N4        1.0  0.38653  0.25430  0.71711  1.0000
  N   N5        1.0  0.11347  0.75430  0.78289  1.0000
  N   N6        1.0  0.11347  0.24570  0.28289  1.0000
  N   N7        1.0  0.61347  0.25430  0.78289  1.0000
  N   N8        1.0  0.61347  0.74570  0.28289  1.0000
  O   O1        1.0  0.99316  0.11790  0.12693  1.0000
  O   O2        1.0  0.99316  0.88210  0.62693  1.0000
  O   O3        1.0  0.49316  0.61790  0.12693  1.0000
  O   O4        1.0  0.49316  0.38210  0.62693  1.0000
  O   O5        1.0  0.00684  0.88210  0.87307  1.0000
  O   O6        1.0  0.00684  0.11790  0.37307  1.0000
  O   O7        1.0  0.50684  0.38210  0.87307  1.0000
  O   O8        1.0  0.50684  0.61790  0.37307  1.0000
  O   O9        1.0  0.91385  0.22790  0.01650  1.0000
  O   O10       1.0  0.91385  0.77210  0.51650  1.0000
  O   O11       1.0  0.41385  0.72790  0.01650  1.0000
  O   O12       1.0  0.41385  0.27210  0.51650  1.0000
  O   O13       1.0  0.08615  0.77210  0.98350  1.0000
  O   O14       1.0  0.08615  0.22790  0.48350  1.0000
  O   O15       1.0  0.58615  0.27210  0.98350  1.0000
  O   O16       1.0  0.58615  0.72790  0.48350  1.0000
  O   O17       1.0  0.70640  0.39400  0.36091  1.0000
  O   O18       1.0  0.70640  0.60600  0.86091  1.0000
  O   O19       1.0  0.20640  0.89400  0.36091  1.0000
  O   O20       1.0  0.20640  0.10600  0.86091  1.0000
  O   O21       1.0  0.29360  0.60600  0.63909  1.0000
  O   O22       1.0  0.29360  0.39400  0.13909  1.0000
  O   O23       1.0  0.79360  0.10600  0.63909  1.0000
  O   O24       1.0  0.79360  0.89400  0.13909  1.0000
  O   O25       1.0  0.59636  0.40120  0.25438  1.0000
  O   O26       1.0  0.59636  0.59880  0.75438  1.0000
  O   O27       1.0  0.09636  0.90120  0.25438  1.0000
  O   O28       1.0  0.09636  0.09880  0.75438  1.0000
  O   O29       1.0  0.40364  0.59880  0.74562  1.0000
  O   O30       1.0  0.40364  0.40120  0.24562  1.0000
  O   O31       1.0  0.90364  0.09880  0.74562  1.0000
  O   O32       1.0  0.90364  0.90120  0.24562  1.0000
  Fe  Fe1       1.0  0.00000  0.08264  0.25000  1.0000
  Fe  Fe2       1.0  0.00000  0.91736  0.75000  1.0000
  Fe  Fe3       1.0  0.50000  0.58264  0.25000  1.0000
  Fe  Fe4       1.0  0.50000  0.41736  0.75000  1.0000
