data_image0
_chemical_formula_structural       C8H8C16H8C8H8C24N8O32Fe4
_chemical_formula_sum              "C56 H24 N8 O32 Fe4"
_cell_length_a       8.8956
_cell_length_b       8.8956
_cell_length_c       21.905
_cell_angle_alpha    90
_cell_angle_beta     90
_cell_angle_gamma    90

_space_group_name_H-M_alt    "P 1"
_space_group_IT_number       1

loop_
  _space_group_symop_operation_xyz
  'x, y, z'

loop_
  _atom_site_type_symbol
  _atom_site_label
  _atom_site_symmetry_multiplicity
  _atom_site_fract_x
  _atom_site_fract_y
  _atom_site_fract_z
  _atom_site_occupancy
  C   C1        1.0  0.24130  0.14520  0.09280  1.0000
  C   C2        1.0  0.75870  0.85480  0.59280  1.0000
  C   C3        1.0  0.35480  0.74130  0.84280  1.0000
  C   C4        1.0  0.64520  0.25870  0.34280  1.0000
  C   C5        1.0  0.25870  0.64520  0.65720  1.0000
  C   C6        1.0  0.74130  0.35480  0.15720  1.0000
  C   C7        1.0  0.14520  0.24130  0.90720  1.0000
  C   C8        1.0  0.85480  0.75870  0.40720  1.0000
  H   H1        1.0  0.20120  0.22660  0.11390  1.0000
  H   H2        1.0  0.79880  0.77340  0.61390  1.0000
  H   H3        1.0  0.27340  0.70120  0.86390  1.0000
  H   H4        1.0  0.72660  0.29880  0.36390  1.0000
  H   H5        1.0  0.29880  0.72660  0.63610  1.0000
  H   H6        1.0  0.70120  0.27340  0.13610  1.0000
  H   H7        1.0  0.22660  0.20120  0.88610  1.0000
  H   H8        1.0  0.77340  0.79880  0.38610  1.0000
  C   C9        1.0  0.20490  0.00150  0.11180  1.0000
  C   C10       1.0  0.79510  0.99850  0.61180  1.0000
  C   C11       1.0  0.49850  0.70490  0.86180  1.0000
  C   C12       1.0  0.50150  0.29510  0.36180  1.0000
  C   C13       1.0  0.29510  0.50150  0.63820  1.0000
  C   C14       1.0  0.70490  0.49850  0.13820  1.0000
  C   C15       1.0  0.00150  0.20490  0.88820  1.0000
  C   C16       1.0  0.99850  0.79510  0.38820  1.0000
  C   C17       1.0  0.26390  0.88180  0.07920  1.0000
  C   C18       1.0  0.73610  0.11820  0.57920  1.0000
  C   C19       1.0  0.61820  0.76390  0.82920  1.0000
  C   C20       1.0  0.38180  0.23610  0.32920  1.0000
  C   C21       1.0  0.23610  0.38180  0.67080  1.0000
  C   C22       1.0  0.76390  0.61820  0.17080  1.0000
  C   C23       1.0  0.88180  0.26390  0.92080  1.0000
  C   C24       1.0  0.11820  0.73610  0.42080  1.0000
  H   H9        1.0  0.23990  0.78380  0.09030  1.0000
  H   H10       1.0  0.76010  0.21620  0.59030  1.0000
  H   H11       1.0  0.71620  0.73990  0.84030  1.0000
  H   H12       1.0  0.28380  0.26010  0.34030  1.0000
  H   H13       1.0  0.26010  0.28380  0.65970  1.0000
  H   H14       1.0  0.73990  0.71620  0.15970  1.0000
  H   H15       1.0  0.78380  0.23990  0.90970  1.0000
  H   H16       1.0  0.21620  0.76010  0.40970  1.0000
  C   C25       1.0  0.35870  0.90770  0.03010  1.0000
  C   C26       1.0  0.64130  0.09230  0.53010  1.0000
  C   C27       1.0  0.59230  0.85870  0.78010  1.0000
  C   C28       1.0  0.40770  0.14130  0.28010  1.0000
  C   C29       1.0  0.14130  0.40770  0.71990  1.0000
  C   C30       1.0  0.85870  0.59230  0.21990  1.0000
  C   C31       1.0  0.90770  0.35870  0.96990  1.0000
  C   C32       1.0  0.09230  0.64130  0.46990  1.0000
  H   H17       1.0  0.39980  0.82840  0.00800  1.0000
  H   H18       1.0  0.60020  0.17160  0.50800  1.0000
  H   H19       1.0  0.67160  0.89980  0.75800  1.0000
  H   H20       1.0  0.32840  0.10020  0.25800  1.0000
  H   H21       1.0  0.10020  0.32840  0.74200  1.0000
  H   H22       1.0  0.89980  0.67160  0.24200  1.0000
  H   H23       1.0  0.82840  0.39980  0.99200  1.0000
  H   H24       1.0  0.17160  0.60020  0.49200  1.0000
  C   C33       1.0  0.38960  0.05290  0.01520  1.0000
  C   C34       1.0  0.61040  0.94710  0.51520  1.0000
  C   C35       1.0  0.44710  0.88960  0.76520  1.0000
  C   C36       1.0  0.55290  0.11040  0.26520  1.0000
  C   C37       1.0  0.11040  0.55290  0.73480  1.0000
  C   C38       1.0  0.88960  0.44710  0.23480  1.0000
  C   C39       1.0  0.05290  0.38960  0.98480  1.0000
  C   C40       1.0  0.94710  0.61040  0.48480  1.0000
  C   C41       1.0  0.49330  0.09590  0.96300  1.0000
  C   C42       1.0  0.50670  0.90410  0.46300  1.0000
  C   C43       1.0  0.40410  0.99330  0.71300  1.0000
  C   C44       1.0  0.59590  0.00670  0.21300  1.0000
  C   C45       1.0  0.00670  0.59590  0.78700  1.0000
  C   C46       1.0  0.99330  0.40410  0.28700  1.0000
  C   C47       1.0  0.09590  0.49330  0.03700  1.0000
  C   C48       1.0  0.90410  0.50670  0.53700  1.0000
  C   C49       1.0  0.10320  0.97590  0.16550  1.0000
  C   C50       1.0  0.89680  0.02410  0.66550  1.0000
  C   C51       1.0  0.52410  0.60320  0.91550  1.0000
  C   C52       1.0  0.47590  0.39680  0.41550  1.0000
  C   C53       1.0  0.39680  0.47590  0.58450  1.0000
  C   C54       1.0  0.60320  0.52410  0.08450  1.0000
  C   C55       1.0  0.97590  0.10320  0.83450  1.0000
  C   C56       1.0  0.02410  0.89680  0.33450  1.0000
  N   N1        1.0  0.33260  0.17190  0.04500  1.0000
  N   N2        1.0  0.66740  0.82810  0.54500  1.0000
  N   N3        1.0  0.32810  0.83260  0.79500  1.0000
  N   N4        1.0  0.67190  0.16740  0.29500  1.0000
  N   N5        1.0  0.16740  0.67190  0.70500  1.0000
  N   N6        1.0  0.83260  0.32810  0.20500  1.0000
  N   N7        1.0  0.17190  0.33260  0.95500  1.0000
  N   N8        1.0  0.82810  0.66740  0.45500  1.0000
  O   O1        1.0  0.49150  0.23750  0.94790  1.0000
  O   O2        1.0  0.50850  0.76250  0.44790  1.0000
  O   O3        1.0  0.26250  0.99150  0.69790  1.0000
  O   O4        1.0  0.73750  0.00850  0.19790  1.0000
  O   O5        1.0  0.00850  0.73750  0.80210  1.0000
  O   O6        1.0  0.99150  0.26250  0.30210  1.0000
  O   O7        1.0  0.23750  0.49150  0.05210  1.0000
  O   O8        1.0  0.76250  0.50850  0.55210  1.0000
  O   O9        1.0  0.57160  0.99980  0.93790  1.0000
  O   O10       1.0  0.42840  0.00020  0.43790  1.0000
  O   O11       1.0  0.50020  0.07160  0.68790  1.0000
  O   O12       1.0  0.49980  0.92840  0.18790  1.0000
  O   O13       1.0  0.92840  0.49980  0.81210  1.0000
  O   O14       1.0  0.07160  0.50020  0.31210  1.0000
  O   O15       1.0  0.99980  0.57160  0.06210  1.0000
  O   O16       1.0  0.00020  0.42840  0.56210  1.0000
  O   O17       1.0  0.04690  0.09400  0.18960  1.0000
  O   O18       1.0  0.95310  0.90600  0.68960  1.0000
  O   O19       1.0  0.40600  0.54690  0.93960  1.0000
  O   O20       1.0  0.59400  0.45310  0.43960  1.0000
  O   O21       1.0  0.45310  0.59400  0.56040  1.0000
  O   O22       1.0  0.54690  0.40600  0.06040  1.0000
  O   O23       1.0  0.09400  0.04690  0.81040  1.0000
  O   O24       1.0  0.90600  0.95310  0.31040  1.0000
  O   O25       1.0  0.07970  0.84680  0.18270  1.0000
  O   O26       1.0  0.92030  0.15320  0.68270  1.0000
  O   O27       1.0  0.65320  0.57970  0.93270  1.0000
  O   O28       1.0  0.34680  0.42030  0.43270  1.0000
  O   O29       1.0  0.42030  0.34680  0.56730  1.0000
  O   O30       1.0  0.57970  0.65320  0.06730  1.0000
  O   O31       1.0  0.84680  0.07970  0.81730  1.0000
  O   O32       1.0  0.15320  0.92030  0.31730  1.0000
  Fe  Fe1       1.0  0.38648  0.38648  0.00000  1.0000
  Fe  Fe2       1.0  0.61352  0.61352  0.50000  1.0000
  Fe  Fe3       1.0  0.11352  0.88648  0.75000  1.0000
  Fe  Fe4       1.0  0.88648  0.11352  0.25000  1.0000
