data_image0
_chemical_formula_structural       Ni4O24C12H12
_chemical_formula_sum              "Ni4 O24 C12 H12"
_cell_length_a       8.1044
_cell_length_b       8.1044
_cell_length_c       14.5257
_cell_angle_alpha    90
_cell_angle_beta     90
_cell_angle_gamma    120

_space_group_name_H-M_alt    "P 1"
_space_group_IT_number       1

loop_
  _space_group_symop_operation_xyz
  'x, y, z'

loop_
  _atom_site_type_symbol
  _atom_site_label
  _atom_site_symmetry_multiplicity
  _atom_site_fract_x
  _atom_site_fract_y
  _atom_site_fract_z
  _atom_site_occupancy
  Ni  Ni1       1.0  0.00000  0.00000  0.00000  1.0000
  Ni  Ni2       1.0  0.00000  0.00000  0.50000  1.0000
  Ni  Ni3       1.0  0.66670  0.33330  0.75000  1.0000
  Ni  Ni4       1.0  0.33330  0.66670  0.25000  1.0000
  O   O1        1.0  0.00920  0.21610  0.91994  1.0000
  O   O2        1.0  0.78390  0.79310  0.91994  1.0000
  O   O3        1.0  0.20690  0.99080  0.91994  1.0000
  O   O4        1.0  0.78390  0.99080  0.58006  1.0000
  O   O5        1.0  0.20690  0.21610  0.58006  1.0000
  O   O6        1.0  0.00920  0.79310  0.58006  1.0000
  O   O7        1.0  0.99080  0.78390  0.08006  1.0000
  O   O8        1.0  0.21610  0.20690  0.08006  1.0000
  O   O9        1.0  0.79310  0.00920  0.08006  1.0000
  O   O10       1.0  0.21610  0.00920  0.41994  1.0000
  O   O11       1.0  0.79310  0.78390  0.41994  1.0000
  O   O12       1.0  0.99080  0.20690  0.41994  1.0000
  O   O13       1.0  0.88200  0.34280  0.83003  1.0000
  O   O14       1.0  0.65720  0.53920  0.83003  1.0000
  O   O15       1.0  0.46080  0.11800  0.83003  1.0000
  O   O16       1.0  0.65720  0.11800  0.66997  1.0000
  O   O17       1.0  0.46080  0.34280  0.66997  1.0000
  O   O18       1.0  0.88200  0.53920  0.66997  1.0000
  O   O19       1.0  0.11800  0.65720  0.16997  1.0000
  O   O20       1.0  0.34280  0.46080  0.16997  1.0000
  O   O21       1.0  0.53920  0.88200  0.16997  1.0000
  O   O22       1.0  0.34280  0.88200  0.33003  1.0000
  O   O23       1.0  0.53920  0.65720  0.33003  1.0000
  O   O24       1.0  0.11800  0.46080  0.33003  1.0000
  C   C1        1.0  0.88010  0.20720  0.87148  1.0000
  C   C2        1.0  0.79280  0.67290  0.87148  1.0000
  C   C3        1.0  0.32710  0.11990  0.87148  1.0000
  C   C4        1.0  0.79280  0.11990  0.62852  1.0000
  C   C5        1.0  0.32710  0.20720  0.62852  1.0000
  C   C6        1.0  0.88010  0.67290  0.62852  1.0000
  C   C7        1.0  0.11990  0.79280  0.12852  1.0000
  C   C8        1.0  0.20720  0.32710  0.12852  1.0000
  C   C9        1.0  0.67290  0.88010  0.12852  1.0000
  C   C10       1.0  0.20720  0.88010  0.37148  1.0000
  C   C11       1.0  0.67290  0.79280  0.37148  1.0000
  C   C12       1.0  0.11990  0.32710  0.37148  1.0000
  H   H1        1.0  0.77130  0.08830  0.86530  1.0000
  H   H2        1.0  0.91170  0.68300  0.86530  1.0000
  H   H3        1.0  0.31700  0.22870  0.86530  1.0000
  H   H4        1.0  0.91170  0.22870  0.63470  1.0000
  H   H5        1.0  0.31700  0.08830  0.63470  1.0000
  H   H6        1.0  0.77130  0.68300  0.63470  1.0000
  H   H7        1.0  0.22870  0.91170  0.13470  1.0000
  H   H8        1.0  0.08830  0.31700  0.13470  1.0000
  H   H9        1.0  0.68300  0.77130  0.13470  1.0000
  H   H10       1.0  0.08830  0.77130  0.36530  1.0000
  H   H11       1.0  0.68300  0.91170  0.36530  1.0000
  H   H12       1.0  0.22870  0.31700  0.36530  1.0000
