data_image0
_chemical_formula_structural       Fe4O24C12H12
_chemical_formula_sum              "Fe4 O24 C12 H12"
_cell_length_a       8.2311
_cell_length_b       8.2311
_cell_length_c       14.8432
_cell_angle_alpha    90
_cell_angle_beta     90
_cell_angle_gamma    120

_space_group_name_H-M_alt    "P 1"
_space_group_IT_number       1

loop_
  _space_group_symop_operation_xyz
  'x, y, z'

loop_
  _atom_site_type_symbol
  _atom_site_label
  _atom_site_symmetry_multiplicity
  _atom_site_fract_x
  _atom_site_fract_y
  _atom_site_fract_z
  _atom_site_occupancy
  Fe  Fe1       1.0  0.00000  0.00000  0.00000  1.0000
  Fe  Fe2       1.0  0.00000  0.00000  0.50000  1.0000
  Fe  Fe3       1.0  0.66670  0.33330  0.75000  1.0000
  Fe  Fe4       1.0  0.33330  0.66670  0.25000  1.0000
  O   O1        1.0  0.78160  0.98820  0.91819  1.0000
  O   O2        1.0  0.01180  0.79340  0.91819  1.0000
  O   O3        1.0  0.20660  0.21840  0.91819  1.0000
  O   O4        1.0  0.01180  0.21840  0.58181  1.0000
  O   O5        1.0  0.20660  0.98820  0.58181  1.0000
  O   O6        1.0  0.78160  0.79340  0.58181  1.0000
  O   O7        1.0  0.21840  0.01180  0.08181  1.0000
  O   O8        1.0  0.98820  0.20660  0.08181  1.0000
  O   O9        1.0  0.79340  0.78160  0.08181  1.0000
  O   O10       1.0  0.98820  0.78160  0.41819  1.0000
  O   O11       1.0  0.79340  0.01180  0.41819  1.0000
  O   O12       1.0  0.21840  0.20660  0.41819  1.0000
  O   O13       1.0  0.65680  0.11460  0.83108  1.0000
  O   O14       1.0  0.88540  0.54220  0.83108  1.0000
  O   O15       1.0  0.45780  0.34320  0.83108  1.0000
  O   O16       1.0  0.88540  0.34320  0.66892  1.0000
  O   O17       1.0  0.45780  0.11460  0.66892  1.0000
  O   O18       1.0  0.65680  0.54220  0.66892  1.0000
  O   O19       1.0  0.34320  0.88540  0.16892  1.0000
  O   O20       1.0  0.11460  0.45780  0.16892  1.0000
  O   O21       1.0  0.54220  0.65680  0.16892  1.0000
  O   O22       1.0  0.11460  0.65680  0.33108  1.0000
  O   O23       1.0  0.54220  0.88540  0.33108  1.0000
  O   O24       1.0  0.34320  0.45780  0.33108  1.0000
  C   C1        1.0  0.78890  0.11560  0.87199  1.0000
  C   C2        1.0  0.88440  0.67330  0.87199  1.0000
  C   C3        1.0  0.32670  0.21110  0.87199  1.0000
  C   C4        1.0  0.88440  0.21110  0.62801  1.0000
  C   C5        1.0  0.32670  0.11560  0.62801  1.0000
  C   C6        1.0  0.78890  0.67330  0.62801  1.0000
  C   C7        1.0  0.21110  0.88440  0.12801  1.0000
  C   C8        1.0  0.11560  0.32670  0.12801  1.0000
  C   C9        1.0  0.67330  0.78890  0.12801  1.0000
  C   C10       1.0  0.11560  0.78890  0.37199  1.0000
  C   C11       1.0  0.67330  0.88440  0.37199  1.0000
  C   C12       1.0  0.21110  0.32670  0.37199  1.0000
  H   H1        1.0  0.90530  0.22390  0.86720  1.0000
  H   H2        1.0  0.77610  0.68140  0.86720  1.0000
  H   H3        1.0  0.31860  0.09470  0.86720  1.0000
  H   H4        1.0  0.77610  0.09470  0.63280  1.0000
  H   H5        1.0  0.31860  0.22390  0.63280  1.0000
  H   H6        1.0  0.90530  0.68140  0.63280  1.0000
  H   H7        1.0  0.09470  0.77610  0.13280  1.0000
  H   H8        1.0  0.22390  0.31860  0.13280  1.0000
  H   H9        1.0  0.68140  0.90530  0.13280  1.0000
  H   H10       1.0  0.22390  0.90530  0.36720  1.0000
  H   H11       1.0  0.68140  0.77610  0.36720  1.0000
  H   H12       1.0  0.09470  0.31860  0.36720  1.0000
