data_image0
_chemical_formula_structural       Cu8O48C8H8C8H8C8H8
_chemical_formula_sum              "Cu8 O48 C24 H24"
_cell_length_a       8.6614
_cell_length_b       13.6399
_cell_length_c       14.5832
_cell_angle_alpha    90
_cell_angle_beta     90.882
_cell_angle_gamma    90

_space_group_name_H-M_alt    "P 1"
_space_group_IT_number       1

loop_
  _space_group_symop_operation_xyz
  'x, y, z'

loop_
  _atom_site_type_symbol
  _atom_site_label
  _atom_site_symmetry_multiplicity
  _atom_site_fract_x
  _atom_site_fract_y
  _atom_site_fract_z
  _atom_site_occupancy
  Cu  Cu1       1.0  0.50000  0.50000  0.50000  1.0000
  Cu  Cu2       1.0  0.50000  0.50000  0.00000  1.0000
  Cu  Cu3       1.0  0.00000  0.00000  0.50000  1.0000
  Cu  Cu4       1.0  0.00000  0.00000  0.00000  1.0000
  Cu  Cu5       1.0  0.00000  0.67668  0.75000  1.0000
  Cu  Cu6       1.0  0.50000  0.17668  0.75000  1.0000
  Cu  Cu7       1.0  0.00000  0.32332  0.25000  1.0000
  Cu  Cu8       1.0  0.50000  0.82332  0.25000  1.0000
  O   O1        1.0  0.41496  0.61081  0.57032  1.0000
  O   O2        1.0  0.58504  0.61081  0.92968  1.0000
  O   O3        1.0  0.91496  0.11081  0.57032  1.0000
  O   O4        1.0  0.08504  0.11081  0.92968  1.0000
  O   O5        1.0  0.58504  0.38919  0.42968  1.0000
  O   O6        1.0  0.41496  0.38919  0.07032  1.0000
  O   O7        1.0  0.08504  0.88919  0.42968  1.0000
  O   O8        1.0  0.91496  0.88919  0.07032  1.0000
  O   O9        1.0  0.24414  0.68237  0.65880  1.0000
  O   O10       1.0  0.75586  0.68237  0.84120  1.0000
  O   O11       1.0  0.74414  0.18237  0.65880  1.0000
  O   O12       1.0  0.25586  0.18237  0.84120  1.0000
  O   O13       1.0  0.75586  0.31763  0.34120  1.0000
  O   O14       1.0  0.24414  0.31763  0.15880  1.0000
  O   O15       1.0  0.25586  0.81763  0.34120  1.0000
  O   O16       1.0  0.74414  0.81763  0.15880  1.0000
  O   O17       1.0  0.60306  0.59724  0.42080  1.0000
  O   O18       1.0  0.39694  0.59724  0.07920  1.0000
  O   O19       1.0  0.10306  0.09724  0.42080  1.0000
  O   O20       1.0  0.89694  0.09724  0.07920  1.0000
  O   O21       1.0  0.39694  0.40276  0.57920  1.0000
  O   O22       1.0  0.60306  0.40276  0.92080  1.0000
  O   O23       1.0  0.89694  0.90276  0.57920  1.0000
  O   O24       1.0  0.10306  0.90276  0.92080  1.0000
  O   O25       1.0  0.60132  0.72434  0.32771  1.0000
  O   O26       1.0  0.39868  0.72434  0.17229  1.0000
  O   O27       1.0  0.10132  0.22434  0.32771  1.0000
  O   O28       1.0  0.89868  0.22434  0.17229  1.0000
  O   O29       1.0  0.39868  0.27566  0.67229  1.0000
  O   O30       1.0  0.60132  0.27566  0.82771  1.0000
  O   O31       1.0  0.89868  0.77566  0.67229  1.0000
  O   O32       1.0  0.10132  0.77566  0.82771  1.0000
  O   O33       1.0  0.08564  0.42994  0.32562  1.0000
  O   O34       1.0  0.91436  0.42994  0.17438  1.0000
  O   O35       1.0  0.58564  0.92994  0.32562  1.0000
  O   O36       1.0  0.41436  0.92994  0.17438  1.0000
  O   O37       1.0  0.91436  0.57006  0.67438  1.0000
  O   O38       1.0  0.08564  0.57006  0.82562  1.0000
  O   O39       1.0  0.41436  0.07006  0.67438  1.0000
  O   O40       1.0  0.58564  0.07006  0.82562  1.0000
  O   O41       1.0  0.27123  0.50447  0.40347  1.0000
  O   O42       1.0  0.72877  0.50447  0.09653  1.0000
  O   O43       1.0  0.77123  0.00447  0.40347  1.0000
  O   O44       1.0  0.22877  0.00447  0.09653  1.0000
  O   O45       1.0  0.72877  0.49553  0.59653  1.0000
  O   O46       1.0  0.27123  0.49553  0.90347  1.0000
  O   O47       1.0  0.22877  0.99553  0.59653  1.0000
  O   O48       1.0  0.77123  0.99553  0.90347  1.0000
  C   C1        1.0  0.30030  0.60940  0.62028  1.0000
  C   C2        1.0  0.69970  0.60940  0.87972  1.0000
  C   C3        1.0  0.80030  0.10940  0.62028  1.0000
  C   C4        1.0  0.19970  0.10940  0.87972  1.0000
  C   C5        1.0  0.69970  0.39060  0.37972  1.0000
  C   C6        1.0  0.30030  0.39060  0.12028  1.0000
  C   C7        1.0  0.19970  0.89060  0.37972  1.0000
  C   C8        1.0  0.80030  0.89060  0.12028  1.0000
  H   H1        1.0  0.25270  0.54920  0.62970  1.0000
  H   H2        1.0  0.74730  0.54920  0.87030  1.0000
  H   H3        1.0  0.75270  0.04920  0.62970  1.0000
  H   H4        1.0  0.24730  0.04920  0.87030  1.0000
  H   H5        1.0  0.74730  0.45080  0.37030  1.0000
  H   H6        1.0  0.25270  0.45080  0.12970  1.0000
  H   H7        1.0  0.24730  0.95080  0.37030  1.0000
  H   H8        1.0  0.75270  0.95080  0.12970  1.0000
  C   C9        1.0  0.53650  0.65861  0.37126  1.0000
  C   C10       1.0  0.46350  0.65861  0.12874  1.0000
  C   C11       1.0  0.03650  0.15861  0.37126  1.0000
  C   C12       1.0  0.96350  0.15861  0.12874  1.0000
  C   C13       1.0  0.46350  0.34139  0.62874  1.0000
  C   C14       1.0  0.53650  0.34139  0.87126  1.0000
  C   C15       1.0  0.96350  0.84139  0.62874  1.0000
  C   C16       1.0  0.03650  0.84139  0.87126  1.0000
  H   H9        1.0  0.42950  0.65490  0.36650  1.0000
  H   H10       1.0  0.57050  0.65490  0.13350  1.0000
  H   H11       1.0  0.92950  0.15490  0.36650  1.0000
  H   H12       1.0  0.07050  0.15490  0.13350  1.0000
  H   H13       1.0  0.57050  0.34510  0.63350  1.0000
  H   H14       1.0  0.42950  0.34510  0.86650  1.0000
  H   H15       1.0  0.07050  0.84510  0.63350  1.0000
  H   H16       1.0  0.92950  0.84510  0.86650  1.0000
  C   C17       1.0  0.21670  0.43184  0.36277  1.0000
  C   C18       1.0  0.78330  0.43184  0.13723  1.0000
  C   C19       1.0  0.71670  0.93184  0.36277  1.0000
  C   C20       1.0  0.28330  0.93184  0.13723  1.0000
  C   C21       1.0  0.78330  0.56816  0.63723  1.0000
  C   C22       1.0  0.21670  0.56816  0.86277  1.0000
  C   C23       1.0  0.28330  0.06816  0.63723  1.0000
  C   C24       1.0  0.71670  0.06816  0.86277  1.0000
  H   H17       1.0  0.27710  0.37560  0.35980  1.0000
  H   H18       1.0  0.72290  0.37560  0.14020  1.0000
  H   H19       1.0  0.77710  0.87560  0.35980  1.0000
  H   H20       1.0  0.22290  0.87560  0.14020  1.0000
  H   H21       1.0  0.72290  0.62440  0.64020  1.0000
  H   H22       1.0  0.27710  0.62440  0.85980  1.0000
  H   H23       1.0  0.22290  0.12440  0.64020  1.0000
  H   H24       1.0  0.77710  0.12440  0.85980  1.0000
