data_image0
_chemical_formula_structural       Zn4O24C12H12
_chemical_formula_sum              "Zn4 O24 C12 H12"
_cell_length_a       8.1794
_cell_length_b       8.1794
_cell_length_c       14.6957
_cell_angle_alpha    90
_cell_angle_beta     90
_cell_angle_gamma    120

_space_group_name_H-M_alt    "P 1"
_space_group_IT_number       1

loop_
  _space_group_symop_operation_xyz
  'x, y, z'

loop_
  _atom_site_type_symbol
  _atom_site_label
  _atom_site_symmetry_multiplicity
  _atom_site_fract_x
  _atom_site_fract_y
  _atom_site_fract_z
  _atom_site_occupancy
  Zn  Zn1       1.0  0.00000  0.00000  0.00000  1.0000
  Zn  Zn2       1.0  0.00000  0.00000  0.50000  1.0000
  Zn  Zn3       1.0  0.66670  0.33330  0.75000  1.0000
  Zn  Zn4       1.0  0.33330  0.66670  0.25000  1.0000
  O   O1        1.0  0.01140  0.21890  0.91897  1.0000
  O   O2        1.0  0.78110  0.79250  0.91897  1.0000
  O   O3        1.0  0.20750  0.98860  0.91897  1.0000
  O   O4        1.0  0.78110  0.98860  0.58103  1.0000
  O   O5        1.0  0.20750  0.21890  0.58103  1.0000
  O   O6        1.0  0.01140  0.79250  0.58103  1.0000
  O   O7        1.0  0.98860  0.78110  0.08103  1.0000
  O   O8        1.0  0.21890  0.20750  0.08103  1.0000
  O   O9        1.0  0.79250  0.01140  0.08103  1.0000
  O   O10       1.0  0.21890  0.01140  0.41897  1.0000
  O   O11       1.0  0.79250  0.78110  0.41897  1.0000
  O   O12       1.0  0.98860  0.20750  0.41897  1.0000
  O   O13       1.0  0.88480  0.34380  0.83054  1.0000
  O   O14       1.0  0.65620  0.54100  0.83054  1.0000
  O   O15       1.0  0.45900  0.11520  0.83054  1.0000
  O   O16       1.0  0.65620  0.11520  0.66946  1.0000
  O   O17       1.0  0.45900  0.34380  0.66946  1.0000
  O   O18       1.0  0.88480  0.54100  0.66946  1.0000
  O   O19       1.0  0.11520  0.65620  0.16946  1.0000
  O   O20       1.0  0.34380  0.45900  0.16946  1.0000
  O   O21       1.0  0.54100  0.88480  0.16946  1.0000
  O   O22       1.0  0.34380  0.88480  0.33054  1.0000
  O   O23       1.0  0.54100  0.65620  0.33054  1.0000
  O   O24       1.0  0.11520  0.45900  0.33054  1.0000
  C   C1        1.0  0.88330  0.21000  0.87155  1.0000
  C   C2        1.0  0.79000  0.67330  0.87155  1.0000
  C   C3        1.0  0.32670  0.11670  0.87155  1.0000
  C   C4        1.0  0.79000  0.11670  0.62845  1.0000
  C   C5        1.0  0.32670  0.21000  0.62845  1.0000
  C   C6        1.0  0.88330  0.67330  0.62845  1.0000
  C   C7        1.0  0.11670  0.79000  0.12845  1.0000
  C   C8        1.0  0.21000  0.32670  0.12845  1.0000
  C   C9        1.0  0.67330  0.88330  0.12845  1.0000
  C   C10       1.0  0.21000  0.88330  0.37155  1.0000
  C   C11       1.0  0.67330  0.79000  0.37155  1.0000
  C   C12       1.0  0.11670  0.32670  0.37155  1.0000
  H   H1        1.0  0.77520  0.09220  0.86580  1.0000
  H   H2        1.0  0.90780  0.68300  0.86580  1.0000
  H   H3        1.0  0.31700  0.22480  0.86580  1.0000
  H   H4        1.0  0.90780  0.22480  0.63420  1.0000
  H   H5        1.0  0.31700  0.09220  0.63420  1.0000
  H   H6        1.0  0.77520  0.68300  0.63420  1.0000
  H   H7        1.0  0.22480  0.90780  0.13420  1.0000
  H   H8        1.0  0.09220  0.31700  0.13420  1.0000
  H   H9        1.0  0.68300  0.77520  0.13420  1.0000
  H   H10       1.0  0.09220  0.77520  0.36580  1.0000
  H   H11       1.0  0.68300  0.90780  0.36580  1.0000
  H   H12       1.0  0.22480  0.31700  0.36580  1.0000
