data_image0
_chemical_formula_structural       Zn192N96C96H96N96C288N96C96H96N192H192O48C96O192C192H96C96H96C192H96C96H96C96O192C192H96C96H96C192H96C96H96C96O192C192H96C96H96C192H96C96H96
_chemical_formula_sum              "Zn192 N480 C2496 H1536 O624"
_cell_length_a       69.12
_cell_length_b       69.12
_cell_length_c       69.12
_cell_angle_alpha    90
_cell_angle_beta     90
_cell_angle_gamma    90

_space_group_name_H-M_alt    "P 1"
_space_group_IT_number       1

loop_
  _space_group_symop_operation_xyz
  'x, y, z'

loop_
  _atom_site_type_symbol
  _atom_site_label
  _atom_site_symmetry_multiplicity
  _atom_site_fract_x
  _atom_site_fract_y
  _atom_site_fract_z
  _atom_site_occupancy
  Zn  Zn1       1.0  0.48946  0.22986  0.18967  1.0000
  Zn  Zn2       1.0  0.01054  0.77014  0.68967  1.0000
  Zn  Zn3       1.0  0.51054  0.72986  0.31033  1.0000
  Zn  Zn4       1.0  0.98946  0.27014  0.81033  1.0000
  Zn  Zn5       1.0  0.18967  0.48946  0.22986  1.0000
  Zn  Zn6       1.0  0.68967  0.01054  0.77014  1.0000
  Zn  Zn7       1.0  0.31033  0.51054  0.72986  1.0000
  Zn  Zn8       1.0  0.81033  0.98946  0.27014  1.0000
  Zn  Zn9       1.0  0.22986  0.18967  0.48946  1.0000
  Zn  Zn10      1.0  0.77014  0.68967  0.01054  1.0000
  Zn  Zn11      1.0  0.72986  0.31033  0.51054  1.0000
  Zn  Zn12      1.0  0.27014  0.81033  0.98946  1.0000
  Zn  Zn13      1.0  0.97986  0.73946  0.06033  1.0000
  Zn  Zn14      1.0  0.52014  0.26054  0.56033  1.0000
  Zn  Zn15      1.0  0.47986  0.76054  0.93967  1.0000
  Zn  Zn16      1.0  0.02014  0.23946  0.43967  1.0000
  Zn  Zn17      1.0  0.23946  0.43967  0.02014  1.0000
  Zn  Zn18      1.0  0.76054  0.93967  0.47986  1.0000
  Zn  Zn19      1.0  0.26054  0.56033  0.52014  1.0000
  Zn  Zn20      1.0  0.73946  0.06033  0.97986  1.0000
  Zn  Zn21      1.0  0.93967  0.47986  0.76054  1.0000
  Zn  Zn22      1.0  0.43967  0.02014  0.23946  1.0000
  Zn  Zn23      1.0  0.06033  0.97986  0.73946  1.0000
  Zn  Zn24      1.0  0.56033  0.52014  0.26054  1.0000
  Zn  Zn25      1.0  0.98946  0.72986  0.68967  1.0000
  Zn  Zn26      1.0  0.51054  0.27014  0.18967  1.0000
  Zn  Zn27      1.0  0.01054  0.22986  0.81033  1.0000
  Zn  Zn28      1.0  0.48946  0.77014  0.31033  1.0000
  Zn  Zn29      1.0  0.68967  0.98946  0.72986  1.0000
  Zn  Zn30      1.0  0.18967  0.51054  0.27014  1.0000
  Zn  Zn31      1.0  0.81033  0.01054  0.22986  1.0000
  Zn  Zn32      1.0  0.31033  0.48946  0.77014  1.0000
  Zn  Zn33      1.0  0.72986  0.68967  0.98946  1.0000
  Zn  Zn34      1.0  0.27014  0.18967  0.51054  1.0000
  Zn  Zn35      1.0  0.22986  0.81033  0.01054  1.0000
  Zn  Zn36      1.0  0.77014  0.31033  0.48946  1.0000
  Zn  Zn37      1.0  0.47986  0.23946  0.56033  1.0000
  Zn  Zn38      1.0  0.02014  0.76054  0.06033  1.0000
  Zn  Zn39      1.0  0.97986  0.26054  0.43967  1.0000
  Zn  Zn40      1.0  0.52014  0.73946  0.93967  1.0000
  Zn  Zn41      1.0  0.73946  0.93967  0.52014  1.0000
  Zn  Zn42      1.0  0.26054  0.43967  0.97986  1.0000
  Zn  Zn43      1.0  0.76054  0.06033  0.02014  1.0000
  Zn  Zn44      1.0  0.23946  0.56033  0.47986  1.0000
  Zn  Zn45      1.0  0.43967  0.97986  0.26054  1.0000
  Zn  Zn46      1.0  0.93967  0.52014  0.73946  1.0000
  Zn  Zn47      1.0  0.56033  0.47986  0.23946  1.0000
  Zn  Zn48      1.0  0.06033  0.02014  0.76054  1.0000
  Zn  Zn49      1.0  0.51054  0.77014  0.81033  1.0000
  Zn  Zn50      1.0  0.98946  0.22986  0.31033  1.0000
  Zn  Zn51      1.0  0.48946  0.27014  0.68967  1.0000
  Zn  Zn52      1.0  0.01054  0.72986  0.18967  1.0000
  Zn  Zn53      1.0  0.81033  0.51054  0.77014  1.0000
  Zn  Zn54      1.0  0.31033  0.98946  0.22986  1.0000
  Zn  Zn55      1.0  0.68967  0.48946  0.27014  1.0000
  Zn  Zn56      1.0  0.18967  0.01054  0.72986  1.0000
  Zn  Zn57      1.0  0.77014  0.81033  0.51054  1.0000
  Zn  Zn58      1.0  0.22986  0.31033  0.98946  1.0000
  Zn  Zn59      1.0  0.27014  0.68967  0.48946  1.0000
  Zn  Zn60      1.0  0.72986  0.18967  0.01054  1.0000
  Zn  Zn61      1.0  0.02014  0.26054  0.93967  1.0000
  Zn  Zn62      1.0  0.47986  0.73946  0.43967  1.0000
  Zn  Zn63      1.0  0.52014  0.23946  0.06033  1.0000
  Zn  Zn64      1.0  0.97986  0.76054  0.56033  1.0000
  Zn  Zn65      1.0  0.76054  0.56033  0.97986  1.0000
  Zn  Zn66      1.0  0.23946  0.06033  0.52014  1.0000
  Zn  Zn67      1.0  0.73946  0.43967  0.47986  1.0000
  Zn  Zn68      1.0  0.26054  0.93967  0.02014  1.0000
  Zn  Zn69      1.0  0.06033  0.52014  0.23946  1.0000
  Zn  Zn70      1.0  0.56033  0.97986  0.76054  1.0000
  Zn  Zn71      1.0  0.93967  0.02014  0.26054  1.0000
  Zn  Zn72      1.0  0.43967  0.47986  0.73946  1.0000
  Zn  Zn73      1.0  0.01054  0.27014  0.31033  1.0000
  Zn  Zn74      1.0  0.48946  0.72986  0.81033  1.0000
  Zn  Zn75      1.0  0.98946  0.77014  0.18967  1.0000
  Zn  Zn76      1.0  0.51054  0.22986  0.68967  1.0000
  Zn  Zn77      1.0  0.31033  0.01054  0.27014  1.0000
  Zn  Zn78      1.0  0.81033  0.48946  0.72986  1.0000
  Zn  Zn79      1.0  0.18967  0.98946  0.77014  1.0000
  Zn  Zn80      1.0  0.68967  0.51054  0.22986  1.0000
  Zn  Zn81      1.0  0.27014  0.31033  0.01054  1.0000
  Zn  Zn82      1.0  0.72986  0.81033  0.48946  1.0000
  Zn  Zn83      1.0  0.77014  0.18967  0.98946  1.0000
  Zn  Zn84      1.0  0.22986  0.68967  0.51054  1.0000
  Zn  Zn85      1.0  0.52014  0.76054  0.43967  1.0000
  Zn  Zn86      1.0  0.97986  0.23946  0.93967  1.0000
  Zn  Zn87      1.0  0.02014  0.73946  0.56033  1.0000
  Zn  Zn88      1.0  0.47986  0.26054  0.06033  1.0000
  Zn  Zn89      1.0  0.26054  0.06033  0.47986  1.0000
  Zn  Zn90      1.0  0.73946  0.56033  0.02014  1.0000
  Zn  Zn91      1.0  0.23946  0.93967  0.97986  1.0000
  Zn  Zn92      1.0  0.76054  0.43967  0.52014  1.0000
  Zn  Zn93      1.0  0.56033  0.02014  0.73946  1.0000
  Zn  Zn94      1.0  0.06033  0.47986  0.26054  1.0000
  Zn  Zn95      1.0  0.43967  0.52014  0.76054  1.0000
  Zn  Zn96      1.0  0.93967  0.97986  0.23946  1.0000
  Zn  Zn97      1.0  0.43688  0.22460  0.12422  1.0000
  Zn  Zn98      1.0  0.06312  0.77540  0.62422  1.0000
  Zn  Zn99      1.0  0.56312  0.72460  0.37578  1.0000
  Zn  Zn100     1.0  0.93688  0.27540  0.87578  1.0000
  Zn  Zn101     1.0  0.12422  0.43688  0.22460  1.0000
  Zn  Zn102     1.0  0.62422  0.06312  0.77540  1.0000
  Zn  Zn103     1.0  0.37578  0.56312  0.72460  1.0000
  Zn  Zn104     1.0  0.87578  0.93688  0.27540  1.0000
  Zn  Zn105     1.0  0.22460  0.12422  0.43688  1.0000
  Zn  Zn106     1.0  0.77540  0.62422  0.06312  1.0000
  Zn  Zn107     1.0  0.72460  0.37578  0.56312  1.0000
  Zn  Zn108     1.0  0.27540  0.87578  0.93688  1.0000
  Zn  Zn109     1.0  0.97460  0.68688  0.12578  1.0000
  Zn  Zn110     1.0  0.52540  0.31312  0.62578  1.0000
  Zn  Zn111     1.0  0.47460  0.81312  0.87422  1.0000
  Zn  Zn112     1.0  0.02540  0.18688  0.37422  1.0000
  Zn  Zn113     1.0  0.18688  0.37422  0.02540  1.0000
  Zn  Zn114     1.0  0.81312  0.87422  0.47460  1.0000
  Zn  Zn115     1.0  0.31312  0.62578  0.52540  1.0000
  Zn  Zn116     1.0  0.68688  0.12578  0.97460  1.0000
  Zn  Zn117     1.0  0.87422  0.47460  0.81312  1.0000
  Zn  Zn118     1.0  0.37422  0.02540  0.18688  1.0000
  Zn  Zn119     1.0  0.12578  0.97460  0.68688  1.0000
  Zn  Zn120     1.0  0.62578  0.52540  0.31312  1.0000
  Zn  Zn121     1.0  0.93688  0.72460  0.62422  1.0000
  Zn  Zn122     1.0  0.56312  0.27540  0.12422  1.0000
  Zn  Zn123     1.0  0.06312  0.22460  0.87578  1.0000
  Zn  Zn124     1.0  0.43688  0.77540  0.37578  1.0000
  Zn  Zn125     1.0  0.62422  0.93688  0.72460  1.0000
  Zn  Zn126     1.0  0.12422  0.56312  0.27540  1.0000
  Zn  Zn127     1.0  0.87578  0.06312  0.22460  1.0000
  Zn  Zn128     1.0  0.37578  0.43688  0.77540  1.0000
  Zn  Zn129     1.0  0.72460  0.62422  0.93688  1.0000
  Zn  Zn130     1.0  0.27540  0.12422  0.56312  1.0000
  Zn  Zn131     1.0  0.22460  0.87578  0.06312  1.0000
  Zn  Zn132     1.0  0.77540  0.37578  0.43688  1.0000
  Zn  Zn133     1.0  0.47460  0.18688  0.62578  1.0000
  Zn  Zn134     1.0  0.02540  0.81312  0.12578  1.0000
  Zn  Zn135     1.0  0.97460  0.31312  0.37422  1.0000
  Zn  Zn136     1.0  0.52540  0.68688  0.87422  1.0000
  Zn  Zn137     1.0  0.68688  0.87422  0.52540  1.0000
  Zn  Zn138     1.0  0.31312  0.37422  0.97460  1.0000
  Zn  Zn139     1.0  0.81312  0.12578  0.02540  1.0000
  Zn  Zn140     1.0  0.18688  0.62578  0.47460  1.0000
  Zn  Zn141     1.0  0.37422  0.97460  0.31312  1.0000
  Zn  Zn142     1.0  0.87422  0.52540  0.68688  1.0000
  Zn  Zn143     1.0  0.62578  0.47460  0.18688  1.0000
  Zn  Zn144     1.0  0.12578  0.02540  0.81312  1.0000
  Zn  Zn145     1.0  0.56312  0.77540  0.87578  1.0000
  Zn  Zn146     1.0  0.93688  0.22460  0.37578  1.0000
  Zn  Zn147     1.0  0.43688  0.27540  0.62422  1.0000
  Zn  Zn148     1.0  0.06312  0.72460  0.12422  1.0000
  Zn  Zn149     1.0  0.87578  0.56312  0.77540  1.0000
  Zn  Zn150     1.0  0.37578  0.93688  0.22460  1.0000
  Zn  Zn151     1.0  0.62422  0.43688  0.27540  1.0000
  Zn  Zn152     1.0  0.12422  0.06312  0.72460  1.0000
  Zn  Zn153     1.0  0.77540  0.87578  0.56312  1.0000
  Zn  Zn154     1.0  0.22460  0.37578  0.93688  1.0000
  Zn  Zn155     1.0  0.27540  0.62422  0.43688  1.0000
  Zn  Zn156     1.0  0.72460  0.12422  0.06312  1.0000
  Zn  Zn157     1.0  0.02540  0.31312  0.87422  1.0000
  Zn  Zn158     1.0  0.47460  0.68688  0.37422  1.0000
  Zn  Zn159     1.0  0.52540  0.18688  0.12578  1.0000
  Zn  Zn160     1.0  0.97460  0.81312  0.62578  1.0000
  Zn  Zn161     1.0  0.81312  0.62578  0.97460  1.0000
  Zn  Zn162     1.0  0.18688  0.12578  0.52540  1.0000
  Zn  Zn163     1.0  0.68688  0.37422  0.47460  1.0000
  Zn  Zn164     1.0  0.31312  0.87422  0.02540  1.0000
  Zn  Zn165     1.0  0.12578  0.52540  0.18688  1.0000
  Zn  Zn166     1.0  0.62578  0.97460  0.81312  1.0000
  Zn  Zn167     1.0  0.87422  0.02540  0.31312  1.0000
  Zn  Zn168     1.0  0.37422  0.47460  0.68688  1.0000
  Zn  Zn169     1.0  0.06312  0.27540  0.37578  1.0000
  Zn  Zn170     1.0  0.43688  0.72460  0.87578  1.0000
  Zn  Zn171     1.0  0.93688  0.77540  0.12422  1.0000
  Zn  Zn172     1.0  0.56312  0.22460  0.62422  1.0000
  Zn  Zn173     1.0  0.37578  0.06312  0.27540  1.0000
  Zn  Zn174     1.0  0.87578  0.43688  0.72460  1.0000
  Zn  Zn175     1.0  0.12422  0.93688  0.77540  1.0000
  Zn  Zn176     1.0  0.62422  0.56312  0.22460  1.0000
  Zn  Zn177     1.0  0.27540  0.37578  0.06312  1.0000
  Zn  Zn178     1.0  0.72460  0.87578  0.43688  1.0000
  Zn  Zn179     1.0  0.77540  0.12422  0.93688  1.0000
  Zn  Zn180     1.0  0.22460  0.62422  0.56312  1.0000
  Zn  Zn181     1.0  0.52540  0.81312  0.37422  1.0000
  Zn  Zn182     1.0  0.97460  0.18688  0.87422  1.0000
  Zn  Zn183     1.0  0.02540  0.68688  0.62578  1.0000
  Zn  Zn184     1.0  0.47460  0.31312  0.12578  1.0000
  Zn  Zn185     1.0  0.31312  0.12578  0.47460  1.0000
  Zn  Zn186     1.0  0.68688  0.62578  0.02540  1.0000
  Zn  Zn187     1.0  0.18688  0.87422  0.97460  1.0000
  Zn  Zn188     1.0  0.81312  0.37422  0.52540  1.0000
  Zn  Zn189     1.0  0.62578  0.02540  0.68688  1.0000
  Zn  Zn190     1.0  0.12578  0.47460  0.31312  1.0000
  Zn  Zn191     1.0  0.37422  0.52540  0.81312  1.0000
  Zn  Zn192     1.0  0.87422  0.97460  0.18688  1.0000
  N   N1        1.0  0.45012  0.24370  0.14342  1.0000
  N   N2        1.0  0.04988  0.75630  0.64342  1.0000
  N   N3        1.0  0.54988  0.74370  0.35658  1.0000
  N   N4        1.0  0.95012  0.25630  0.85658  1.0000
  N   N5        1.0  0.14342  0.45012  0.24370  1.0000
  N   N6        1.0  0.64342  0.04988  0.75630  1.0000
  N   N7        1.0  0.35658  0.54988  0.74370  1.0000
  N   N8        1.0  0.85658  0.95012  0.25630  1.0000
  N   N9        1.0  0.24370  0.14342  0.45012  1.0000
  N   N10       1.0  0.75630  0.64342  0.04988  1.0000
  N   N11       1.0  0.74370  0.35658  0.54988  1.0000
  N   N12       1.0  0.25630  0.85658  0.95012  1.0000
  N   N13       1.0  0.99370  0.70012  0.10658  1.0000
  N   N14       1.0  0.50630  0.29988  0.60658  1.0000
  N   N15       1.0  0.49370  0.79988  0.89342  1.0000
  N   N16       1.0  0.00630  0.20012  0.39342  1.0000
  N   N17       1.0  0.20012  0.39342  0.00630  1.0000
  N   N18       1.0  0.79988  0.89342  0.49370  1.0000
  N   N19       1.0  0.29988  0.60658  0.50630  1.0000
  N   N20       1.0  0.70012  0.10658  0.99370  1.0000
  N   N21       1.0  0.89342  0.49370  0.79988  1.0000
  N   N22       1.0  0.39342  0.00630  0.20012  1.0000
  N   N23       1.0  0.10658  0.99370  0.70012  1.0000
  N   N24       1.0  0.60658  0.50630  0.29988  1.0000
  N   N25       1.0  0.95012  0.74370  0.64342  1.0000
  N   N26       1.0  0.54988  0.25630  0.14342  1.0000
  N   N27       1.0  0.04988  0.24370  0.85658  1.0000
  N   N28       1.0  0.45012  0.75630  0.35658  1.0000
  N   N29       1.0  0.64342  0.95012  0.74370  1.0000
  N   N30       1.0  0.14342  0.54988  0.25630  1.0000
  N   N31       1.0  0.85658  0.04988  0.24370  1.0000
  N   N32       1.0  0.35658  0.45012  0.75630  1.0000
  N   N33       1.0  0.74370  0.64342  0.95012  1.0000
  N   N34       1.0  0.25630  0.14342  0.54988  1.0000
  N   N35       1.0  0.24370  0.85658  0.04988  1.0000
  N   N36       1.0  0.75630  0.35658  0.45012  1.0000
  N   N37       1.0  0.49370  0.20012  0.60658  1.0000
  N   N38       1.0  0.00630  0.79988  0.10658  1.0000
  N   N39       1.0  0.99370  0.29988  0.39342  1.0000
  N   N40       1.0  0.50630  0.70012  0.89342  1.0000
  N   N41       1.0  0.70012  0.89342  0.50630  1.0000
  N   N42       1.0  0.29988  0.39342  0.99370  1.0000
  N   N43       1.0  0.79988  0.10658  0.00630  1.0000
  N   N44       1.0  0.20012  0.60658  0.49370  1.0000
  N   N45       1.0  0.39342  0.99370  0.29988  1.0000
  N   N46       1.0  0.89342  0.50630  0.70012  1.0000
  N   N47       1.0  0.60658  0.49370  0.20012  1.0000
  N   N48       1.0  0.10658  0.00630  0.79988  1.0000
  N   N49       1.0  0.54988  0.75630  0.85658  1.0000
  N   N50       1.0  0.95012  0.24370  0.35658  1.0000
  N   N51       1.0  0.45012  0.25630  0.64342  1.0000
  N   N52       1.0  0.04988  0.74370  0.14342  1.0000
  N   N53       1.0  0.85658  0.54988  0.75630  1.0000
  N   N54       1.0  0.35658  0.95012  0.24370  1.0000
  N   N55       1.0  0.64342  0.45012  0.25630  1.0000
  N   N56       1.0  0.14342  0.04988  0.74370  1.0000
  N   N57       1.0  0.75630  0.85658  0.54988  1.0000
  N   N58       1.0  0.24370  0.35658  0.95012  1.0000
  N   N59       1.0  0.25630  0.64342  0.45012  1.0000
  N   N60       1.0  0.74370  0.14342  0.04988  1.0000
  N   N61       1.0  0.00630  0.29988  0.89342  1.0000
  N   N62       1.0  0.49370  0.70012  0.39342  1.0000
  N   N63       1.0  0.50630  0.20012  0.10658  1.0000
  N   N64       1.0  0.99370  0.79988  0.60658  1.0000
  N   N65       1.0  0.79988  0.60658  0.99370  1.0000
  N   N66       1.0  0.20012  0.10658  0.50630  1.0000
  N   N67       1.0  0.70012  0.39342  0.49370  1.0000
  N   N68       1.0  0.29988  0.89342  0.00630  1.0000
  N   N69       1.0  0.10658  0.50630  0.20012  1.0000
  N   N70       1.0  0.60658  0.99370  0.79988  1.0000
  N   N71       1.0  0.89342  0.00630  0.29988  1.0000
  N   N72       1.0  0.39342  0.49370  0.70012  1.0000
  N   N73       1.0  0.04988  0.25630  0.35658  1.0000
  N   N74       1.0  0.45012  0.74370  0.85658  1.0000
  N   N75       1.0  0.95012  0.75630  0.14342  1.0000
  N   N76       1.0  0.54988  0.24370  0.64342  1.0000
  N   N77       1.0  0.35658  0.04988  0.25630  1.0000
  N   N78       1.0  0.85658  0.45012  0.74370  1.0000
  N   N79       1.0  0.14342  0.95012  0.75630  1.0000
  N   N80       1.0  0.64342  0.54988  0.24370  1.0000
  N   N81       1.0  0.25630  0.35658  0.04988  1.0000
  N   N82       1.0  0.74370  0.85658  0.45012  1.0000
  N   N83       1.0  0.75630  0.14342  0.95012  1.0000
  N   N84       1.0  0.24370  0.64342  0.54988  1.0000
  N   N85       1.0  0.50630  0.79988  0.39342  1.0000
  N   N86       1.0  0.99370  0.20012  0.89342  1.0000
  N   N87       1.0  0.00630  0.70012  0.60658  1.0000
  N   N88       1.0  0.49370  0.29988  0.10658  1.0000
  N   N89       1.0  0.29988  0.10658  0.49370  1.0000
  N   N90       1.0  0.70012  0.60658  0.00630  1.0000
  N   N91       1.0  0.20012  0.89342  0.99370  1.0000
  N   N92       1.0  0.79988  0.39342  0.50630  1.0000
  N   N93       1.0  0.60658  0.00630  0.70012  1.0000
  N   N94       1.0  0.10658  0.49370  0.29988  1.0000
  N   N95       1.0  0.39342  0.50630  0.79988  1.0000
  N   N96       1.0  0.89342  0.99370  0.20012  1.0000
  C   C1        1.0  0.45954  0.23611  0.15833  1.0000
  C   C2        1.0  0.04046  0.76389  0.65833  1.0000
  C   C3        1.0  0.54046  0.73611  0.34167  1.0000
  C   C4        1.0  0.95954  0.26389  0.84167  1.0000
  C   C5        1.0  0.15833  0.45954  0.23611  1.0000
  C   C6        1.0  0.65833  0.04046  0.76389  1.0000
  C   C7        1.0  0.34167  0.54046  0.73611  1.0000
  C   C8        1.0  0.84167  0.95954  0.26389  1.0000
  C   C9        1.0  0.23611  0.15833  0.45954  1.0000
  C   C10       1.0  0.76389  0.65833  0.04046  1.0000
  C   C11       1.0  0.73611  0.34167  0.54046  1.0000
  C   C12       1.0  0.26389  0.84167  0.95954  1.0000
  C   C13       1.0  0.98611  0.70954  0.09167  1.0000
  C   C14       1.0  0.51389  0.29046  0.59167  1.0000
  C   C15       1.0  0.48611  0.79046  0.90833  1.0000
  C   C16       1.0  0.01389  0.20954  0.40833  1.0000
  C   C17       1.0  0.20954  0.40833  0.01389  1.0000
  C   C18       1.0  0.79046  0.90833  0.48611  1.0000
  C   C19       1.0  0.29046  0.59167  0.51389  1.0000
  C   C20       1.0  0.70954  0.09167  0.98611  1.0000
  C   C21       1.0  0.90833  0.48611  0.79046  1.0000
  C   C22       1.0  0.40833  0.01389  0.20954  1.0000
  C   C23       1.0  0.09167  0.98611  0.70954  1.0000
  C   C24       1.0  0.59167  0.51389  0.29046  1.0000
  C   C25       1.0  0.95954  0.73611  0.65833  1.0000
  C   C26       1.0  0.54046  0.26389  0.15833  1.0000
  C   C27       1.0  0.04046  0.23611  0.84167  1.0000
  C   C28       1.0  0.45954  0.76389  0.34167  1.0000
  C   C29       1.0  0.65833  0.95954  0.73611  1.0000
  C   C30       1.0  0.15833  0.54046  0.26389  1.0000
  C   C31       1.0  0.84167  0.04046  0.23611  1.0000
  C   C32       1.0  0.34167  0.45954  0.76389  1.0000
  C   C33       1.0  0.73611  0.65833  0.95954  1.0000
  C   C34       1.0  0.26389  0.15833  0.54046  1.0000
  C   C35       1.0  0.23611  0.84167  0.04046  1.0000
  C   C36       1.0  0.76389  0.34167  0.45954  1.0000
  C   C37       1.0  0.48611  0.20954  0.59167  1.0000
  C   C38       1.0  0.01389  0.79046  0.09167  1.0000
  C   C39       1.0  0.98611  0.29046  0.40833  1.0000
  C   C40       1.0  0.51389  0.70954  0.90833  1.0000
  C   C41       1.0  0.70954  0.90833  0.51389  1.0000
  C   C42       1.0  0.29046  0.40833  0.98611  1.0000
  C   C43       1.0  0.79046  0.09167  0.01389  1.0000
  C   C44       1.0  0.20954  0.59167  0.48611  1.0000
  C   C45       1.0  0.40833  0.98611  0.29046  1.0000
  C   C46       1.0  0.90833  0.51389  0.70954  1.0000
  C   C47       1.0  0.59167  0.48611  0.20954  1.0000
  C   C48       1.0  0.09167  0.01389  0.79046  1.0000
  C   C49       1.0  0.54046  0.76389  0.84167  1.0000
  C   C50       1.0  0.95954  0.23611  0.34167  1.0000
  C   C51       1.0  0.45954  0.26389  0.65833  1.0000
  C   C52       1.0  0.04046  0.73611  0.15833  1.0000
  C   C53       1.0  0.84167  0.54046  0.76389  1.0000
  C   C54       1.0  0.34167  0.95954  0.23611  1.0000
  C   C55       1.0  0.65833  0.45954  0.26389  1.0000
  C   C56       1.0  0.15833  0.04046  0.73611  1.0000
  C   C57       1.0  0.76389  0.84167  0.54046  1.0000
  C   C58       1.0  0.23611  0.34167  0.95954  1.0000
  C   C59       1.0  0.26389  0.65833  0.45954  1.0000
  C   C60       1.0  0.73611  0.15833  0.04046  1.0000
  C   C61       1.0  0.01389  0.29046  0.90833  1.0000
  C   C62       1.0  0.48611  0.70954  0.40833  1.0000
  C   C63       1.0  0.51389  0.20954  0.09167  1.0000
  C   C64       1.0  0.98611  0.79046  0.59167  1.0000
  C   C65       1.0  0.79046  0.59167  0.98611  1.0000
  C   C66       1.0  0.20954  0.09167  0.51389  1.0000
  C   C67       1.0  0.70954  0.40833  0.48611  1.0000
  C   C68       1.0  0.29046  0.90833  0.01389  1.0000
  C   C69       1.0  0.09167  0.51389  0.20954  1.0000
  C   C70       1.0  0.59167  0.98611  0.79046  1.0000
  C   C71       1.0  0.90833  0.01389  0.29046  1.0000
  C   C72       1.0  0.40833  0.48611  0.70954  1.0000
  C   C73       1.0  0.04046  0.26389  0.34167  1.0000
  C   C74       1.0  0.45954  0.73611  0.84167  1.0000
  C   C75       1.0  0.95954  0.76389  0.15833  1.0000
  C   C76       1.0  0.54046  0.23611  0.65833  1.0000
  C   C77       1.0  0.34167  0.04046  0.26389  1.0000
  C   C78       1.0  0.84167  0.45954  0.73611  1.0000
  C   C79       1.0  0.15833  0.95954  0.76389  1.0000
  C   C80       1.0  0.65833  0.54046  0.23611  1.0000
  C   C81       1.0  0.26389  0.34167  0.04046  1.0000
  C   C82       1.0  0.73611  0.84167  0.45954  1.0000
  C   C83       1.0  0.76389  0.15833  0.95954  1.0000
  C   C84       1.0  0.23611  0.65833  0.54046  1.0000
  C   C85       1.0  0.51389  0.79046  0.40833  1.0000
  C   C86       1.0  0.98611  0.20954  0.90833  1.0000
  C   C87       1.0  0.01389  0.70954  0.59167  1.0000
  C   C88       1.0  0.48611  0.29046  0.09167  1.0000
  C   C89       1.0  0.29046  0.09167  0.48611  1.0000
  C   C90       1.0  0.70954  0.59167  0.01389  1.0000
  C   C91       1.0  0.20954  0.90833  0.98611  1.0000
  C   C92       1.0  0.79046  0.40833  0.51389  1.0000
  C   C93       1.0  0.59167  0.01389  0.70954  1.0000
  C   C94       1.0  0.09167  0.48611  0.29046  1.0000
  C   C95       1.0  0.40833  0.51389  0.79046  1.0000
  C   C96       1.0  0.90833  0.98611  0.20954  1.0000
  H   H1        1.0  0.45660  0.22330  0.16130  1.0000
  H   H2        1.0  0.04340  0.77670  0.66130  1.0000
  H   H3        1.0  0.54340  0.72330  0.33870  1.0000
  H   H4        1.0  0.95660  0.27670  0.83870  1.0000
  H   H5        1.0  0.16130  0.45660  0.22330  1.0000
  H   H6        1.0  0.66130  0.04340  0.77670  1.0000
  H   H7        1.0  0.33870  0.54340  0.72330  1.0000
  H   H8        1.0  0.83870  0.95660  0.27670  1.0000
  H   H9        1.0  0.22330  0.16130  0.45660  1.0000
  H   H10       1.0  0.77670  0.66130  0.04340  1.0000
  H   H11       1.0  0.72330  0.33870  0.54340  1.0000
  H   H12       1.0  0.27670  0.83870  0.95660  1.0000
  H   H13       1.0  0.97330  0.70660  0.08870  1.0000
  H   H14       1.0  0.52670  0.29340  0.58870  1.0000
  H   H15       1.0  0.47330  0.79340  0.91130  1.0000
  H   H16       1.0  0.02670  0.20660  0.41130  1.0000
  H   H17       1.0  0.20660  0.41130  0.02670  1.0000
  H   H18       1.0  0.79340  0.91130  0.47330  1.0000
  H   H19       1.0  0.29340  0.58870  0.52670  1.0000
  H   H20       1.0  0.70660  0.08870  0.97330  1.0000
  H   H21       1.0  0.91130  0.47330  0.79340  1.0000
  H   H22       1.0  0.41130  0.02670  0.20660  1.0000
  H   H23       1.0  0.08870  0.97330  0.70660  1.0000
  H   H24       1.0  0.58870  0.52670  0.29340  1.0000
  H   H25       1.0  0.95660  0.72330  0.66130  1.0000
  H   H26       1.0  0.54340  0.27670  0.16130  1.0000
  H   H27       1.0  0.04340  0.22330  0.83870  1.0000
  H   H28       1.0  0.45660  0.77670  0.33870  1.0000
  H   H29       1.0  0.66130  0.95660  0.72330  1.0000
  H   H30       1.0  0.16130  0.54340  0.27670  1.0000
  H   H31       1.0  0.83870  0.04340  0.22330  1.0000
  H   H32       1.0  0.33870  0.45660  0.77670  1.0000
  H   H33       1.0  0.72330  0.66130  0.95660  1.0000
  H   H34       1.0  0.27670  0.16130  0.54340  1.0000
  H   H35       1.0  0.22330  0.83870  0.04340  1.0000
  H   H36       1.0  0.77670  0.33870  0.45660  1.0000
  H   H37       1.0  0.47330  0.20660  0.58870  1.0000
  H   H38       1.0  0.02670  0.79340  0.08870  1.0000
  H   H39       1.0  0.97330  0.29340  0.41130  1.0000
  H   H40       1.0  0.52670  0.70660  0.91130  1.0000
  H   H41       1.0  0.70660  0.91130  0.52670  1.0000
  H   H42       1.0  0.29340  0.41130  0.97330  1.0000
  H   H43       1.0  0.79340  0.08870  0.02670  1.0000
  H   H44       1.0  0.20660  0.58870  0.47330  1.0000
  H   H45       1.0  0.41130  0.97330  0.29340  1.0000
  H   H46       1.0  0.91130  0.52670  0.70660  1.0000
  H   H47       1.0  0.58870  0.47330  0.20660  1.0000
  H   H48       1.0  0.08870  0.02670  0.79340  1.0000
  H   H49       1.0  0.54340  0.77670  0.83870  1.0000
  H   H50       1.0  0.95660  0.22330  0.33870  1.0000
  H   H51       1.0  0.45660  0.27670  0.66130  1.0000
  H   H52       1.0  0.04340  0.72330  0.16130  1.0000
  H   H53       1.0  0.83870  0.54340  0.77670  1.0000
  H   H54       1.0  0.33870  0.95660  0.22330  1.0000
  H   H55       1.0  0.66130  0.45660  0.27670  1.0000
  H   H56       1.0  0.16130  0.04340  0.72330  1.0000
  H   H57       1.0  0.77670  0.83870  0.54340  1.0000
  H   H58       1.0  0.22330  0.33870  0.95660  1.0000
  H   H59       1.0  0.27670  0.66130  0.45660  1.0000
  H   H60       1.0  0.72330  0.16130  0.04340  1.0000
  H   H61       1.0  0.02670  0.29340  0.91130  1.0000
  H   H62       1.0  0.47330  0.70660  0.41130  1.0000
  H   H63       1.0  0.52670  0.20660  0.08870  1.0000
  H   H64       1.0  0.97330  0.79340  0.58870  1.0000
  H   H65       1.0  0.79340  0.58870  0.97330  1.0000
  H   H66       1.0  0.20660  0.08870  0.52670  1.0000
  H   H67       1.0  0.70660  0.41130  0.47330  1.0000
  H   H68       1.0  0.29340  0.91130  0.02670  1.0000
  H   H69       1.0  0.08870  0.52670  0.20660  1.0000
  H   H70       1.0  0.58870  0.97330  0.79340  1.0000
  H   H71       1.0  0.91130  0.02670  0.29340  1.0000
  H   H72       1.0  0.41130  0.47330  0.70660  1.0000
  H   H73       1.0  0.04340  0.27670  0.33870  1.0000
  H   H74       1.0  0.45660  0.72330  0.83870  1.0000
  H   H75       1.0  0.95660  0.77670  0.16130  1.0000
  H   H76       1.0  0.54340  0.22330  0.66130  1.0000
  H   H77       1.0  0.33870  0.04340  0.27670  1.0000
  H   H78       1.0  0.83870  0.45660  0.72330  1.0000
  H   H79       1.0  0.16130  0.95660  0.77670  1.0000
  H   H80       1.0  0.66130  0.54340  0.22330  1.0000
  H   H81       1.0  0.27670  0.33870  0.04340  1.0000
  H   H82       1.0  0.72330  0.83870  0.45660  1.0000
  H   H83       1.0  0.77670  0.16130  0.95660  1.0000
  H   H84       1.0  0.22330  0.66130  0.54340  1.0000
  H   H85       1.0  0.52670  0.79340  0.41130  1.0000
  H   H86       1.0  0.97330  0.20660  0.91130  1.0000
  H   H87       1.0  0.02670  0.70660  0.58870  1.0000
  H   H88       1.0  0.47330  0.29340  0.08870  1.0000
  H   H89       1.0  0.29340  0.08870  0.47330  1.0000
  H   H90       1.0  0.70660  0.58870  0.02670  1.0000
  H   H91       1.0  0.20660  0.91130  0.97330  1.0000
  H   H92       1.0  0.79340  0.41130  0.52670  1.0000
  H   H93       1.0  0.58870  0.02670  0.70660  1.0000
  H   H94       1.0  0.08870  0.47330  0.29340  1.0000
  H   H95       1.0  0.41130  0.52670  0.79340  1.0000
  H   H96       1.0  0.91130  0.97330  0.20660  1.0000
  N   N97       1.0  0.47283  0.24486  0.16962  1.0000
  N   N98       1.0  0.02717  0.75514  0.66962  1.0000
  N   N99       1.0  0.52717  0.74486  0.33038  1.0000
  N   N100      1.0  0.97283  0.25514  0.83038  1.0000
  N   N101      1.0  0.16962  0.47283  0.24486  1.0000
  N   N102      1.0  0.66962  0.02717  0.75514  1.0000
  N   N103      1.0  0.33038  0.52717  0.74486  1.0000
  N   N104      1.0  0.83038  0.97283  0.25514  1.0000
  N   N105      1.0  0.24486  0.16962  0.47283  1.0000
  N   N106      1.0  0.75514  0.66962  0.02717  1.0000
  N   N107      1.0  0.74486  0.33038  0.52717  1.0000
  N   N108      1.0  0.25514  0.83038  0.97283  1.0000
  N   N109      1.0  0.99486  0.72283  0.08038  1.0000
  N   N110      1.0  0.50514  0.27717  0.58038  1.0000
  N   N111      1.0  0.49486  0.77717  0.91962  1.0000
  N   N112      1.0  0.00514  0.22283  0.41962  1.0000
  N   N113      1.0  0.22283  0.41962  0.00514  1.0000
  N   N114      1.0  0.77717  0.91962  0.49486  1.0000
  N   N115      1.0  0.27717  0.58038  0.50514  1.0000
  N   N116      1.0  0.72283  0.08038  0.99486  1.0000
  N   N117      1.0  0.91962  0.49486  0.77717  1.0000
  N   N118      1.0  0.41962  0.00514  0.22283  1.0000
  N   N119      1.0  0.08038  0.99486  0.72283  1.0000
  N   N120      1.0  0.58038  0.50514  0.27717  1.0000
  N   N121      1.0  0.97283  0.74486  0.66962  1.0000
  N   N122      1.0  0.52717  0.25514  0.16962  1.0000
  N   N123      1.0  0.02717  0.24486  0.83038  1.0000
  N   N124      1.0  0.47283  0.75514  0.33038  1.0000
  N   N125      1.0  0.66962  0.97283  0.74486  1.0000
  N   N126      1.0  0.16962  0.52717  0.25514  1.0000
  N   N127      1.0  0.83038  0.02717  0.24486  1.0000
  N   N128      1.0  0.33038  0.47283  0.75514  1.0000
  N   N129      1.0  0.74486  0.66962  0.97283  1.0000
  N   N130      1.0  0.25514  0.16962  0.52717  1.0000
  N   N131      1.0  0.24486  0.83038  0.02717  1.0000
  N   N132      1.0  0.75514  0.33038  0.47283  1.0000
  N   N133      1.0  0.49486  0.22283  0.58038  1.0000
  N   N134      1.0  0.00514  0.77717  0.08038  1.0000
  N   N135      1.0  0.99486  0.27717  0.41962  1.0000
  N   N136      1.0  0.50514  0.72283  0.91962  1.0000
  N   N137      1.0  0.72283  0.91962  0.50514  1.0000
  N   N138      1.0  0.27717  0.41962  0.99486  1.0000
  N   N139      1.0  0.77717  0.08038  0.00514  1.0000
  N   N140      1.0  0.22283  0.58038  0.49486  1.0000
  N   N141      1.0  0.41962  0.99486  0.27717  1.0000
  N   N142      1.0  0.91962  0.50514  0.72283  1.0000
  N   N143      1.0  0.58038  0.49486  0.22283  1.0000
  N   N144      1.0  0.08038  0.00514  0.77717  1.0000
  N   N145      1.0  0.52717  0.75514  0.83038  1.0000
  N   N146      1.0  0.97283  0.24486  0.33038  1.0000
  N   N147      1.0  0.47283  0.25514  0.66962  1.0000
  N   N148      1.0  0.02717  0.74486  0.16962  1.0000
  N   N149      1.0  0.83038  0.52717  0.75514  1.0000
  N   N150      1.0  0.33038  0.97283  0.24486  1.0000
  N   N151      1.0  0.66962  0.47283  0.25514  1.0000
  N   N152      1.0  0.16962  0.02717  0.74486  1.0000
  N   N153      1.0  0.75514  0.83038  0.52717  1.0000
  N   N154      1.0  0.24486  0.33038  0.97283  1.0000
  N   N155      1.0  0.25514  0.66962  0.47283  1.0000
  N   N156      1.0  0.74486  0.16962  0.02717  1.0000
  N   N157      1.0  0.00514  0.27717  0.91962  1.0000
  N   N158      1.0  0.49486  0.72283  0.41962  1.0000
  N   N159      1.0  0.50514  0.22283  0.08038  1.0000
  N   N160      1.0  0.99486  0.77717  0.58038  1.0000
  N   N161      1.0  0.77717  0.58038  0.99486  1.0000
  N   N162      1.0  0.22283  0.08038  0.50514  1.0000
  N   N163      1.0  0.72283  0.41962  0.49486  1.0000
  N   N164      1.0  0.27717  0.91962  0.00514  1.0000
  N   N165      1.0  0.08038  0.50514  0.22283  1.0000
  N   N166      1.0  0.58038  0.99486  0.77717  1.0000
  N   N167      1.0  0.91962  0.00514  0.27717  1.0000
  N   N168      1.0  0.41962  0.49486  0.72283  1.0000
  N   N169      1.0  0.02717  0.25514  0.33038  1.0000
  N   N170      1.0  0.47283  0.74486  0.83038  1.0000
  N   N171      1.0  0.97283  0.75514  0.16962  1.0000
  N   N172      1.0  0.52717  0.24486  0.66962  1.0000
  N   N173      1.0  0.33038  0.02717  0.25514  1.0000
  N   N174      1.0  0.83038  0.47283  0.74486  1.0000
  N   N175      1.0  0.16962  0.97283  0.75514  1.0000
  N   N176      1.0  0.66962  0.52717  0.24486  1.0000
  N   N177      1.0  0.25514  0.33038  0.02717  1.0000
  N   N178      1.0  0.74486  0.83038  0.47283  1.0000
  N   N179      1.0  0.75514  0.16962  0.97283  1.0000
  N   N180      1.0  0.24486  0.66962  0.52717  1.0000
  N   N181      1.0  0.50514  0.77717  0.41962  1.0000
  N   N182      1.0  0.99486  0.22283  0.91962  1.0000
  N   N183      1.0  0.00514  0.72283  0.58038  1.0000
  N   N184      1.0  0.49486  0.27717  0.08038  1.0000
  N   N185      1.0  0.27717  0.08038  0.49486  1.0000
  N   N186      1.0  0.72283  0.58038  0.00514  1.0000
  N   N187      1.0  0.22283  0.91962  0.99486  1.0000
  N   N188      1.0  0.77717  0.41962  0.50514  1.0000
  N   N189      1.0  0.58038  0.00514  0.72283  1.0000
  N   N190      1.0  0.08038  0.49486  0.27717  1.0000
  N   N191      1.0  0.41962  0.50514  0.77717  1.0000
  N   N192      1.0  0.91962  0.99486  0.22283  1.0000
  C   C97       1.0  0.47555  0.26318  0.16400  1.0000
  C   C98       1.0  0.02445  0.73682  0.66400  1.0000
  C   C99       1.0  0.52445  0.76318  0.33600  1.0000
  C   C100      1.0  0.97555  0.23682  0.83600  1.0000
  C   C101      1.0  0.16400  0.47555  0.26318  1.0000
  C   C102      1.0  0.66400  0.02445  0.73682  1.0000
  C   C103      1.0  0.33600  0.52445  0.76318  1.0000
  C   C104      1.0  0.83600  0.97555  0.23682  1.0000
  C   C105      1.0  0.26318  0.16400  0.47555  1.0000
  C   C106      1.0  0.73682  0.66400  0.02445  1.0000
  C   C107      1.0  0.76318  0.33600  0.52445  1.0000
  C   C108      1.0  0.23682  0.83600  0.97555  1.0000
  C   C109      1.0  0.01318  0.72555  0.08600  1.0000
  C   C110      1.0  0.48682  0.27445  0.58600  1.0000
  C   C111      1.0  0.51318  0.77445  0.91400  1.0000
  C   C112      1.0  0.98682  0.22555  0.41400  1.0000
  C   C113      1.0  0.22555  0.41400  0.98682  1.0000
  C   C114      1.0  0.77445  0.91400  0.51318  1.0000
  C   C115      1.0  0.27445  0.58600  0.48682  1.0000
  C   C116      1.0  0.72555  0.08600  0.01318  1.0000
  C   C117      1.0  0.91400  0.51318  0.77445  1.0000
  C   C118      1.0  0.41400  0.98682  0.22555  1.0000
  C   C119      1.0  0.08600  0.01318  0.72555  1.0000
  C   C120      1.0  0.58600  0.48682  0.27445  1.0000
  C   C121      1.0  0.97555  0.76318  0.66400  1.0000
  C   C122      1.0  0.52445  0.23682  0.16400  1.0000
  C   C123      1.0  0.02445  0.26318  0.83600  1.0000
  C   C124      1.0  0.47555  0.73682  0.33600  1.0000
  C   C125      1.0  0.66400  0.97555  0.76318  1.0000
  C   C126      1.0  0.16400  0.52445  0.23682  1.0000
  C   C127      1.0  0.83600  0.02445  0.26318  1.0000
  C   C128      1.0  0.33600  0.47555  0.73682  1.0000
  C   C129      1.0  0.76318  0.66400  0.97555  1.0000
  C   C130      1.0  0.23682  0.16400  0.52445  1.0000
  C   C131      1.0  0.26318  0.83600  0.02445  1.0000
  C   C132      1.0  0.73682  0.33600  0.47555  1.0000
  C   C133      1.0  0.51318  0.22555  0.58600  1.0000
  C   C134      1.0  0.98682  0.77445  0.08600  1.0000
  C   C135      1.0  0.01318  0.27445  0.41400  1.0000
  C   C136      1.0  0.48682  0.72555  0.91400  1.0000
  C   C137      1.0  0.72555  0.91400  0.48682  1.0000
  C   C138      1.0  0.27445  0.41400  0.01318  1.0000
  C   C139      1.0  0.77445  0.08600  0.98682  1.0000
  C   C140      1.0  0.22555  0.58600  0.51318  1.0000
  C   C141      1.0  0.41400  0.01318  0.27445  1.0000
  C   C142      1.0  0.91400  0.48682  0.72555  1.0000
  C   C143      1.0  0.58600  0.51318  0.22555  1.0000
  C   C144      1.0  0.08600  0.98682  0.77445  1.0000
  C   C145      1.0  0.52445  0.73682  0.83600  1.0000
  C   C146      1.0  0.97555  0.26318  0.33600  1.0000
  C   C147      1.0  0.47555  0.23682  0.66400  1.0000
  C   C148      1.0  0.02445  0.76318  0.16400  1.0000
  C   C149      1.0  0.83600  0.52445  0.73682  1.0000
  C   C150      1.0  0.33600  0.97555  0.26318  1.0000
  C   C151      1.0  0.66400  0.47555  0.23682  1.0000
  C   C152      1.0  0.16400  0.02445  0.76318  1.0000
  C   C153      1.0  0.73682  0.83600  0.52445  1.0000
  C   C154      1.0  0.26318  0.33600  0.97555  1.0000
  C   C155      1.0  0.23682  0.66400  0.47555  1.0000
  C   C156      1.0  0.76318  0.16400  0.02445  1.0000
  C   C157      1.0  0.98682  0.27445  0.91400  1.0000
  C   C158      1.0  0.51318  0.72555  0.41400  1.0000
  C   C159      1.0  0.48682  0.22555  0.08600  1.0000
  C   C160      1.0  0.01318  0.77445  0.58600  1.0000
  C   C161      1.0  0.77445  0.58600  0.01318  1.0000
  C   C162      1.0  0.22555  0.08600  0.48682  1.0000
  C   C163      1.0  0.72555  0.41400  0.51318  1.0000
  C   C164      1.0  0.27445  0.91400  0.98682  1.0000
  C   C165      1.0  0.08600  0.48682  0.22555  1.0000
  C   C166      1.0  0.58600  0.01318  0.77445  1.0000
  C   C167      1.0  0.91400  0.98682  0.27445  1.0000
  C   C168      1.0  0.41400  0.51318  0.72555  1.0000
  C   C169      1.0  0.02445  0.23682  0.33600  1.0000
  C   C170      1.0  0.47555  0.76318  0.83600  1.0000
  C   C171      1.0  0.97555  0.73682  0.16400  1.0000
  C   C172      1.0  0.52445  0.26318  0.66400  1.0000
  C   C173      1.0  0.33600  0.02445  0.23682  1.0000
  C   C174      1.0  0.83600  0.47555  0.76318  1.0000
  C   C175      1.0  0.16400  0.97555  0.73682  1.0000
  C   C176      1.0  0.66400  0.52445  0.26318  1.0000
  C   C177      1.0  0.23682  0.33600  0.02445  1.0000
  C   C178      1.0  0.76318  0.83600  0.47555  1.0000
  C   C179      1.0  0.73682  0.16400  0.97555  1.0000
  C   C180      1.0  0.26318  0.66400  0.52445  1.0000
  C   C181      1.0  0.48682  0.77445  0.41400  1.0000
  C   C182      1.0  0.01318  0.22555  0.91400  1.0000
  C   C183      1.0  0.98682  0.72555  0.58600  1.0000
  C   C184      1.0  0.51318  0.27445  0.08600  1.0000
  C   C185      1.0  0.27445  0.08600  0.51318  1.0000
  C   C186      1.0  0.72555  0.58600  0.98682  1.0000
  C   C187      1.0  0.22555  0.91400  0.01318  1.0000
  C   C188      1.0  0.77445  0.41400  0.48682  1.0000
  C   C189      1.0  0.58600  0.98682  0.72555  1.0000
  C   C190      1.0  0.08600  0.51318  0.27445  1.0000
  C   C191      1.0  0.41400  0.48682  0.77445  1.0000
  C   C192      1.0  0.91400  0.01318  0.22555  1.0000
  C   C193      1.0  0.46633  0.27318  0.14825  1.0000
  C   C194      1.0  0.03367  0.72682  0.64825  1.0000
  C   C195      1.0  0.53367  0.77318  0.35175  1.0000
  C   C196      1.0  0.96633  0.22682  0.85175  1.0000
  C   C197      1.0  0.14825  0.46633  0.27318  1.0000
  C   C198      1.0  0.64825  0.03367  0.72682  1.0000
  C   C199      1.0  0.35175  0.53367  0.77318  1.0000
  C   C200      1.0  0.85175  0.96633  0.22682  1.0000
  C   C201      1.0  0.27318  0.14825  0.46633  1.0000
  C   C202      1.0  0.72682  0.64825  0.03367  1.0000
  C   C203      1.0  0.77318  0.35175  0.53367  1.0000
  C   C204      1.0  0.22682  0.85175  0.96633  1.0000
  C   C205      1.0  0.02318  0.71633  0.10175  1.0000
  C   C206      1.0  0.47682  0.28367  0.60175  1.0000
  C   C207      1.0  0.52318  0.78367  0.89825  1.0000
  C   C208      1.0  0.97682  0.21633  0.39825  1.0000
  C   C209      1.0  0.21633  0.39825  0.97682  1.0000
  C   C210      1.0  0.78367  0.89825  0.52318  1.0000
  C   C211      1.0  0.28367  0.60175  0.47682  1.0000
  C   C212      1.0  0.71633  0.10175  0.02318  1.0000
  C   C213      1.0  0.89825  0.52318  0.78367  1.0000
  C   C214      1.0  0.39825  0.97682  0.21633  1.0000
  C   C215      1.0  0.10175  0.02318  0.71633  1.0000
  C   C216      1.0  0.60175  0.47682  0.28367  1.0000
  C   C217      1.0  0.96633  0.77318  0.64825  1.0000
  C   C218      1.0  0.53367  0.22682  0.14825  1.0000
  C   C219      1.0  0.03367  0.27318  0.85175  1.0000
  C   C220      1.0  0.46633  0.72682  0.35175  1.0000
  C   C221      1.0  0.64825  0.96633  0.77318  1.0000
  C   C222      1.0  0.14825  0.53367  0.22682  1.0000
  C   C223      1.0  0.85175  0.03367  0.27318  1.0000
  C   C224      1.0  0.35175  0.46633  0.72682  1.0000
  C   C225      1.0  0.77318  0.64825  0.96633  1.0000
  C   C226      1.0  0.22682  0.14825  0.53367  1.0000
  C   C227      1.0  0.27318  0.85175  0.03367  1.0000
  C   C228      1.0  0.72682  0.35175  0.46633  1.0000
  C   C229      1.0  0.52318  0.21633  0.60175  1.0000
  C   C230      1.0  0.97682  0.78367  0.10175  1.0000
  C   C231      1.0  0.02318  0.28367  0.39825  1.0000
  C   C232      1.0  0.47682  0.71633  0.89825  1.0000
  C   C233      1.0  0.71633  0.89825  0.47682  1.0000
  C   C234      1.0  0.28367  0.39825  0.02318  1.0000
  C   C235      1.0  0.78367  0.10175  0.97682  1.0000
  C   C236      1.0  0.21633  0.60175  0.52318  1.0000
  C   C237      1.0  0.39825  0.02318  0.28367  1.0000
  C   C238      1.0  0.89825  0.47682  0.71633  1.0000
  C   C239      1.0  0.60175  0.52318  0.21633  1.0000
  C   C240      1.0  0.10175  0.97682  0.78367  1.0000
  C   C241      1.0  0.53367  0.72682  0.85175  1.0000
  C   C242      1.0  0.96633  0.27318  0.35175  1.0000
  C   C243      1.0  0.46633  0.22682  0.64825  1.0000
  C   C244      1.0  0.03367  0.77318  0.14825  1.0000
  C   C245      1.0  0.85175  0.53367  0.72682  1.0000
  C   C246      1.0  0.35175  0.96633  0.27318  1.0000
  C   C247      1.0  0.64825  0.46633  0.22682  1.0000
  C   C248      1.0  0.14825  0.03367  0.77318  1.0000
  C   C249      1.0  0.72682  0.85175  0.53367  1.0000
  C   C250      1.0  0.27318  0.35175  0.96633  1.0000
  C   C251      1.0  0.22682  0.64825  0.46633  1.0000
  C   C252      1.0  0.77318  0.14825  0.03367  1.0000
  C   C253      1.0  0.97682  0.28367  0.89825  1.0000
  C   C254      1.0  0.52318  0.71633  0.39825  1.0000
  C   C255      1.0  0.47682  0.21633  0.10175  1.0000
  C   C256      1.0  0.02318  0.78367  0.60175  1.0000
  C   C257      1.0  0.78367  0.60175  0.02318  1.0000
  C   C258      1.0  0.21633  0.10175  0.47682  1.0000
  C   C259      1.0  0.71633  0.39825  0.52318  1.0000
  C   C260      1.0  0.28367  0.89825  0.97682  1.0000
  C   C261      1.0  0.10175  0.47682  0.21633  1.0000
  C   C262      1.0  0.60175  0.02318  0.78367  1.0000
  C   C263      1.0  0.89825  0.97682  0.28367  1.0000
  C   C264      1.0  0.39825  0.52318  0.71633  1.0000
  C   C265      1.0  0.03367  0.22682  0.35175  1.0000
  C   C266      1.0  0.46633  0.77318  0.85175  1.0000
  C   C267      1.0  0.96633  0.72682  0.14825  1.0000
  C   C268      1.0  0.53367  0.27318  0.64825  1.0000
  C   C269      1.0  0.35175  0.03367  0.22682  1.0000
  C   C270      1.0  0.85175  0.46633  0.77318  1.0000
  C   C271      1.0  0.14825  0.96633  0.72682  1.0000
  C   C272      1.0  0.64825  0.53367  0.27318  1.0000
  C   C273      1.0  0.22682  0.35175  0.03367  1.0000
  C   C274      1.0  0.77318  0.85175  0.46633  1.0000
  C   C275      1.0  0.72682  0.14825  0.96633  1.0000
  C   C276      1.0  0.27318  0.64825  0.53367  1.0000
  C   C277      1.0  0.47682  0.78367  0.39825  1.0000
  C   C278      1.0  0.02318  0.21633  0.89825  1.0000
  C   C279      1.0  0.97682  0.71633  0.60175  1.0000
  C   C280      1.0  0.52318  0.28367  0.10175  1.0000
  C   C281      1.0  0.28367  0.10175  0.52318  1.0000
  C   C282      1.0  0.71633  0.60175  0.97682  1.0000
  C   C283      1.0  0.21633  0.89825  0.02318  1.0000
  C   C284      1.0  0.78367  0.39825  0.47682  1.0000
  C   C285      1.0  0.60175  0.97682  0.71633  1.0000
  C   C286      1.0  0.10175  0.52318  0.28367  1.0000
  C   C287      1.0  0.39825  0.47682  0.78367  1.0000
  C   C288      1.0  0.89825  0.02318  0.21633  1.0000
  C   C289      1.0  0.45317  0.26317  0.13844  1.0000
  C   C290      1.0  0.04683  0.73683  0.63844  1.0000
  C   C291      1.0  0.54683  0.76317  0.36156  1.0000
  C   C292      1.0  0.95317  0.23683  0.86156  1.0000
  C   C293      1.0  0.13844  0.45317  0.26317  1.0000
  C   C294      1.0  0.63844  0.04683  0.73683  1.0000
  C   C295      1.0  0.36156  0.54683  0.76317  1.0000
  C   C296      1.0  0.86156  0.95317  0.23683  1.0000
  C   C297      1.0  0.26317  0.13844  0.45317  1.0000
  C   C298      1.0  0.73683  0.63844  0.04683  1.0000
  C   C299      1.0  0.76317  0.36156  0.54683  1.0000
  C   C300      1.0  0.23683  0.86156  0.95317  1.0000
  C   C301      1.0  0.01317  0.70317  0.11156  1.0000
  C   C302      1.0  0.48683  0.29683  0.61156  1.0000
  C   C303      1.0  0.51317  0.79683  0.88844  1.0000
  C   C304      1.0  0.98683  0.20317  0.38844  1.0000
  C   C305      1.0  0.20317  0.38844  0.98683  1.0000
  C   C306      1.0  0.79683  0.88844  0.51317  1.0000
  C   C307      1.0  0.29683  0.61156  0.48683  1.0000
  C   C308      1.0  0.70317  0.11156  0.01317  1.0000
  C   C309      1.0  0.88844  0.51317  0.79683  1.0000
  C   C310      1.0  0.38844  0.98683  0.20317  1.0000
  C   C311      1.0  0.11156  0.01317  0.70317  1.0000
  C   C312      1.0  0.61156  0.48683  0.29683  1.0000
  C   C313      1.0  0.95317  0.76317  0.63844  1.0000
  C   C314      1.0  0.54683  0.23683  0.13844  1.0000
  C   C315      1.0  0.04683  0.26317  0.86156  1.0000
  C   C316      1.0  0.45317  0.73683  0.36156  1.0000
  C   C317      1.0  0.63844  0.95317  0.76317  1.0000
  C   C318      1.0  0.13844  0.54683  0.23683  1.0000
  C   C319      1.0  0.86156  0.04683  0.26317  1.0000
  C   C320      1.0  0.36156  0.45317  0.73683  1.0000
  C   C321      1.0  0.76317  0.63844  0.95317  1.0000
  C   C322      1.0  0.23683  0.13844  0.54683  1.0000
  C   C323      1.0  0.26317  0.86156  0.04683  1.0000
  C   C324      1.0  0.73683  0.36156  0.45317  1.0000
  C   C325      1.0  0.51317  0.20317  0.61156  1.0000
  C   C326      1.0  0.98683  0.79683  0.11156  1.0000
  C   C327      1.0  0.01317  0.29683  0.38844  1.0000
  C   C328      1.0  0.48683  0.70317  0.88844  1.0000
  C   C329      1.0  0.70317  0.88844  0.48683  1.0000
  C   C330      1.0  0.29683  0.38844  0.01317  1.0000
  C   C331      1.0  0.79683  0.11156  0.98683  1.0000
  C   C332      1.0  0.20317  0.61156  0.51317  1.0000
  C   C333      1.0  0.38844  0.01317  0.29683  1.0000
  C   C334      1.0  0.88844  0.48683  0.70317  1.0000
  C   C335      1.0  0.61156  0.51317  0.20317  1.0000
  C   C336      1.0  0.11156  0.98683  0.79683  1.0000
  C   C337      1.0  0.54683  0.73683  0.86156  1.0000
  C   C338      1.0  0.95317  0.26317  0.36156  1.0000
  C   C339      1.0  0.45317  0.23683  0.63844  1.0000
  C   C340      1.0  0.04683  0.76317  0.13844  1.0000
  C   C341      1.0  0.86156  0.54683  0.73683  1.0000
  C   C342      1.0  0.36156  0.95317  0.26317  1.0000
  C   C343      1.0  0.63844  0.45317  0.23683  1.0000
  C   C344      1.0  0.13844  0.04683  0.76317  1.0000
  C   C345      1.0  0.73683  0.86156  0.54683  1.0000
  C   C346      1.0  0.26317  0.36156  0.95317  1.0000
  C   C347      1.0  0.23683  0.63844  0.45317  1.0000
  C   C348      1.0  0.76317  0.13844  0.04683  1.0000
  C   C349      1.0  0.98683  0.29683  0.88844  1.0000
  C   C350      1.0  0.51317  0.70317  0.38844  1.0000
  C   C351      1.0  0.48683  0.20317  0.11156  1.0000
  C   C352      1.0  0.01317  0.79683  0.61156  1.0000
  C   C353      1.0  0.79683  0.61156  0.01317  1.0000
  C   C354      1.0  0.20317  0.11156  0.48683  1.0000
  C   C355      1.0  0.70317  0.38844  0.51317  1.0000
  C   C356      1.0  0.29683  0.88844  0.98683  1.0000
  C   C357      1.0  0.11156  0.48683  0.20317  1.0000
  C   C358      1.0  0.61156  0.01317  0.79683  1.0000
  C   C359      1.0  0.88844  0.98683  0.29683  1.0000
  C   C360      1.0  0.38844  0.51317  0.70317  1.0000
  C   C361      1.0  0.04683  0.23683  0.36156  1.0000
  C   C362      1.0  0.45317  0.76317  0.86156  1.0000
  C   C363      1.0  0.95317  0.73683  0.13844  1.0000
  C   C364      1.0  0.54683  0.26317  0.63844  1.0000
  C   C365      1.0  0.36156  0.04683  0.23683  1.0000
  C   C366      1.0  0.86156  0.45317  0.76317  1.0000
  C   C367      1.0  0.13844  0.95317  0.73683  1.0000
  C   C368      1.0  0.63844  0.54683  0.26317  1.0000
  C   C369      1.0  0.23683  0.36156  0.04683  1.0000
  C   C370      1.0  0.76317  0.86156  0.45317  1.0000
  C   C371      1.0  0.73683  0.13844  0.95317  1.0000
  C   C372      1.0  0.26317  0.63844  0.54683  1.0000
  C   C373      1.0  0.48683  0.79683  0.38844  1.0000
  C   C374      1.0  0.01317  0.20317  0.88844  1.0000
  C   C375      1.0  0.98683  0.70317  0.61156  1.0000
  C   C376      1.0  0.51317  0.29683  0.11156  1.0000
  C   C377      1.0  0.29683  0.11156  0.51317  1.0000
  C   C378      1.0  0.70317  0.61156  0.98683  1.0000
  C   C379      1.0  0.20317  0.88844  0.01317  1.0000
  C   C380      1.0  0.79683  0.38844  0.48683  1.0000
  C   C381      1.0  0.61156  0.98683  0.70317  1.0000
  C   C382      1.0  0.11156  0.51317  0.29683  1.0000
  C   C383      1.0  0.38844  0.48683  0.79683  1.0000
  C   C384      1.0  0.88844  0.01317  0.20317  1.0000
  N   N193      1.0  0.47379  0.29166  0.14588  1.0000
  N   N194      1.0  0.02621  0.70834  0.64588  1.0000
  N   N195      1.0  0.52621  0.79166  0.35412  1.0000
  N   N196      1.0  0.97379  0.20834  0.85412  1.0000
  N   N197      1.0  0.14588  0.47379  0.29166  1.0000
  N   N198      1.0  0.64588  0.02621  0.70834  1.0000
  N   N199      1.0  0.35412  0.52621  0.79166  1.0000
  N   N200      1.0  0.85412  0.97379  0.20834  1.0000
  N   N201      1.0  0.29166  0.14588  0.47379  1.0000
  N   N202      1.0  0.70834  0.64588  0.02621  1.0000
  N   N203      1.0  0.79166  0.35412  0.52621  1.0000
  N   N204      1.0  0.20834  0.85412  0.97379  1.0000
  N   N205      1.0  0.04166  0.72379  0.10412  1.0000
  N   N206      1.0  0.45834  0.27621  0.60412  1.0000
  N   N207      1.0  0.54166  0.77621  0.89588  1.0000
  N   N208      1.0  0.95834  0.22379  0.39588  1.0000
  N   N209      1.0  0.22379  0.39588  0.95834  1.0000
  N   N210      1.0  0.77621  0.89588  0.54166  1.0000
  N   N211      1.0  0.27621  0.60412  0.45834  1.0000
  N   N212      1.0  0.72379  0.10412  0.04166  1.0000
  N   N213      1.0  0.89588  0.54166  0.77621  1.0000
  N   N214      1.0  0.39588  0.95834  0.22379  1.0000
  N   N215      1.0  0.10412  0.04166  0.72379  1.0000
  N   N216      1.0  0.60412  0.45834  0.27621  1.0000
  N   N217      1.0  0.97379  0.79166  0.64588  1.0000
  N   N218      1.0  0.52621  0.20834  0.14588  1.0000
  N   N219      1.0  0.02621  0.29166  0.85412  1.0000
  N   N220      1.0  0.47379  0.70834  0.35412  1.0000
  N   N221      1.0  0.64588  0.97379  0.79166  1.0000
  N   N222      1.0  0.14588  0.52621  0.20834  1.0000
  N   N223      1.0  0.85412  0.02621  0.29166  1.0000
  N   N224      1.0  0.35412  0.47379  0.70834  1.0000
  N   N225      1.0  0.79166  0.64588  0.97379  1.0000
  N   N226      1.0  0.20834  0.14588  0.52621  1.0000
  N   N227      1.0  0.29166  0.85412  0.02621  1.0000
  N   N228      1.0  0.70834  0.35412  0.47379  1.0000
  N   N229      1.0  0.54166  0.22379  0.60412  1.0000
  N   N230      1.0  0.95834  0.77621  0.10412  1.0000
  N   N231      1.0  0.04166  0.27621  0.39588  1.0000
  N   N232      1.0  0.45834  0.72379  0.89588  1.0000
  N   N233      1.0  0.72379  0.89588  0.45834  1.0000
  N   N234      1.0  0.27621  0.39588  0.04166  1.0000
  N   N235      1.0  0.77621  0.10412  0.95834  1.0000
  N   N236      1.0  0.22379  0.60412  0.54166  1.0000
  N   N237      1.0  0.39588  0.04166  0.27621  1.0000
  N   N238      1.0  0.89588  0.45834  0.72379  1.0000
  N   N239      1.0  0.60412  0.54166  0.22379  1.0000
  N   N240      1.0  0.10412  0.95834  0.77621  1.0000
  N   N241      1.0  0.52621  0.70834  0.85412  1.0000
  N   N242      1.0  0.97379  0.29166  0.35412  1.0000
  N   N243      1.0  0.47379  0.20834  0.64588  1.0000
  N   N244      1.0  0.02621  0.79166  0.14588  1.0000
  N   N245      1.0  0.85412  0.52621  0.70834  1.0000
  N   N246      1.0  0.35412  0.97379  0.29166  1.0000
  N   N247      1.0  0.64588  0.47379  0.20834  1.0000
  N   N248      1.0  0.14588  0.02621  0.79166  1.0000
  N   N249      1.0  0.70834  0.85412  0.52621  1.0000
  N   N250      1.0  0.29166  0.35412  0.97379  1.0000
  N   N251      1.0  0.20834  0.64588  0.47379  1.0000
  N   N252      1.0  0.79166  0.14588  0.02621  1.0000
  N   N253      1.0  0.95834  0.27621  0.89588  1.0000
  N   N254      1.0  0.54166  0.72379  0.39588  1.0000
  N   N255      1.0  0.45834  0.22379  0.10412  1.0000
  N   N256      1.0  0.04166  0.77621  0.60412  1.0000
  N   N257      1.0  0.77621  0.60412  0.04166  1.0000
  N   N258      1.0  0.22379  0.10412  0.45834  1.0000
  N   N259      1.0  0.72379  0.39588  0.54166  1.0000
  N   N260      1.0  0.27621  0.89588  0.95834  1.0000
  N   N261      1.0  0.10412  0.45834  0.22379  1.0000
  N   N262      1.0  0.60412  0.04166  0.77621  1.0000
  N   N263      1.0  0.89588  0.95834  0.27621  1.0000
  N   N264      1.0  0.39588  0.54166  0.72379  1.0000
  N   N265      1.0  0.02621  0.20834  0.35412  1.0000
  N   N266      1.0  0.47379  0.79166  0.85412  1.0000
  N   N267      1.0  0.97379  0.70834  0.14588  1.0000
  N   N268      1.0  0.52621  0.29166  0.64588  1.0000
  N   N269      1.0  0.35412  0.02621  0.20834  1.0000
  N   N270      1.0  0.85412  0.47379  0.79166  1.0000
  N   N271      1.0  0.14588  0.97379  0.70834  1.0000
  N   N272      1.0  0.64588  0.52621  0.29166  1.0000
  N   N273      1.0  0.20834  0.35412  0.02621  1.0000
  N   N274      1.0  0.79166  0.85412  0.47379  1.0000
  N   N275      1.0  0.70834  0.14588  0.97379  1.0000
  N   N276      1.0  0.29166  0.64588  0.52621  1.0000
  N   N277      1.0  0.45834  0.77621  0.39588  1.0000
  N   N278      1.0  0.04166  0.22379  0.89588  1.0000
  N   N279      1.0  0.95834  0.72379  0.60412  1.0000
  N   N280      1.0  0.54166  0.27621  0.10412  1.0000
  N   N281      1.0  0.27621  0.10412  0.54166  1.0000
  N   N282      1.0  0.72379  0.60412  0.95834  1.0000
  N   N283      1.0  0.22379  0.89588  0.04166  1.0000
  N   N284      1.0  0.77621  0.39588  0.45834  1.0000
  N   N285      1.0  0.60412  0.95834  0.72379  1.0000
  N   N286      1.0  0.10412  0.54166  0.27621  1.0000
  N   N287      1.0  0.39588  0.45834  0.77621  1.0000
  N   N288      1.0  0.89588  0.04166  0.22379  1.0000
  C   C385      1.0  0.48642  0.29169  0.16084  1.0000
  C   C386      1.0  0.01358  0.70831  0.66084  1.0000
  C   C387      1.0  0.51358  0.79169  0.33916  1.0000
  C   C388      1.0  0.98642  0.20831  0.83916  1.0000
  C   C389      1.0  0.16084  0.48642  0.29169  1.0000
  C   C390      1.0  0.66084  0.01358  0.70831  1.0000
  C   C391      1.0  0.33916  0.51358  0.79169  1.0000
  C   C392      1.0  0.83916  0.98642  0.20831  1.0000
  C   C393      1.0  0.29169  0.16084  0.48642  1.0000
  C   C394      1.0  0.70831  0.66084  0.01358  1.0000
  C   C395      1.0  0.79169  0.33916  0.51358  1.0000
  C   C396      1.0  0.20831  0.83916  0.98642  1.0000
  C   C397      1.0  0.04169  0.73642  0.08916  1.0000
  C   C398      1.0  0.45831  0.26358  0.58916  1.0000
  C   C399      1.0  0.54169  0.76358  0.91084  1.0000
  C   C400      1.0  0.95831  0.23642  0.41084  1.0000
  C   C401      1.0  0.23642  0.41084  0.95831  1.0000
  C   C402      1.0  0.76358  0.91084  0.54169  1.0000
  C   C403      1.0  0.26358  0.58916  0.45831  1.0000
  C   C404      1.0  0.73642  0.08916  0.04169  1.0000
  C   C405      1.0  0.91084  0.54169  0.76358  1.0000
  C   C406      1.0  0.41084  0.95831  0.23642  1.0000
  C   C407      1.0  0.08916  0.04169  0.73642  1.0000
  C   C408      1.0  0.58916  0.45831  0.26358  1.0000
  C   C409      1.0  0.98642  0.79169  0.66084  1.0000
  C   C410      1.0  0.51358  0.20831  0.16084  1.0000
  C   C411      1.0  0.01358  0.29169  0.83916  1.0000
  C   C412      1.0  0.48642  0.70831  0.33916  1.0000
  C   C413      1.0  0.66084  0.98642  0.79169  1.0000
  C   C414      1.0  0.16084  0.51358  0.20831  1.0000
  C   C415      1.0  0.83916  0.01358  0.29169  1.0000
  C   C416      1.0  0.33916  0.48642  0.70831  1.0000
  C   C417      1.0  0.79169  0.66084  0.98642  1.0000
  C   C418      1.0  0.20831  0.16084  0.51358  1.0000
  C   C419      1.0  0.29169  0.83916  0.01358  1.0000
  C   C420      1.0  0.70831  0.33916  0.48642  1.0000
  C   C421      1.0  0.54169  0.23642  0.58916  1.0000
  C   C422      1.0  0.95831  0.76358  0.08916  1.0000
  C   C423      1.0  0.04169  0.26358  0.41084  1.0000
  C   C424      1.0  0.45831  0.73642  0.91084  1.0000
  C   C425      1.0  0.73642  0.91084  0.45831  1.0000
  C   C426      1.0  0.26358  0.41084  0.04169  1.0000
  C   C427      1.0  0.76358  0.08916  0.95831  1.0000
  C   C428      1.0  0.23642  0.58916  0.54169  1.0000
  C   C429      1.0  0.41084  0.04169  0.26358  1.0000
  C   C430      1.0  0.91084  0.45831  0.73642  1.0000
  C   C431      1.0  0.58916  0.54169  0.23642  1.0000
  C   C432      1.0  0.08916  0.95831  0.76358  1.0000
  C   C433      1.0  0.51358  0.70831  0.83916  1.0000
  C   C434      1.0  0.98642  0.29169  0.33916  1.0000
  C   C435      1.0  0.48642  0.20831  0.66084  1.0000
  C   C436      1.0  0.01358  0.79169  0.16084  1.0000
  C   C437      1.0  0.83916  0.51358  0.70831  1.0000
  C   C438      1.0  0.33916  0.98642  0.29169  1.0000
  C   C439      1.0  0.66084  0.48642  0.20831  1.0000
  C   C440      1.0  0.16084  0.01358  0.79169  1.0000
  C   C441      1.0  0.70831  0.83916  0.51358  1.0000
  C   C442      1.0  0.29169  0.33916  0.98642  1.0000
  C   C443      1.0  0.20831  0.66084  0.48642  1.0000
  C   C444      1.0  0.79169  0.16084  0.01358  1.0000
  C   C445      1.0  0.95831  0.26358  0.91084  1.0000
  C   C446      1.0  0.54169  0.73642  0.41084  1.0000
  C   C447      1.0  0.45831  0.23642  0.08916  1.0000
  C   C448      1.0  0.04169  0.76358  0.58916  1.0000
  C   C449      1.0  0.76358  0.58916  0.04169  1.0000
  C   C450      1.0  0.23642  0.08916  0.45831  1.0000
  C   C451      1.0  0.73642  0.41084  0.54169  1.0000
  C   C452      1.0  0.26358  0.91084  0.95831  1.0000
  C   C453      1.0  0.08916  0.45831  0.23642  1.0000
  C   C454      1.0  0.58916  0.04169  0.76358  1.0000
  C   C455      1.0  0.91084  0.95831  0.26358  1.0000
  C   C456      1.0  0.41084  0.54169  0.73642  1.0000
  C   C457      1.0  0.01358  0.20831  0.33916  1.0000
  C   C458      1.0  0.48642  0.79169  0.83916  1.0000
  C   C459      1.0  0.98642  0.70831  0.16084  1.0000
  C   C460      1.0  0.51358  0.29169  0.66084  1.0000
  C   C461      1.0  0.33916  0.01358  0.20831  1.0000
  C   C462      1.0  0.83916  0.48642  0.79169  1.0000
  C   C463      1.0  0.16084  0.98642  0.70831  1.0000
  C   C464      1.0  0.66084  0.51358  0.29169  1.0000
  C   C465      1.0  0.20831  0.33916  0.01358  1.0000
  C   C466      1.0  0.79169  0.83916  0.48642  1.0000
  C   C467      1.0  0.70831  0.16084  0.98642  1.0000
  C   C468      1.0  0.29169  0.66084  0.51358  1.0000
  C   C469      1.0  0.45831  0.76358  0.41084  1.0000
  C   C470      1.0  0.04169  0.23642  0.91084  1.0000
  C   C471      1.0  0.95831  0.73642  0.58916  1.0000
  C   C472      1.0  0.54169  0.26358  0.08916  1.0000
  C   C473      1.0  0.26358  0.08916  0.54169  1.0000
  C   C474      1.0  0.73642  0.58916  0.95831  1.0000
  C   C475      1.0  0.23642  0.91084  0.04169  1.0000
  C   C476      1.0  0.76358  0.41084  0.45831  1.0000
  C   C477      1.0  0.58916  0.95831  0.73642  1.0000
  C   C478      1.0  0.08916  0.54169  0.26358  1.0000
  C   C479      1.0  0.41084  0.45831  0.76358  1.0000
  C   C480      1.0  0.91084  0.04169  0.23642  1.0000
  H   H97       1.0  0.49370  0.30270  0.16360  1.0000
  H   H98       1.0  0.00630  0.69730  0.66360  1.0000
  H   H99       1.0  0.50630  0.80270  0.33640  1.0000
  H   H100      1.0  0.99370  0.19730  0.83640  1.0000
  H   H101      1.0  0.16360  0.49370  0.30270  1.0000
  H   H102      1.0  0.66360  0.00630  0.69730  1.0000
  H   H103      1.0  0.33640  0.50630  0.80270  1.0000
  H   H104      1.0  0.83640  0.99370  0.19730  1.0000
  H   H105      1.0  0.30270  0.16360  0.49370  1.0000
  H   H106      1.0  0.69730  0.66360  0.00630  1.0000
  H   H107      1.0  0.80270  0.33640  0.50630  1.0000
  H   H108      1.0  0.19730  0.83640  0.99370  1.0000
  H   H109      1.0  0.05270  0.74370  0.08640  1.0000
  H   H110      1.0  0.44730  0.25630  0.58640  1.0000
  H   H111      1.0  0.55270  0.75630  0.91360  1.0000
  H   H112      1.0  0.94730  0.24370  0.41360  1.0000
  H   H113      1.0  0.24370  0.41360  0.94730  1.0000
  H   H114      1.0  0.75630  0.91360  0.55270  1.0000
  H   H115      1.0  0.25630  0.58640  0.44730  1.0000
  H   H116      1.0  0.74370  0.08640  0.05270  1.0000
  H   H117      1.0  0.91360  0.55270  0.75630  1.0000
  H   H118      1.0  0.41360  0.94730  0.24370  1.0000
  H   H119      1.0  0.08640  0.05270  0.74370  1.0000
  H   H120      1.0  0.58640  0.44730  0.25630  1.0000
  H   H121      1.0  0.99370  0.80270  0.66360  1.0000
  H   H122      1.0  0.50630  0.19730  0.16360  1.0000
  H   H123      1.0  0.00630  0.30270  0.83640  1.0000
  H   H124      1.0  0.49370  0.69730  0.33640  1.0000
  H   H125      1.0  0.66360  0.99370  0.80270  1.0000
  H   H126      1.0  0.16360  0.50630  0.19730  1.0000
  H   H127      1.0  0.83640  0.00630  0.30270  1.0000
  H   H128      1.0  0.33640  0.49370  0.69730  1.0000
  H   H129      1.0  0.80270  0.66360  0.99370  1.0000
  H   H130      1.0  0.19730  0.16360  0.50630  1.0000
  H   H131      1.0  0.30270  0.83640  0.00630  1.0000
  H   H132      1.0  0.69730  0.33640  0.49370  1.0000
  H   H133      1.0  0.55270  0.24370  0.58640  1.0000
  H   H134      1.0  0.94730  0.75630  0.08640  1.0000
  H   H135      1.0  0.05270  0.25630  0.41360  1.0000
  H   H136      1.0  0.44730  0.74370  0.91360  1.0000
  H   H137      1.0  0.74370  0.91360  0.44730  1.0000
  H   H138      1.0  0.25630  0.41360  0.05270  1.0000
  H   H139      1.0  0.75630  0.08640  0.94730  1.0000
  H   H140      1.0  0.24370  0.58640  0.55270  1.0000
  H   H141      1.0  0.41360  0.05270  0.25630  1.0000
  H   H142      1.0  0.91360  0.44730  0.74370  1.0000
  H   H143      1.0  0.58640  0.55270  0.24370  1.0000
  H   H144      1.0  0.08640  0.94730  0.75630  1.0000
  H   H145      1.0  0.50630  0.69730  0.83640  1.0000
  H   H146      1.0  0.99370  0.30270  0.33640  1.0000
  H   H147      1.0  0.49370  0.19730  0.66360  1.0000
  H   H148      1.0  0.00630  0.80270  0.16360  1.0000
  H   H149      1.0  0.83640  0.50630  0.69730  1.0000
  H   H150      1.0  0.33640  0.99370  0.30270  1.0000
  H   H151      1.0  0.66360  0.49370  0.19730  1.0000
  H   H152      1.0  0.16360  0.00630  0.80270  1.0000
  H   H153      1.0  0.69730  0.83640  0.50630  1.0000
  H   H154      1.0  0.30270  0.33640  0.99370  1.0000
  H   H155      1.0  0.19730  0.66360  0.49370  1.0000
  H   H156      1.0  0.80270  0.16360  0.00630  1.0000
  H   H157      1.0  0.94730  0.25630  0.91360  1.0000
  H   H158      1.0  0.55270  0.74370  0.41360  1.0000
  H   H159      1.0  0.44730  0.24370  0.08640  1.0000
  H   H160      1.0  0.05270  0.75630  0.58640  1.0000
  H   H161      1.0  0.75630  0.58640  0.05270  1.0000
  H   H162      1.0  0.24370  0.08640  0.44730  1.0000
  H   H163      1.0  0.74370  0.41360  0.55270  1.0000
  H   H164      1.0  0.25630  0.91360  0.94730  1.0000
  H   H165      1.0  0.08640  0.44730  0.24370  1.0000
  H   H166      1.0  0.58640  0.05270  0.75630  1.0000
  H   H167      1.0  0.91360  0.94730  0.25630  1.0000
  H   H168      1.0  0.41360  0.55270  0.74370  1.0000
  H   H169      1.0  0.00630  0.19730  0.33640  1.0000
  H   H170      1.0  0.49370  0.80270  0.83640  1.0000
  H   H171      1.0  0.99370  0.69730  0.16360  1.0000
  H   H172      1.0  0.50630  0.30270  0.66360  1.0000
  H   H173      1.0  0.33640  0.00630  0.19730  1.0000
  H   H174      1.0  0.83640  0.49370  0.80270  1.0000
  H   H175      1.0  0.16360  0.99370  0.69730  1.0000
  H   H176      1.0  0.66360  0.50630  0.30270  1.0000
  H   H177      1.0  0.19730  0.33640  0.00630  1.0000
  H   H178      1.0  0.80270  0.83640  0.49370  1.0000
  H   H179      1.0  0.69730  0.16360  0.99370  1.0000
  H   H180      1.0  0.30270  0.66360  0.50630  1.0000
  H   H181      1.0  0.44730  0.75630  0.41360  1.0000
  H   H182      1.0  0.05270  0.24370  0.91360  1.0000
  H   H183      1.0  0.94730  0.74370  0.58640  1.0000
  H   H184      1.0  0.55270  0.25630  0.08640  1.0000
  H   H185      1.0  0.25630  0.08640  0.55270  1.0000
  H   H186      1.0  0.74370  0.58640  0.94730  1.0000
  H   H187      1.0  0.24370  0.91360  0.05270  1.0000
  H   H188      1.0  0.75630  0.41360  0.44730  1.0000
  H   H189      1.0  0.58640  0.94730  0.74370  1.0000
  H   H190      1.0  0.08640  0.55270  0.25630  1.0000
  H   H191      1.0  0.41360  0.44730  0.75630  1.0000
  H   H192      1.0  0.91360  0.05270  0.24370  1.0000
  N   N289      1.0  0.48835  0.27558  0.17179  1.0000
  N   N290      1.0  0.01165  0.72442  0.67179  1.0000
  N   N291      1.0  0.51165  0.77558  0.32821  1.0000
  N   N292      1.0  0.98835  0.22442  0.82821  1.0000
  N   N293      1.0  0.17179  0.48835  0.27558  1.0000
  N   N294      1.0  0.67179  0.01165  0.72442  1.0000
  N   N295      1.0  0.32821  0.51165  0.77558  1.0000
  N   N296      1.0  0.82821  0.98835  0.22442  1.0000
  N   N297      1.0  0.27558  0.17179  0.48835  1.0000
  N   N298      1.0  0.72442  0.67179  0.01165  1.0000
  N   N299      1.0  0.77558  0.32821  0.51165  1.0000
  N   N300      1.0  0.22442  0.82821  0.98835  1.0000
  N   N301      1.0  0.02558  0.73835  0.07821  1.0000
  N   N302      1.0  0.47442  0.26165  0.57821  1.0000
  N   N303      1.0  0.52558  0.76165  0.92179  1.0000
  N   N304      1.0  0.97442  0.23835  0.42179  1.0000
  N   N305      1.0  0.23835  0.42179  0.97442  1.0000
  N   N306      1.0  0.76165  0.92179  0.52558  1.0000
  N   N307      1.0  0.26165  0.57821  0.47442  1.0000
  N   N308      1.0  0.73835  0.07821  0.02558  1.0000
  N   N309      1.0  0.92179  0.52558  0.76165  1.0000
  N   N310      1.0  0.42179  0.97442  0.23835  1.0000
  N   N311      1.0  0.07821  0.02558  0.73835  1.0000
  N   N312      1.0  0.57821  0.47442  0.26165  1.0000
  N   N313      1.0  0.98835  0.77558  0.67179  1.0000
  N   N314      1.0  0.51165  0.22442  0.17179  1.0000
  N   N315      1.0  0.01165  0.27558  0.82821  1.0000
  N   N316      1.0  0.48835  0.72442  0.32821  1.0000
  N   N317      1.0  0.67179  0.98835  0.77558  1.0000
  N   N318      1.0  0.17179  0.51165  0.22442  1.0000
  N   N319      1.0  0.82821  0.01165  0.27558  1.0000
  N   N320      1.0  0.32821  0.48835  0.72442  1.0000
  N   N321      1.0  0.77558  0.67179  0.98835  1.0000
  N   N322      1.0  0.22442  0.17179  0.51165  1.0000
  N   N323      1.0  0.27558  0.82821  0.01165  1.0000
  N   N324      1.0  0.72442  0.32821  0.48835  1.0000
  N   N325      1.0  0.52558  0.23835  0.57821  1.0000
  N   N326      1.0  0.97442  0.76165  0.07821  1.0000
  N   N327      1.0  0.02558  0.26165  0.42179  1.0000
  N   N328      1.0  0.47442  0.73835  0.92179  1.0000
  N   N329      1.0  0.73835  0.92179  0.47442  1.0000
  N   N330      1.0  0.26165  0.42179  0.02558  1.0000
  N   N331      1.0  0.76165  0.07821  0.97442  1.0000
  N   N332      1.0  0.23835  0.57821  0.52558  1.0000
  N   N333      1.0  0.42179  0.02558  0.26165  1.0000
  N   N334      1.0  0.92179  0.47442  0.73835  1.0000
  N   N335      1.0  0.57821  0.52558  0.23835  1.0000
  N   N336      1.0  0.07821  0.97442  0.76165  1.0000
  N   N337      1.0  0.51165  0.72442  0.82821  1.0000
  N   N338      1.0  0.98835  0.27558  0.32821  1.0000
  N   N339      1.0  0.48835  0.22442  0.67179  1.0000
  N   N340      1.0  0.01165  0.77558  0.17179  1.0000
  N   N341      1.0  0.82821  0.51165  0.72442  1.0000
  N   N342      1.0  0.32821  0.98835  0.27558  1.0000
  N   N343      1.0  0.67179  0.48835  0.22442  1.0000
  N   N344      1.0  0.17179  0.01165  0.77558  1.0000
  N   N345      1.0  0.72442  0.82821  0.51165  1.0000
  N   N346      1.0  0.27558  0.32821  0.98835  1.0000
  N   N347      1.0  0.22442  0.67179  0.48835  1.0000
  N   N348      1.0  0.77558  0.17179  0.01165  1.0000
  N   N349      1.0  0.97442  0.26165  0.92179  1.0000
  N   N350      1.0  0.52558  0.73835  0.42179  1.0000
  N   N351      1.0  0.47442  0.23835  0.07821  1.0000
  N   N352      1.0  0.02558  0.76165  0.57821  1.0000
  N   N353      1.0  0.76165  0.57821  0.02558  1.0000
  N   N354      1.0  0.23835  0.07821  0.47442  1.0000
  N   N355      1.0  0.73835  0.42179  0.52558  1.0000
  N   N356      1.0  0.26165  0.92179  0.97442  1.0000
  N   N357      1.0  0.07821  0.47442  0.23835  1.0000
  N   N358      1.0  0.57821  0.02558  0.76165  1.0000
  N   N359      1.0  0.92179  0.97442  0.26165  1.0000
  N   N360      1.0  0.42179  0.52558  0.73835  1.0000
  N   N361      1.0  0.01165  0.22442  0.32821  1.0000
  N   N362      1.0  0.48835  0.77558  0.82821  1.0000
  N   N363      1.0  0.98835  0.72442  0.17179  1.0000
  N   N364      1.0  0.51165  0.27558  0.67179  1.0000
  N   N365      1.0  0.32821  0.01165  0.22442  1.0000
  N   N366      1.0  0.82821  0.48835  0.77558  1.0000
  N   N367      1.0  0.17179  0.98835  0.72442  1.0000
  N   N368      1.0  0.67179  0.51165  0.27558  1.0000
  N   N369      1.0  0.22442  0.32821  0.01165  1.0000
  N   N370      1.0  0.77558  0.82821  0.48835  1.0000
  N   N371      1.0  0.72442  0.17179  0.98835  1.0000
  N   N372      1.0  0.27558  0.67179  0.51165  1.0000
  N   N373      1.0  0.47442  0.76165  0.42179  1.0000
  N   N374      1.0  0.02558  0.23835  0.92179  1.0000
  N   N375      1.0  0.97442  0.73835  0.57821  1.0000
  N   N376      1.0  0.52558  0.26165  0.07821  1.0000
  N   N377      1.0  0.26165  0.07821  0.52558  1.0000
  N   N378      1.0  0.73835  0.57821  0.97442  1.0000
  N   N379      1.0  0.23835  0.92179  0.02558  1.0000
  N   N380      1.0  0.76165  0.42179  0.47442  1.0000
  N   N381      1.0  0.57821  0.97442  0.73835  1.0000
  N   N382      1.0  0.07821  0.52558  0.26165  1.0000
  N   N383      1.0  0.42179  0.47442  0.76165  1.0000
  N   N384      1.0  0.92179  0.02558  0.23835  1.0000
  N   N385      1.0  0.44332  0.27191  0.12346  1.0000
  N   N386      1.0  0.05668  0.72809  0.62346  1.0000
  N   N387      1.0  0.55668  0.77191  0.37654  1.0000
  N   N388      1.0  0.94332  0.22809  0.87654  1.0000
  N   N389      1.0  0.12346  0.44332  0.27191  1.0000
  N   N390      1.0  0.62346  0.05668  0.72809  1.0000
  N   N391      1.0  0.37654  0.55668  0.77191  1.0000
  N   N392      1.0  0.87654  0.94332  0.22809  1.0000
  N   N393      1.0  0.27191  0.12346  0.44332  1.0000
  N   N394      1.0  0.72809  0.62346  0.05668  1.0000
  N   N395      1.0  0.77191  0.37654  0.55668  1.0000
  N   N396      1.0  0.22809  0.87654  0.94332  1.0000
  N   N397      1.0  0.02191  0.69332  0.12654  1.0000
  N   N398      1.0  0.47809  0.30668  0.62654  1.0000
  N   N399      1.0  0.52191  0.80668  0.87346  1.0000
  N   N400      1.0  0.97809  0.19332  0.37346  1.0000
  N   N401      1.0  0.19332  0.37346  0.97809  1.0000
  N   N402      1.0  0.80668  0.87346  0.52191  1.0000
  N   N403      1.0  0.30668  0.62654  0.47809  1.0000
  N   N404      1.0  0.69332  0.12654  0.02191  1.0000
  N   N405      1.0  0.87346  0.52191  0.80668  1.0000
  N   N406      1.0  0.37346  0.97809  0.19332  1.0000
  N   N407      1.0  0.12654  0.02191  0.69332  1.0000
  N   N408      1.0  0.62654  0.47809  0.30668  1.0000
  N   N409      1.0  0.94332  0.77191  0.62346  1.0000
  N   N410      1.0  0.55668  0.22809  0.12346  1.0000
  N   N411      1.0  0.05668  0.27191  0.87654  1.0000
  N   N412      1.0  0.44332  0.72809  0.37654  1.0000
  N   N413      1.0  0.62346  0.94332  0.77191  1.0000
  N   N414      1.0  0.12346  0.55668  0.22809  1.0000
  N   N415      1.0  0.87654  0.05668  0.27191  1.0000
  N   N416      1.0  0.37654  0.44332  0.72809  1.0000
  N   N417      1.0  0.77191  0.62346  0.94332  1.0000
  N   N418      1.0  0.22809  0.12346  0.55668  1.0000
  N   N419      1.0  0.27191  0.87654  0.05668  1.0000
  N   N420      1.0  0.72809  0.37654  0.44332  1.0000
  N   N421      1.0  0.52191  0.19332  0.62654  1.0000
  N   N422      1.0  0.97809  0.80668  0.12654  1.0000
  N   N423      1.0  0.02191  0.30668  0.37346  1.0000
  N   N424      1.0  0.47809  0.69332  0.87346  1.0000
  N   N425      1.0  0.69332  0.87346  0.47809  1.0000
  N   N426      1.0  0.30668  0.37346  0.02191  1.0000
  N   N427      1.0  0.80668  0.12654  0.97809  1.0000
  N   N428      1.0  0.19332  0.62654  0.52191  1.0000
  N   N429      1.0  0.37346  0.02191  0.30668  1.0000
  N   N430      1.0  0.87346  0.47809  0.69332  1.0000
  N   N431      1.0  0.62654  0.52191  0.19332  1.0000
  N   N432      1.0  0.12654  0.97809  0.80668  1.0000
  N   N433      1.0  0.55668  0.72809  0.87654  1.0000
  N   N434      1.0  0.94332  0.27191  0.37654  1.0000
  N   N435      1.0  0.44332  0.22809  0.62346  1.0000
  N   N436      1.0  0.05668  0.77191  0.12346  1.0000
  N   N437      1.0  0.87654  0.55668  0.72809  1.0000
  N   N438      1.0  0.37654  0.94332  0.27191  1.0000
  N   N439      1.0  0.62346  0.44332  0.22809  1.0000
  N   N440      1.0  0.12346  0.05668  0.77191  1.0000
  N   N441      1.0  0.72809  0.87654  0.55668  1.0000
  N   N442      1.0  0.27191  0.37654  0.94332  1.0000
  N   N443      1.0  0.22809  0.62346  0.44332  1.0000
  N   N444      1.0  0.77191  0.12346  0.05668  1.0000
  N   N445      1.0  0.97809  0.30668  0.87346  1.0000
  N   N446      1.0  0.52191  0.69332  0.37346  1.0000
  N   N447      1.0  0.47809  0.19332  0.12654  1.0000
  N   N448      1.0  0.02191  0.80668  0.62654  1.0000
  N   N449      1.0  0.80668  0.62654  0.02191  1.0000
  N   N450      1.0  0.19332  0.12654  0.47809  1.0000
  N   N451      1.0  0.69332  0.37346  0.52191  1.0000
  N   N452      1.0  0.30668  0.87346  0.97809  1.0000
  N   N453      1.0  0.12654  0.47809  0.19332  1.0000
  N   N454      1.0  0.62654  0.02191  0.80668  1.0000
  N   N455      1.0  0.87346  0.97809  0.30668  1.0000
  N   N456      1.0  0.37346  0.52191  0.69332  1.0000
  N   N457      1.0  0.05668  0.22809  0.37654  1.0000
  N   N458      1.0  0.44332  0.77191  0.87654  1.0000
  N   N459      1.0  0.94332  0.72809  0.12346  1.0000
  N   N460      1.0  0.55668  0.27191  0.62346  1.0000
  N   N461      1.0  0.37654  0.05668  0.22809  1.0000
  N   N462      1.0  0.87654  0.44332  0.77191  1.0000
  N   N463      1.0  0.12346  0.94332  0.72809  1.0000
  N   N464      1.0  0.62346  0.55668  0.27191  1.0000
  N   N465      1.0  0.22809  0.37654  0.05668  1.0000
  N   N466      1.0  0.77191  0.87654  0.44332  1.0000
  N   N467      1.0  0.72809  0.12346  0.94332  1.0000
  N   N468      1.0  0.27191  0.62346  0.55668  1.0000
  N   N469      1.0  0.47809  0.80668  0.37346  1.0000
  N   N470      1.0  0.02191  0.19332  0.87346  1.0000
  N   N471      1.0  0.97809  0.69332  0.62654  1.0000
  N   N472      1.0  0.52191  0.30668  0.12654  1.0000
  N   N473      1.0  0.30668  0.12654  0.52191  1.0000
  N   N474      1.0  0.69332  0.62654  0.97809  1.0000
  N   N475      1.0  0.19332  0.87346  0.02191  1.0000
  N   N476      1.0  0.80668  0.37346  0.47809  1.0000
  N   N477      1.0  0.62654  0.97809  0.69332  1.0000
  N   N478      1.0  0.12654  0.52191  0.30668  1.0000
  N   N479      1.0  0.37346  0.47809  0.80668  1.0000
  N   N480      1.0  0.87346  0.02191  0.19332  1.0000
  H   H193      1.0  0.44570  0.28380  0.12050  1.0000
  H   H194      1.0  0.05430  0.71620  0.62050  1.0000
  H   H195      1.0  0.55430  0.78380  0.37950  1.0000
  H   H196      1.0  0.94570  0.21620  0.87950  1.0000
  H   H197      1.0  0.12050  0.44570  0.28380  1.0000
  H   H198      1.0  0.62050  0.05430  0.71620  1.0000
  H   H199      1.0  0.37950  0.55430  0.78380  1.0000
  H   H200      1.0  0.87950  0.94570  0.21620  1.0000
  H   H201      1.0  0.28380  0.12050  0.44570  1.0000
  H   H202      1.0  0.71620  0.62050  0.05430  1.0000
  H   H203      1.0  0.78380  0.37950  0.55430  1.0000
  H   H204      1.0  0.21620  0.87950  0.94570  1.0000
  H   H205      1.0  0.03380  0.69570  0.12950  1.0000
  H   H206      1.0  0.46620  0.30430  0.62950  1.0000
  H   H207      1.0  0.53380  0.80430  0.87050  1.0000
  H   H208      1.0  0.96620  0.19570  0.37050  1.0000
  H   H209      1.0  0.19570  0.37050  0.96620  1.0000
  H   H210      1.0  0.80430  0.87050  0.53380  1.0000
  H   H211      1.0  0.30430  0.62950  0.46620  1.0000
  H   H212      1.0  0.69570  0.12950  0.03380  1.0000
  H   H213      1.0  0.87050  0.53380  0.80430  1.0000
  H   H214      1.0  0.37050  0.96620  0.19570  1.0000
  H   H215      1.0  0.12950  0.03380  0.69570  1.0000
  H   H216      1.0  0.62950  0.46620  0.30430  1.0000
  H   H217      1.0  0.94570  0.78380  0.62050  1.0000
  H   H218      1.0  0.55430  0.21620  0.12050  1.0000
  H   H219      1.0  0.05430  0.28380  0.87950  1.0000
  H   H220      1.0  0.44570  0.71620  0.37950  1.0000
  H   H221      1.0  0.62050  0.94570  0.78380  1.0000
  H   H222      1.0  0.12050  0.55430  0.21620  1.0000
  H   H223      1.0  0.87950  0.05430  0.28380  1.0000
  H   H224      1.0  0.37950  0.44570  0.71620  1.0000
  H   H225      1.0  0.78380  0.62050  0.94570  1.0000
  H   H226      1.0  0.21620  0.12050  0.55430  1.0000
  H   H227      1.0  0.28380  0.87950  0.05430  1.0000
  H   H228      1.0  0.71620  0.37950  0.44570  1.0000
  H   H229      1.0  0.53380  0.19570  0.62950  1.0000
  H   H230      1.0  0.96620  0.80430  0.12950  1.0000
  H   H231      1.0  0.03380  0.30430  0.37050  1.0000
  H   H232      1.0  0.46620  0.69570  0.87050  1.0000
  H   H233      1.0  0.69570  0.87050  0.46620  1.0000
  H   H234      1.0  0.30430  0.37050  0.03380  1.0000
  H   H235      1.0  0.80430  0.12950  0.96620  1.0000
  H   H236      1.0  0.19570  0.62950  0.53380  1.0000
  H   H237      1.0  0.37050  0.03380  0.30430  1.0000
  H   H238      1.0  0.87050  0.46620  0.69570  1.0000
  H   H239      1.0  0.62950  0.53380  0.19570  1.0000
  H   H240      1.0  0.12950  0.96620  0.80430  1.0000
  H   H241      1.0  0.55430  0.71620  0.87950  1.0000
  H   H242      1.0  0.94570  0.28380  0.37950  1.0000
  H   H243      1.0  0.44570  0.21620  0.62050  1.0000
  H   H244      1.0  0.05430  0.78380  0.12050  1.0000
  H   H245      1.0  0.87950  0.55430  0.71620  1.0000
  H   H246      1.0  0.37950  0.94570  0.28380  1.0000
  H   H247      1.0  0.62050  0.44570  0.21620  1.0000
  H   H248      1.0  0.12050  0.05430  0.78380  1.0000
  H   H249      1.0  0.71620  0.87950  0.55430  1.0000
  H   H250      1.0  0.28380  0.37950  0.94570  1.0000
  H   H251      1.0  0.21620  0.62050  0.44570  1.0000
  H   H252      1.0  0.78380  0.12050  0.05430  1.0000
  H   H253      1.0  0.96620  0.30430  0.87050  1.0000
  H   H254      1.0  0.53380  0.69570  0.37050  1.0000
  H   H255      1.0  0.46620  0.19570  0.12950  1.0000
  H   H256      1.0  0.03380  0.80430  0.62950  1.0000
  H   H257      1.0  0.80430  0.62950  0.03380  1.0000
  H   H258      1.0  0.19570  0.12950  0.46620  1.0000
  H   H259      1.0  0.69570  0.37050  0.53380  1.0000
  H   H260      1.0  0.30430  0.87050  0.96620  1.0000
  H   H261      1.0  0.12950  0.46620  0.19570  1.0000
  H   H262      1.0  0.62950  0.03380  0.80430  1.0000
  H   H263      1.0  0.87050  0.96620  0.30430  1.0000
  H   H264      1.0  0.37050  0.53380  0.69570  1.0000
  H   H265      1.0  0.05430  0.21620  0.37950  1.0000
  H   H266      1.0  0.44570  0.78380  0.87950  1.0000
  H   H267      1.0  0.94570  0.71620  0.12050  1.0000
  H   H268      1.0  0.55430  0.28380  0.62050  1.0000
  H   H269      1.0  0.37950  0.05430  0.21620  1.0000
  H   H270      1.0  0.87950  0.44570  0.78380  1.0000
  H   H271      1.0  0.12050  0.94570  0.71620  1.0000
  H   H272      1.0  0.62050  0.55430  0.28380  1.0000
  H   H273      1.0  0.21620  0.37950  0.05430  1.0000
  H   H274      1.0  0.78380  0.87950  0.44570  1.0000
  H   H275      1.0  0.71620  0.12050  0.94570  1.0000
  H   H276      1.0  0.28380  0.62050  0.55430  1.0000
  H   H277      1.0  0.46620  0.80430  0.37050  1.0000
  H   H278      1.0  0.03380  0.19570  0.87050  1.0000
  H   H279      1.0  0.96620  0.69570  0.62950  1.0000
  H   H280      1.0  0.53380  0.30430  0.12950  1.0000
  H   H281      1.0  0.30430  0.12950  0.53380  1.0000
  H   H282      1.0  0.69570  0.62950  0.96620  1.0000
  H   H283      1.0  0.19570  0.87050  0.03380  1.0000
  H   H284      1.0  0.80430  0.37050  0.46620  1.0000
  H   H285      1.0  0.62950  0.96620  0.69570  1.0000
  H   H286      1.0  0.12950  0.53380  0.30430  1.0000
  H   H287      1.0  0.37050  0.46620  0.80430  1.0000
  H   H288      1.0  0.87050  0.03380  0.19570  1.0000
  H   H289      1.0  0.43480  0.26550  0.11710  1.0000
  H   H290      1.0  0.06520  0.73450  0.61710  1.0000
  H   H291      1.0  0.56520  0.76550  0.38290  1.0000
  H   H292      1.0  0.93480  0.23450  0.88290  1.0000
  H   H293      1.0  0.11710  0.43480  0.26550  1.0000
  H   H294      1.0  0.61710  0.06520  0.73450  1.0000
  H   H295      1.0  0.38290  0.56520  0.76550  1.0000
  H   H296      1.0  0.88290  0.93480  0.23450  1.0000
  H   H297      1.0  0.26550  0.11710  0.43480  1.0000
  H   H298      1.0  0.73450  0.61710  0.06520  1.0000
  H   H299      1.0  0.76550  0.38290  0.56520  1.0000
  H   H300      1.0  0.23450  0.88290  0.93480  1.0000
  H   H301      1.0  0.01550  0.68480  0.13290  1.0000
  H   H302      1.0  0.48450  0.31520  0.63290  1.0000
  H   H303      1.0  0.51550  0.81520  0.86710  1.0000
  H   H304      1.0  0.98450  0.18480  0.36710  1.0000
  H   H305      1.0  0.18480  0.36710  0.98450  1.0000
  H   H306      1.0  0.81520  0.86710  0.51550  1.0000
  H   H307      1.0  0.31520  0.63290  0.48450  1.0000
  H   H308      1.0  0.68480  0.13290  0.01550  1.0000
  H   H309      1.0  0.86710  0.51550  0.81520  1.0000
  H   H310      1.0  0.36710  0.98450  0.18480  1.0000
  H   H311      1.0  0.13290  0.01550  0.68480  1.0000
  H   H312      1.0  0.63290  0.48450  0.31520  1.0000
  H   H313      1.0  0.93480  0.76550  0.61710  1.0000
  H   H314      1.0  0.56520  0.23450  0.11710  1.0000
  H   H315      1.0  0.06520  0.26550  0.88290  1.0000
  H   H316      1.0  0.43480  0.73450  0.38290  1.0000
  H   H317      1.0  0.61710  0.93480  0.76550  1.0000
  H   H318      1.0  0.11710  0.56520  0.23450  1.0000
  H   H319      1.0  0.88290  0.06520  0.26550  1.0000
  H   H320      1.0  0.38290  0.43480  0.73450  1.0000
  H   H321      1.0  0.76550  0.61710  0.93480  1.0000
  H   H322      1.0  0.23450  0.11710  0.56520  1.0000
  H   H323      1.0  0.26550  0.88290  0.06520  1.0000
  H   H324      1.0  0.73450  0.38290  0.43480  1.0000
  H   H325      1.0  0.51550  0.18480  0.63290  1.0000
  H   H326      1.0  0.98450  0.81520  0.13290  1.0000
  H   H327      1.0  0.01550  0.31520  0.36710  1.0000
  H   H328      1.0  0.48450  0.68480  0.86710  1.0000
  H   H329      1.0  0.68480  0.86710  0.48450  1.0000
  H   H330      1.0  0.31520  0.36710  0.01550  1.0000
  H   H331      1.0  0.81520  0.13290  0.98450  1.0000
  H   H332      1.0  0.18480  0.63290  0.51550  1.0000
  H   H333      1.0  0.36710  0.01550  0.31520  1.0000
  H   H334      1.0  0.86710  0.48450  0.68480  1.0000
  H   H335      1.0  0.63290  0.51550  0.18480  1.0000
  H   H336      1.0  0.13290  0.98450  0.81520  1.0000
  H   H337      1.0  0.56520  0.73450  0.88290  1.0000
  H   H338      1.0  0.93480  0.26550  0.38290  1.0000
  H   H339      1.0  0.43480  0.23450  0.61710  1.0000
  H   H340      1.0  0.06520  0.76550  0.11710  1.0000
  H   H341      1.0  0.88290  0.56520  0.73450  1.0000
  H   H342      1.0  0.38290  0.93480  0.26550  1.0000
  H   H343      1.0  0.61710  0.43480  0.23450  1.0000
  H   H344      1.0  0.11710  0.06520  0.76550  1.0000
  H   H345      1.0  0.73450  0.88290  0.56520  1.0000
  H   H346      1.0  0.26550  0.38290  0.93480  1.0000
  H   H347      1.0  0.23450  0.61710  0.43480  1.0000
  H   H348      1.0  0.76550  0.11710  0.06520  1.0000
  H   H349      1.0  0.98450  0.31520  0.86710  1.0000
  H   H350      1.0  0.51550  0.68480  0.36710  1.0000
  H   H351      1.0  0.48450  0.18480  0.13290  1.0000
  H   H352      1.0  0.01550  0.81520  0.63290  1.0000
  H   H353      1.0  0.81520  0.63290  0.01550  1.0000
  H   H354      1.0  0.18480  0.13290  0.48450  1.0000
  H   H355      1.0  0.68480  0.36710  0.51550  1.0000
  H   H356      1.0  0.31520  0.86710  0.98450  1.0000
  H   H357      1.0  0.13290  0.48450  0.18480  1.0000
  H   H358      1.0  0.63290  0.01550  0.81520  1.0000
  H   H359      1.0  0.86710  0.98450  0.31520  1.0000
  H   H360      1.0  0.36710  0.51550  0.68480  1.0000
  H   H361      1.0  0.06520  0.23450  0.38290  1.0000
  H   H362      1.0  0.43480  0.76550  0.88290  1.0000
  H   H363      1.0  0.93480  0.73450  0.11710  1.0000
  H   H364      1.0  0.56520  0.26550  0.61710  1.0000
  H   H365      1.0  0.38290  0.06520  0.23450  1.0000
  H   H366      1.0  0.88290  0.43480  0.76550  1.0000
  H   H367      1.0  0.11710  0.93480  0.73450  1.0000
  H   H368      1.0  0.61710  0.56520  0.26550  1.0000
  H   H369      1.0  0.23450  0.38290  0.06520  1.0000
  H   H370      1.0  0.76550  0.88290  0.43480  1.0000
  H   H371      1.0  0.73450  0.11710  0.93480  1.0000
  H   H372      1.0  0.26550  0.61710  0.56520  1.0000
  H   H373      1.0  0.48450  0.81520  0.36710  1.0000
  H   H374      1.0  0.01550  0.18480  0.86710  1.0000
  H   H375      1.0  0.98450  0.68480  0.63290  1.0000
  H   H376      1.0  0.51550  0.31520  0.13290  1.0000
  H   H377      1.0  0.31520  0.13290  0.51550  1.0000
  H   H378      1.0  0.68480  0.63290  0.98450  1.0000
  H   H379      1.0  0.18480  0.86710  0.01550  1.0000
  H   H380      1.0  0.81520  0.36710  0.48450  1.0000
  H   H381      1.0  0.63290  0.98450  0.68480  1.0000
  H   H382      1.0  0.13290  0.51550  0.31520  1.0000
  H   H383      1.0  0.36710  0.48450  0.81520  1.0000
  H   H384      1.0  0.86710  0.01550  0.18480  1.0000
  O   O1        1.0  0.50000  0.25000  0.20618  1.0000
  O   O2        1.0  0.00000  0.75000  0.70618  1.0000
  O   O3        1.0  0.50000  0.75000  0.29382  1.0000
  O   O4        1.0  0.00000  0.25000  0.79382  1.0000
  O   O5        1.0  0.20618  0.50000  0.25000  1.0000
  O   O6        1.0  0.70618  0.00000  0.75000  1.0000
  O   O7        1.0  0.29382  0.50000  0.75000  1.0000
  O   O8        1.0  0.79382  0.00000  0.25000  1.0000
  O   O9        1.0  0.25000  0.20618  0.50000  1.0000
  O   O10       1.0  0.75000  0.70618  0.00000  1.0000
  O   O11       1.0  0.75000  0.29382  0.50000  1.0000
  O   O12       1.0  0.25000  0.79382  0.00000  1.0000
  O   O13       1.0  0.00000  0.75000  0.04382  1.0000
  O   O14       1.0  0.50000  0.25000  0.54382  1.0000
  O   O15       1.0  0.50000  0.75000  0.95618  1.0000
  O   O16       1.0  0.00000  0.25000  0.45618  1.0000
  O   O17       1.0  0.25000  0.45618  0.00000  1.0000
  O   O18       1.0  0.75000  0.95618  0.50000  1.0000
  O   O19       1.0  0.25000  0.54382  0.50000  1.0000
  O   O20       1.0  0.75000  0.04382  0.00000  1.0000
  O   O21       1.0  0.95618  0.50000  0.75000  1.0000
  O   O22       1.0  0.45618  0.00000  0.25000  1.0000
  O   O23       1.0  0.04382  0.00000  0.75000  1.0000
  O   O24       1.0  0.54382  0.50000  0.25000  1.0000
  O   O25       1.0  0.50000  0.75000  0.79382  1.0000
  O   O26       1.0  0.00000  0.25000  0.29382  1.0000
  O   O27       1.0  0.50000  0.25000  0.70618  1.0000
  O   O28       1.0  0.00000  0.75000  0.20618  1.0000
  O   O29       1.0  0.79382  0.50000  0.75000  1.0000
  O   O30       1.0  0.29382  0.00000  0.25000  1.0000
  O   O31       1.0  0.70618  0.50000  0.25000  1.0000
  O   O32       1.0  0.20618  0.00000  0.75000  1.0000
  O   O33       1.0  0.75000  0.79382  0.50000  1.0000
  O   O34       1.0  0.25000  0.29382  0.00000  1.0000
  O   O35       1.0  0.25000  0.70618  0.50000  1.0000
  O   O36       1.0  0.75000  0.20618  0.00000  1.0000
  O   O37       1.0  0.00000  0.25000  0.95618  1.0000
  O   O38       1.0  0.50000  0.75000  0.45618  1.0000
  O   O39       1.0  0.50000  0.25000  0.04382  1.0000
  O   O40       1.0  0.00000  0.75000  0.54382  1.0000
  O   O41       1.0  0.75000  0.54382  0.00000  1.0000
  O   O42       1.0  0.25000  0.04382  0.50000  1.0000
  O   O43       1.0  0.75000  0.45618  0.50000  1.0000
  O   O44       1.0  0.25000  0.95618  0.00000  1.0000
  O   O45       1.0  0.04382  0.50000  0.25000  1.0000
  O   O46       1.0  0.54382  0.00000  0.75000  1.0000
  O   O47       1.0  0.95618  0.00000  0.25000  1.0000
  O   O48       1.0  0.45618  0.50000  0.75000  1.0000
  C   C481      1.0  0.47090  0.19730  0.19550  1.0000
  C   C482      1.0  0.02910  0.80270  0.69550  1.0000
  C   C483      1.0  0.52910  0.69730  0.30450  1.0000
  C   C484      1.0  0.97090  0.30270  0.80450  1.0000
  C   C485      1.0  0.19550  0.47090  0.19730  1.0000
  C   C486      1.0  0.69550  0.02910  0.80270  1.0000
  C   C487      1.0  0.30450  0.52910  0.69730  1.0000
  C   C488      1.0  0.80450  0.97090  0.30270  1.0000
  C   C489      1.0  0.19730  0.19550  0.47090  1.0000
  C   C490      1.0  0.80270  0.69550  0.02910  1.0000
  C   C491      1.0  0.69730  0.30450  0.52910  1.0000
  C   C492      1.0  0.30270  0.80450  0.97090  1.0000
  C   C493      1.0  0.94730  0.72090  0.05450  1.0000
  C   C494      1.0  0.55270  0.27910  0.55450  1.0000
  C   C495      1.0  0.44730  0.77910  0.94550  1.0000
  C   C496      1.0  0.05270  0.22090  0.44550  1.0000
  C   C497      1.0  0.22090  0.44550  0.05270  1.0000
  C   C498      1.0  0.77910  0.94550  0.44730  1.0000
  C   C499      1.0  0.27910  0.55450  0.55270  1.0000
  C   C500      1.0  0.72090  0.05450  0.94730  1.0000
  C   C501      1.0  0.94550  0.44730  0.77910  1.0000
  C   C502      1.0  0.44550  0.05270  0.22090  1.0000
  C   C503      1.0  0.05450  0.94730  0.72090  1.0000
  C   C504      1.0  0.55450  0.55270  0.27910  1.0000
  C   C505      1.0  0.97090  0.69730  0.69550  1.0000
  C   C506      1.0  0.52910  0.30270  0.19550  1.0000
  C   C507      1.0  0.02910  0.19730  0.80450  1.0000
  C   C508      1.0  0.47090  0.80270  0.30450  1.0000
  C   C509      1.0  0.69550  0.97090  0.69730  1.0000
  C   C510      1.0  0.19550  0.52910  0.30270  1.0000
  C   C511      1.0  0.80450  0.02910  0.19730  1.0000
  C   C512      1.0  0.30450  0.47090  0.80270  1.0000
  C   C513      1.0  0.69730  0.69550  0.97090  1.0000
  C   C514      1.0  0.30270  0.19550  0.52910  1.0000
  C   C515      1.0  0.19730  0.80450  0.02910  1.0000
  C   C516      1.0  0.80270  0.30450  0.47090  1.0000
  C   C517      1.0  0.44730  0.22090  0.55450  1.0000
  C   C518      1.0  0.05270  0.77910  0.05450  1.0000
  C   C519      1.0  0.94730  0.27910  0.44550  1.0000
  C   C520      1.0  0.55270  0.72090  0.94550  1.0000
  C   C521      1.0  0.72090  0.94550  0.55270  1.0000
  C   C522      1.0  0.27910  0.44550  0.94730  1.0000
  C   C523      1.0  0.77910  0.05450  0.05270  1.0000
  C   C524      1.0  0.22090  0.55450  0.44730  1.0000
  C   C525      1.0  0.44550  0.94730  0.27910  1.0000
  C   C526      1.0  0.94550  0.55270  0.72090  1.0000
  C   C527      1.0  0.55450  0.44730  0.22090  1.0000
  C   C528      1.0  0.05450  0.05270  0.77910  1.0000
  C   C529      1.0  0.52910  0.80270  0.80450  1.0000
  C   C530      1.0  0.97090  0.19730  0.30450  1.0000
  C   C531      1.0  0.47090  0.30270  0.69550  1.0000
  C   C532      1.0  0.02910  0.69730  0.19550  1.0000
  C   C533      1.0  0.80450  0.52910  0.80270  1.0000
  C   C534      1.0  0.30450  0.97090  0.19730  1.0000
  C   C535      1.0  0.69550  0.47090  0.30270  1.0000
  C   C536      1.0  0.19550  0.02910  0.69730  1.0000
  C   C537      1.0  0.80270  0.80450  0.52910  1.0000
  C   C538      1.0  0.19730  0.30450  0.97090  1.0000
  C   C539      1.0  0.30270  0.69550  0.47090  1.0000
  C   C540      1.0  0.69730  0.19550  0.02910  1.0000
  C   C541      1.0  0.05270  0.27910  0.94550  1.0000
  C   C542      1.0  0.44730  0.72090  0.44550  1.0000
  C   C543      1.0  0.55270  0.22090  0.05450  1.0000
  C   C544      1.0  0.94730  0.77910  0.55450  1.0000
  C   C545      1.0  0.77910  0.55450  0.94730  1.0000
  C   C546      1.0  0.22090  0.05450  0.55270  1.0000
  C   C547      1.0  0.72090  0.44550  0.44730  1.0000
  C   C548      1.0  0.27910  0.94550  0.05270  1.0000
  C   C549      1.0  0.05450  0.55270  0.22090  1.0000
  C   C550      1.0  0.55450  0.94730  0.77910  1.0000
  C   C551      1.0  0.94550  0.05270  0.27910  1.0000
  C   C552      1.0  0.44550  0.44730  0.72090  1.0000
  C   C553      1.0  0.02910  0.30270  0.30450  1.0000
  C   C554      1.0  0.47090  0.69730  0.80450  1.0000
  C   C555      1.0  0.97090  0.80270  0.19550  1.0000
  C   C556      1.0  0.52910  0.19730  0.69550  1.0000
  C   C557      1.0  0.30450  0.02910  0.30270  1.0000
  C   C558      1.0  0.80450  0.47090  0.69730  1.0000
  C   C559      1.0  0.19550  0.97090  0.80270  1.0000
  C   C560      1.0  0.69550  0.52910  0.19730  1.0000
  C   C561      1.0  0.30270  0.30450  0.02910  1.0000
  C   C562      1.0  0.69730  0.80450  0.47090  1.0000
  C   C563      1.0  0.80270  0.19550  0.97090  1.0000
  C   C564      1.0  0.19730  0.69550  0.52910  1.0000
  C   C565      1.0  0.55270  0.77910  0.44550  1.0000
  C   C566      1.0  0.94730  0.22090  0.94550  1.0000
  C   C567      1.0  0.05270  0.72090  0.55450  1.0000
  C   C568      1.0  0.44730  0.27910  0.05450  1.0000
  C   C569      1.0  0.27910  0.05450  0.44730  1.0000
  C   C570      1.0  0.72090  0.55450  0.05270  1.0000
  C   C571      1.0  0.22090  0.94550  0.94730  1.0000
  C   C572      1.0  0.77910  0.44550  0.55270  1.0000
  C   C573      1.0  0.55450  0.05270  0.72090  1.0000
  C   C574      1.0  0.05450  0.44730  0.27910  1.0000
  C   C575      1.0  0.44550  0.55270  0.77910  1.0000
  C   C576      1.0  0.94550  0.94730  0.22090  1.0000
  O   O49       1.0  0.47684  0.21104  0.20520  1.0000
  O   O50       1.0  0.02316  0.78896  0.70520  1.0000
  O   O51       1.0  0.52316  0.71104  0.29480  1.0000
  O   O52       1.0  0.97684  0.28896  0.79480  1.0000
  O   O53       1.0  0.20520  0.47684  0.21104  1.0000
  O   O54       1.0  0.70520  0.02316  0.78896  1.0000
  O   O55       1.0  0.29480  0.52316  0.71104  1.0000
  O   O56       1.0  0.79480  0.97684  0.28896  1.0000
  O   O57       1.0  0.21104  0.20520  0.47684  1.0000
  O   O58       1.0  0.78896  0.70520  0.02316  1.0000
  O   O59       1.0  0.71104  0.29480  0.52316  1.0000
  O   O60       1.0  0.28896  0.79480  0.97684  1.0000
  O   O61       1.0  0.96104  0.72684  0.04480  1.0000
  O   O62       1.0  0.53896  0.27316  0.54480  1.0000
  O   O63       1.0  0.46104  0.77316  0.95520  1.0000
  O   O64       1.0  0.03896  0.22684  0.45520  1.0000
  O   O65       1.0  0.22684  0.45520  0.03896  1.0000
  O   O66       1.0  0.77316  0.95520  0.46104  1.0000
  O   O67       1.0  0.27316  0.54480  0.53896  1.0000
  O   O68       1.0  0.72684  0.04480  0.96104  1.0000
  O   O69       1.0  0.95520  0.46104  0.77316  1.0000
  O   O70       1.0  0.45520  0.03896  0.22684  1.0000
  O   O71       1.0  0.04480  0.96104  0.72684  1.0000
  O   O72       1.0  0.54480  0.53896  0.27316  1.0000
  O   O73       1.0  0.97684  0.71104  0.70520  1.0000
  O   O74       1.0  0.52316  0.28896  0.20520  1.0000
  O   O75       1.0  0.02316  0.21104  0.79480  1.0000
  O   O76       1.0  0.47684  0.78896  0.29480  1.0000
  O   O77       1.0  0.70520  0.97684  0.71104  1.0000
  O   O78       1.0  0.20520  0.52316  0.28896  1.0000
  O   O79       1.0  0.79480  0.02316  0.21104  1.0000
  O   O80       1.0  0.29480  0.47684  0.78896  1.0000
  O   O81       1.0  0.71104  0.70520  0.97684  1.0000
  O   O82       1.0  0.28896  0.20520  0.52316  1.0000
  O   O83       1.0  0.21104  0.79480  0.02316  1.0000
  O   O84       1.0  0.78896  0.29480  0.47684  1.0000
  O   O85       1.0  0.46104  0.22684  0.54480  1.0000
  O   O86       1.0  0.03896  0.77316  0.04480  1.0000
  O   O87       1.0  0.96104  0.27316  0.45520  1.0000
  O   O88       1.0  0.53896  0.72684  0.95520  1.0000
  O   O89       1.0  0.72684  0.95520  0.53896  1.0000
  O   O90       1.0  0.27316  0.45520  0.96104  1.0000
  O   O91       1.0  0.77316  0.04480  0.03896  1.0000
  O   O92       1.0  0.22684  0.54480  0.46104  1.0000
  O   O93       1.0  0.45520  0.96104  0.27316  1.0000
  O   O94       1.0  0.95520  0.53896  0.72684  1.0000
  O   O95       1.0  0.54480  0.46104  0.22684  1.0000
  O   O96       1.0  0.04480  0.03896  0.77316  1.0000
  O   O97       1.0  0.52316  0.78896  0.79480  1.0000
  O   O98       1.0  0.97684  0.21104  0.29480  1.0000
  O   O99       1.0  0.47684  0.28896  0.70520  1.0000
  O   O100      1.0  0.02316  0.71104  0.20520  1.0000
  O   O101      1.0  0.79480  0.52316  0.78896  1.0000
  O   O102      1.0  0.29480  0.97684  0.21104  1.0000
  O   O103      1.0  0.70520  0.47684  0.28896  1.0000
  O   O104      1.0  0.20520  0.02316  0.71104  1.0000
  O   O105      1.0  0.78896  0.79480  0.52316  1.0000
  O   O106      1.0  0.21104  0.29480  0.97684  1.0000
  O   O107      1.0  0.28896  0.70520  0.47684  1.0000
  O   O108      1.0  0.71104  0.20520  0.02316  1.0000
  O   O109      1.0  0.03896  0.27316  0.95520  1.0000
  O   O110      1.0  0.46104  0.72684  0.45520  1.0000
  O   O111      1.0  0.53896  0.22684  0.04480  1.0000
  O   O112      1.0  0.96104  0.77316  0.54480  1.0000
  O   O113      1.0  0.77316  0.54480  0.96104  1.0000
  O   O114      1.0  0.22684  0.04480  0.53896  1.0000
  O   O115      1.0  0.72684  0.45520  0.46104  1.0000
  O   O116      1.0  0.27316  0.95520  0.03896  1.0000
  O   O117      1.0  0.04480  0.53896  0.22684  1.0000
  O   O118      1.0  0.54480  0.96104  0.77316  1.0000
  O   O119      1.0  0.95520  0.03896  0.27316  1.0000
  O   O120      1.0  0.45520  0.46104  0.72684  1.0000
  O   O121      1.0  0.02316  0.28896  0.29480  1.0000
  O   O122      1.0  0.47684  0.71104  0.79480  1.0000
  O   O123      1.0  0.97684  0.78896  0.20520  1.0000
  O   O124      1.0  0.52316  0.21104  0.70520  1.0000
  O   O125      1.0  0.29480  0.02316  0.28896  1.0000
  O   O126      1.0  0.79480  0.47684  0.71104  1.0000
  O   O127      1.0  0.20520  0.97684  0.78896  1.0000
  O   O128      1.0  0.70520  0.52316  0.21104  1.0000
  O   O129      1.0  0.28896  0.29480  0.02316  1.0000
  O   O130      1.0  0.71104  0.79480  0.47684  1.0000
  O   O131      1.0  0.78896  0.20520  0.97684  1.0000
  O   O132      1.0  0.21104  0.70520  0.52316  1.0000
  O   O133      1.0  0.53896  0.77316  0.45520  1.0000
  O   O134      1.0  0.96104  0.22684  0.95520  1.0000
  O   O135      1.0  0.03896  0.72684  0.54480  1.0000
  O   O136      1.0  0.46104  0.27316  0.04480  1.0000
  O   O137      1.0  0.27316  0.04480  0.46104  1.0000
  O   O138      1.0  0.72684  0.54480  0.03896  1.0000
  O   O139      1.0  0.22684  0.95520  0.96104  1.0000
  O   O140      1.0  0.77316  0.45520  0.53896  1.0000
  O   O141      1.0  0.54480  0.03896  0.72684  1.0000
  O   O142      1.0  0.04480  0.46104  0.27316  1.0000
  O   O143      1.0  0.45520  0.53896  0.77316  1.0000
  O   O144      1.0  0.95520  0.96104  0.22684  1.0000
  O   O145      1.0  0.47244  0.19581  0.17792  1.0000
  O   O146      1.0  0.02756  0.80419  0.67792  1.0000
  O   O147      1.0  0.52756  0.69581  0.32208  1.0000
  O   O148      1.0  0.97244  0.30419  0.82208  1.0000
  O   O149      1.0  0.17792  0.47244  0.19581  1.0000
  O   O150      1.0  0.67792  0.02756  0.80419  1.0000
  O   O151      1.0  0.32208  0.52756  0.69581  1.0000
  O   O152      1.0  0.82208  0.97244  0.30419  1.0000
  O   O153      1.0  0.19581  0.17792  0.47244  1.0000
  O   O154      1.0  0.80419  0.67792  0.02756  1.0000
  O   O155      1.0  0.69581  0.32208  0.52756  1.0000
  O   O156      1.0  0.30419  0.82208  0.97244  1.0000
  O   O157      1.0  0.94581  0.72244  0.07208  1.0000
  O   O158      1.0  0.55419  0.27756  0.57208  1.0000
  O   O159      1.0  0.44581  0.77756  0.92792  1.0000
  O   O160      1.0  0.05419  0.22244  0.42792  1.0000
  O   O161      1.0  0.22244  0.42792  0.05419  1.0000
  O   O162      1.0  0.77756  0.92792  0.44581  1.0000
  O   O163      1.0  0.27756  0.57208  0.55419  1.0000
  O   O164      1.0  0.72244  0.07208  0.94581  1.0000
  O   O165      1.0  0.92792  0.44581  0.77756  1.0000
  O   O166      1.0  0.42792  0.05419  0.22244  1.0000
  O   O167      1.0  0.07208  0.94581  0.72244  1.0000
  O   O168      1.0  0.57208  0.55419  0.27756  1.0000
  O   O169      1.0  0.97244  0.69581  0.67792  1.0000
  O   O170      1.0  0.52756  0.30419  0.17792  1.0000
  O   O171      1.0  0.02756  0.19581  0.82208  1.0000
  O   O172      1.0  0.47244  0.80419  0.32208  1.0000
  O   O173      1.0  0.67792  0.97244  0.69581  1.0000
  O   O174      1.0  0.17792  0.52756  0.30419  1.0000
  O   O175      1.0  0.82208  0.02756  0.19581  1.0000
  O   O176      1.0  0.32208  0.47244  0.80419  1.0000
  O   O177      1.0  0.69581  0.67792  0.97244  1.0000
  O   O178      1.0  0.30419  0.17792  0.52756  1.0000
  O   O179      1.0  0.19581  0.82208  0.02756  1.0000
  O   O180      1.0  0.80419  0.32208  0.47244  1.0000
  O   O181      1.0  0.44581  0.22244  0.57208  1.0000
  O   O182      1.0  0.05419  0.77756  0.07208  1.0000
  O   O183      1.0  0.94581  0.27756  0.42792  1.0000
  O   O184      1.0  0.55419  0.72244  0.92792  1.0000
  O   O185      1.0  0.72244  0.92792  0.55419  1.0000
  O   O186      1.0  0.27756  0.42792  0.94581  1.0000
  O   O187      1.0  0.77756  0.07208  0.05419  1.0000
  O   O188      1.0  0.22244  0.57208  0.44581  1.0000
  O   O189      1.0  0.42792  0.94581  0.27756  1.0000
  O   O190      1.0  0.92792  0.55419  0.72244  1.0000
  O   O191      1.0  0.57208  0.44581  0.22244  1.0000
  O   O192      1.0  0.07208  0.05419  0.77756  1.0000
  O   O193      1.0  0.52756  0.80419  0.82208  1.0000
  O   O194      1.0  0.97244  0.19581  0.32208  1.0000
  O   O195      1.0  0.47244  0.30419  0.67792  1.0000
  O   O196      1.0  0.02756  0.69581  0.17792  1.0000
  O   O197      1.0  0.82208  0.52756  0.80419  1.0000
  O   O198      1.0  0.32208  0.97244  0.19581  1.0000
  O   O199      1.0  0.67792  0.47244  0.30419  1.0000
  O   O200      1.0  0.17792  0.02756  0.69581  1.0000
  O   O201      1.0  0.80419  0.82208  0.52756  1.0000
  O   O202      1.0  0.19581  0.32208  0.97244  1.0000
  O   O203      1.0  0.30419  0.67792  0.47244  1.0000
  O   O204      1.0  0.69581  0.17792  0.02756  1.0000
  O   O205      1.0  0.05419  0.27756  0.92792  1.0000
  O   O206      1.0  0.44581  0.72244  0.42792  1.0000
  O   O207      1.0  0.55419  0.22244  0.07208  1.0000
  O   O208      1.0  0.94581  0.77756  0.57208  1.0000
  O   O209      1.0  0.77756  0.57208  0.94581  1.0000
  O   O210      1.0  0.22244  0.07208  0.55419  1.0000
  O   O211      1.0  0.72244  0.42792  0.44581  1.0000
  O   O212      1.0  0.27756  0.92792  0.05419  1.0000
  O   O213      1.0  0.07208  0.55419  0.22244  1.0000
  O   O214      1.0  0.57208  0.94581  0.77756  1.0000
  O   O215      1.0  0.92792  0.05419  0.27756  1.0000
  O   O216      1.0  0.42792  0.44581  0.72244  1.0000
  O   O217      1.0  0.02756  0.30419  0.32208  1.0000
  O   O218      1.0  0.47244  0.69581  0.82208  1.0000
  O   O219      1.0  0.97244  0.80419  0.17792  1.0000
  O   O220      1.0  0.52756  0.19581  0.67792  1.0000
  O   O221      1.0  0.32208  0.02756  0.30419  1.0000
  O   O222      1.0  0.82208  0.47244  0.69581  1.0000
  O   O223      1.0  0.17792  0.97244  0.80419  1.0000
  O   O224      1.0  0.67792  0.52756  0.19581  1.0000
  O   O225      1.0  0.30419  0.32208  0.02756  1.0000
  O   O226      1.0  0.69581  0.82208  0.47244  1.0000
  O   O227      1.0  0.80419  0.17792  0.97244  1.0000
  O   O228      1.0  0.19581  0.67792  0.52756  1.0000
  O   O229      1.0  0.55419  0.77756  0.42792  1.0000
  O   O230      1.0  0.94581  0.22244  0.92792  1.0000
  O   O231      1.0  0.05419  0.72244  0.57208  1.0000
  O   O232      1.0  0.44581  0.27756  0.07208  1.0000
  O   O233      1.0  0.27756  0.07208  0.44581  1.0000
  O   O234      1.0  0.72244  0.57208  0.05419  1.0000
  O   O235      1.0  0.22244  0.92792  0.94581  1.0000
  O   O236      1.0  0.77756  0.42792  0.55419  1.0000
  O   O237      1.0  0.57208  0.05419  0.72244  1.0000
  O   O238      1.0  0.07208  0.44581  0.27756  1.0000
  O   O239      1.0  0.42792  0.55419  0.77756  1.0000
  O   O240      1.0  0.92792  0.94581  0.22244  1.0000
  C   C577      1.0  0.45977  0.18176  0.20610  1.0000
  C   C578      1.0  0.04023  0.81824  0.70610  1.0000
  C   C579      1.0  0.54023  0.68176  0.29390  1.0000
  C   C580      1.0  0.95977  0.31824  0.79390  1.0000
  C   C581      1.0  0.20610  0.45977  0.18176  1.0000
  C   C582      1.0  0.70610  0.04023  0.81824  1.0000
  C   C583      1.0  0.29390  0.54023  0.68176  1.0000
  C   C584      1.0  0.79390  0.95977  0.31824  1.0000
  C   C585      1.0  0.18176  0.20610  0.45977  1.0000
  C   C586      1.0  0.81824  0.70610  0.04023  1.0000
  C   C587      1.0  0.68176  0.29390  0.54023  1.0000
  C   C588      1.0  0.31824  0.79390  0.95977  1.0000
  C   C589      1.0  0.93176  0.70977  0.04390  1.0000
  C   C590      1.0  0.56824  0.29023  0.54390  1.0000
  C   C591      1.0  0.43176  0.79023  0.95610  1.0000
  C   C592      1.0  0.06824  0.20977  0.45610  1.0000
  C   C593      1.0  0.20977  0.45610  0.06824  1.0000
  C   C594      1.0  0.79023  0.95610  0.43176  1.0000
  C   C595      1.0  0.29023  0.54390  0.56824  1.0000
  C   C596      1.0  0.70977  0.04390  0.93176  1.0000
  C   C597      1.0  0.95610  0.43176  0.79023  1.0000
  C   C598      1.0  0.45610  0.06824  0.20977  1.0000
  C   C599      1.0  0.04390  0.93176  0.70977  1.0000
  C   C600      1.0  0.54390  0.56824  0.29023  1.0000
  C   C601      1.0  0.95977  0.68176  0.70610  1.0000
  C   C602      1.0  0.54023  0.31824  0.20610  1.0000
  C   C603      1.0  0.04023  0.18176  0.79390  1.0000
  C   C604      1.0  0.45977  0.81824  0.29390  1.0000
  C   C605      1.0  0.70610  0.95977  0.68176  1.0000
  C   C606      1.0  0.20610  0.54023  0.31824  1.0000
  C   C607      1.0  0.79390  0.04023  0.18176  1.0000
  C   C608      1.0  0.29390  0.45977  0.81824  1.0000
  C   C609      1.0  0.68176  0.70610  0.95977  1.0000
  C   C610      1.0  0.31824  0.20610  0.54023  1.0000
  C   C611      1.0  0.18176  0.79390  0.04023  1.0000
  C   C612      1.0  0.81824  0.29390  0.45977  1.0000
  C   C613      1.0  0.43176  0.20977  0.54390  1.0000
  C   C614      1.0  0.06824  0.79023  0.04390  1.0000
  C   C615      1.0  0.93176  0.29023  0.45610  1.0000
  C   C616      1.0  0.56824  0.70977  0.95610  1.0000
  C   C617      1.0  0.70977  0.95610  0.56824  1.0000
  C   C618      1.0  0.29023  0.45610  0.93176  1.0000
  C   C619      1.0  0.79023  0.04390  0.06824  1.0000
  C   C620      1.0  0.20977  0.54390  0.43176  1.0000
  C   C621      1.0  0.45610  0.93176  0.29023  1.0000
  C   C622      1.0  0.95610  0.56824  0.70977  1.0000
  C   C623      1.0  0.54390  0.43176  0.20977  1.0000
  C   C624      1.0  0.04390  0.06824  0.79023  1.0000
  C   C625      1.0  0.54023  0.81824  0.79390  1.0000
  C   C626      1.0  0.95977  0.18176  0.29390  1.0000
  C   C627      1.0  0.45977  0.31824  0.70610  1.0000
  C   C628      1.0  0.04023  0.68176  0.20610  1.0000
  C   C629      1.0  0.79390  0.54023  0.81824  1.0000
  C   C630      1.0  0.29390  0.95977  0.18176  1.0000
  C   C631      1.0  0.70610  0.45977  0.31824  1.0000
  C   C632      1.0  0.20610  0.04023  0.68176  1.0000
  C   C633      1.0  0.81824  0.79390  0.54023  1.0000
  C   C634      1.0  0.18176  0.29390  0.95977  1.0000
  C   C635      1.0  0.31824  0.70610  0.45977  1.0000
  C   C636      1.0  0.68176  0.20610  0.04023  1.0000
  C   C637      1.0  0.06824  0.29023  0.95610  1.0000
  C   C638      1.0  0.43176  0.70977  0.45610  1.0000
  C   C639      1.0  0.56824  0.20977  0.04390  1.0000
  C   C640      1.0  0.93176  0.79023  0.54390  1.0000
  C   C641      1.0  0.79023  0.54390  0.93176  1.0000
  C   C642      1.0  0.20977  0.04390  0.56824  1.0000
  C   C643      1.0  0.70977  0.45610  0.43176  1.0000
  C   C644      1.0  0.29023  0.95610  0.06824  1.0000
  C   C645      1.0  0.04390  0.56824  0.20977  1.0000
  C   C646      1.0  0.54390  0.93176  0.79023  1.0000
  C   C647      1.0  0.95610  0.06824  0.29023  1.0000
  C   C648      1.0  0.45610  0.43176  0.70977  1.0000
  C   C649      1.0  0.04023  0.31824  0.29390  1.0000
  C   C650      1.0  0.45977  0.68176  0.79390  1.0000
  C   C651      1.0  0.95977  0.81824  0.20610  1.0000
  C   C652      1.0  0.54023  0.18176  0.70610  1.0000
  C   C653      1.0  0.29390  0.04023  0.31824  1.0000
  C   C654      1.0  0.79390  0.45977  0.68176  1.0000
  C   C655      1.0  0.20610  0.95977  0.81824  1.0000
  C   C656      1.0  0.70610  0.54023  0.18176  1.0000
  C   C657      1.0  0.31824  0.29390  0.04023  1.0000
  C   C658      1.0  0.68176  0.79390  0.45977  1.0000
  C   C659      1.0  0.81824  0.20610  0.95977  1.0000
  C   C660      1.0  0.18176  0.70610  0.54023  1.0000
  C   C661      1.0  0.56824  0.79023  0.45610  1.0000
  C   C662      1.0  0.93176  0.20977  0.95610  1.0000
  C   C663      1.0  0.06824  0.70977  0.54390  1.0000
  C   C664      1.0  0.43176  0.29023  0.04390  1.0000
  C   C665      1.0  0.29023  0.04390  0.43176  1.0000
  C   C666      1.0  0.70977  0.54390  0.06824  1.0000
  C   C667      1.0  0.20977  0.95610  0.93176  1.0000
  C   C668      1.0  0.79023  0.45610  0.56824  1.0000
  C   C669      1.0  0.54390  0.06824  0.70977  1.0000
  C   C670      1.0  0.04390  0.43176  0.29023  1.0000
  C   C671      1.0  0.45610  0.56824  0.79023  1.0000
  C   C672      1.0  0.95610  0.93176  0.20977  1.0000
  C   C673      1.0  0.45120  0.16717  0.19656  1.0000
  C   C674      1.0  0.04880  0.83283  0.69656  1.0000
  C   C675      1.0  0.54880  0.66717  0.30344  1.0000
  C   C676      1.0  0.95120  0.33283  0.80344  1.0000
  C   C677      1.0  0.19656  0.45120  0.16717  1.0000
  C   C678      1.0  0.69656  0.04880  0.83283  1.0000
  C   C679      1.0  0.30344  0.54880  0.66717  1.0000
  C   C680      1.0  0.80344  0.95120  0.33283  1.0000
  C   C681      1.0  0.16717  0.19656  0.45120  1.0000
  C   C682      1.0  0.83283  0.69656  0.04880  1.0000
  C   C683      1.0  0.66717  0.30344  0.54880  1.0000
  C   C684      1.0  0.33283  0.80344  0.95120  1.0000
  C   C685      1.0  0.91717  0.70120  0.05344  1.0000
  C   C686      1.0  0.58283  0.29880  0.55344  1.0000
  C   C687      1.0  0.41717  0.79880  0.94656  1.0000
  C   C688      1.0  0.08283  0.20120  0.44656  1.0000
  C   C689      1.0  0.20120  0.44656  0.08283  1.0000
  C   C690      1.0  0.79880  0.94656  0.41717  1.0000
  C   C691      1.0  0.29880  0.55344  0.58283  1.0000
  C   C692      1.0  0.70120  0.05344  0.91717  1.0000
  C   C693      1.0  0.94656  0.41717  0.79880  1.0000
  C   C694      1.0  0.44656  0.08283  0.20120  1.0000
  C   C695      1.0  0.05344  0.91717  0.70120  1.0000
  C   C696      1.0  0.55344  0.58283  0.29880  1.0000
  C   C697      1.0  0.95120  0.66717  0.69656  1.0000
  C   C698      1.0  0.54880  0.33283  0.19656  1.0000
  C   C699      1.0  0.04880  0.16717  0.80344  1.0000
  C   C700      1.0  0.45120  0.83283  0.30344  1.0000
  C   C701      1.0  0.69656  0.95120  0.66717  1.0000
  C   C702      1.0  0.19656  0.54880  0.33283  1.0000
  C   C703      1.0  0.80344  0.04880  0.16717  1.0000
  C   C704      1.0  0.30344  0.45120  0.83283  1.0000
  C   C705      1.0  0.66717  0.69656  0.95120  1.0000
  C   C706      1.0  0.33283  0.19656  0.54880  1.0000
  C   C707      1.0  0.16717  0.80344  0.04880  1.0000
  C   C708      1.0  0.83283  0.30344  0.45120  1.0000
  C   C709      1.0  0.41717  0.20120  0.55344  1.0000
  C   C710      1.0  0.08283  0.79880  0.05344  1.0000
  C   C711      1.0  0.91717  0.29880  0.44656  1.0000
  C   C712      1.0  0.58283  0.70120  0.94656  1.0000
  C   C713      1.0  0.70120  0.94656  0.58283  1.0000
  C   C714      1.0  0.29880  0.44656  0.91717  1.0000
  C   C715      1.0  0.79880  0.05344  0.08283  1.0000
  C   C716      1.0  0.20120  0.55344  0.41717  1.0000
  C   C717      1.0  0.44656  0.91717  0.29880  1.0000
  C   C718      1.0  0.94656  0.58283  0.70120  1.0000
  C   C719      1.0  0.55344  0.41717  0.20120  1.0000
  C   C720      1.0  0.05344  0.08283  0.79880  1.0000
  C   C721      1.0  0.54880  0.83283  0.80344  1.0000
  C   C722      1.0  0.95120  0.16717  0.30344  1.0000
  C   C723      1.0  0.45120  0.33283  0.69656  1.0000
  C   C724      1.0  0.04880  0.66717  0.19656  1.0000
  C   C725      1.0  0.80344  0.54880  0.83283  1.0000
  C   C726      1.0  0.30344  0.95120  0.16717  1.0000
  C   C727      1.0  0.69656  0.45120  0.33283  1.0000
  C   C728      1.0  0.19656  0.04880  0.66717  1.0000
  C   C729      1.0  0.83283  0.80344  0.54880  1.0000
  C   C730      1.0  0.16717  0.30344  0.95120  1.0000
  C   C731      1.0  0.33283  0.69656  0.45120  1.0000
  C   C732      1.0  0.66717  0.19656  0.04880  1.0000
  C   C733      1.0  0.08283  0.29880  0.94656  1.0000
  C   C734      1.0  0.41717  0.70120  0.44656  1.0000
  C   C735      1.0  0.58283  0.20120  0.05344  1.0000
  C   C736      1.0  0.91717  0.79880  0.55344  1.0000
  C   C737      1.0  0.79880  0.55344  0.91717  1.0000
  C   C738      1.0  0.20120  0.05344  0.58283  1.0000
  C   C739      1.0  0.70120  0.44656  0.41717  1.0000
  C   C740      1.0  0.29880  0.94656  0.08283  1.0000
  C   C741      1.0  0.05344  0.58283  0.20120  1.0000
  C   C742      1.0  0.55344  0.91717  0.79880  1.0000
  C   C743      1.0  0.94656  0.08283  0.29880  1.0000
  C   C744      1.0  0.44656  0.41717  0.70120  1.0000
  C   C745      1.0  0.04880  0.33283  0.30344  1.0000
  C   C746      1.0  0.45120  0.66717  0.80344  1.0000
  C   C747      1.0  0.95120  0.83283  0.19656  1.0000
  C   C748      1.0  0.54880  0.16717  0.69656  1.0000
  C   C749      1.0  0.30344  0.04880  0.33283  1.0000
  C   C750      1.0  0.80344  0.45120  0.66717  1.0000
  C   C751      1.0  0.19656  0.95120  0.83283  1.0000
  C   C752      1.0  0.69656  0.54880  0.16717  1.0000
  C   C753      1.0  0.33283  0.30344  0.04880  1.0000
  C   C754      1.0  0.66717  0.80344  0.45120  1.0000
  C   C755      1.0  0.83283  0.19656  0.95120  1.0000
  C   C756      1.0  0.16717  0.69656  0.54880  1.0000
  C   C757      1.0  0.58283  0.79880  0.44656  1.0000
  C   C758      1.0  0.91717  0.20120  0.94656  1.0000
  C   C759      1.0  0.08283  0.70120  0.55344  1.0000
  C   C760      1.0  0.41717  0.29880  0.05344  1.0000
  C   C761      1.0  0.29880  0.05344  0.41717  1.0000
  C   C762      1.0  0.70120  0.55344  0.08283  1.0000
  C   C763      1.0  0.20120  0.94656  0.91717  1.0000
  C   C764      1.0  0.79880  0.44656  0.58283  1.0000
  C   C765      1.0  0.55344  0.08283  0.70120  1.0000
  C   C766      1.0  0.05344  0.41717  0.29880  1.0000
  C   C767      1.0  0.44656  0.58283  0.79880  1.0000
  C   C768      1.0  0.94656  0.91717  0.20120  1.0000
  H   H385      1.0  0.45180  0.16680  0.18310  1.0000
  H   H386      1.0  0.04820  0.83320  0.68310  1.0000
  H   H387      1.0  0.54820  0.66680  0.31690  1.0000
  H   H388      1.0  0.95180  0.33320  0.81690  1.0000
  H   H389      1.0  0.18310  0.45180  0.16680  1.0000
  H   H390      1.0  0.68310  0.04820  0.83320  1.0000
  H   H391      1.0  0.31690  0.54820  0.66680  1.0000
  H   H392      1.0  0.81690  0.95180  0.33320  1.0000
  H   H393      1.0  0.16680  0.18310  0.45180  1.0000
  H   H394      1.0  0.83320  0.68310  0.04820  1.0000
  H   H395      1.0  0.66680  0.31690  0.54820  1.0000
  H   H396      1.0  0.33320  0.81690  0.95180  1.0000
  H   H397      1.0  0.91680  0.70180  0.06690  1.0000
  H   H398      1.0  0.58320  0.29820  0.56690  1.0000
  H   H399      1.0  0.41680  0.79820  0.93310  1.0000
  H   H400      1.0  0.08320  0.20180  0.43310  1.0000
  H   H401      1.0  0.20180  0.43310  0.08320  1.0000
  H   H402      1.0  0.79820  0.93310  0.41680  1.0000
  H   H403      1.0  0.29820  0.56690  0.58320  1.0000
  H   H404      1.0  0.70180  0.06690  0.91680  1.0000
  H   H405      1.0  0.93310  0.41680  0.79820  1.0000
  H   H406      1.0  0.43310  0.08320  0.20180  1.0000
  H   H407      1.0  0.06690  0.91680  0.70180  1.0000
  H   H408      1.0  0.56690  0.58320  0.29820  1.0000
  H   H409      1.0  0.95180  0.66680  0.68310  1.0000
  H   H410      1.0  0.54820  0.33320  0.18310  1.0000
  H   H411      1.0  0.04820  0.16680  0.81690  1.0000
  H   H412      1.0  0.45180  0.83320  0.31690  1.0000
  H   H413      1.0  0.68310  0.95180  0.66680  1.0000
  H   H414      1.0  0.18310  0.54820  0.33320  1.0000
  H   H415      1.0  0.81690  0.04820  0.16680  1.0000
  H   H416      1.0  0.31690  0.45180  0.83320  1.0000
  H   H417      1.0  0.66680  0.68310  0.95180  1.0000
  H   H418      1.0  0.33320  0.18310  0.54820  1.0000
  H   H419      1.0  0.16680  0.81690  0.04820  1.0000
  H   H420      1.0  0.83320  0.31690  0.45180  1.0000
  H   H421      1.0  0.41680  0.20180  0.56690  1.0000
  H   H422      1.0  0.08320  0.79820  0.06690  1.0000
  H   H423      1.0  0.91680  0.29820  0.43310  1.0000
  H   H424      1.0  0.58320  0.70180  0.93310  1.0000
  H   H425      1.0  0.70180  0.93310  0.58320  1.0000
  H   H426      1.0  0.29820  0.43310  0.91680  1.0000
  H   H427      1.0  0.79820  0.06690  0.08320  1.0000
  H   H428      1.0  0.20180  0.56690  0.41680  1.0000
  H   H429      1.0  0.43310  0.91680  0.29820  1.0000
  H   H430      1.0  0.93310  0.58320  0.70180  1.0000
  H   H431      1.0  0.56690  0.41680  0.20180  1.0000
  H   H432      1.0  0.06690  0.08320  0.79820  1.0000
  H   H433      1.0  0.54820  0.83320  0.81690  1.0000
  H   H434      1.0  0.95180  0.16680  0.31690  1.0000
  H   H435      1.0  0.45180  0.33320  0.68310  1.0000
  H   H436      1.0  0.04820  0.66680  0.18310  1.0000
  H   H437      1.0  0.81690  0.54820  0.83320  1.0000
  H   H438      1.0  0.31690  0.95180  0.16680  1.0000
  H   H439      1.0  0.68310  0.45180  0.33320  1.0000
  H   H440      1.0  0.18310  0.04820  0.66680  1.0000
  H   H441      1.0  0.83320  0.81690  0.54820  1.0000
  H   H442      1.0  0.16680  0.31690  0.95180  1.0000
  H   H443      1.0  0.33320  0.68310  0.45180  1.0000
  H   H444      1.0  0.66680  0.18310  0.04820  1.0000
  H   H445      1.0  0.08320  0.29820  0.93310  1.0000
  H   H446      1.0  0.41680  0.70180  0.43310  1.0000
  H   H447      1.0  0.58320  0.20180  0.06690  1.0000
  H   H448      1.0  0.91680  0.79820  0.56690  1.0000
  H   H449      1.0  0.79820  0.56690  0.91680  1.0000
  H   H450      1.0  0.20180  0.06690  0.58320  1.0000
  H   H451      1.0  0.70180  0.43310  0.41680  1.0000
  H   H452      1.0  0.29820  0.93310  0.08320  1.0000
  H   H453      1.0  0.06690  0.58320  0.20180  1.0000
  H   H454      1.0  0.56690  0.91680  0.79820  1.0000
  H   H455      1.0  0.93310  0.08320  0.29820  1.0000
  H   H456      1.0  0.43310  0.41680  0.70180  1.0000
  H   H457      1.0  0.04820  0.33320  0.31690  1.0000
  H   H458      1.0  0.45180  0.66680  0.81690  1.0000
  H   H459      1.0  0.95180  0.83320  0.18310  1.0000
  H   H460      1.0  0.54820  0.16680  0.68310  1.0000
  H   H461      1.0  0.31690  0.04820  0.33320  1.0000
  H   H462      1.0  0.81690  0.45180  0.66680  1.0000
  H   H463      1.0  0.18310  0.95180  0.83320  1.0000
  H   H464      1.0  0.68310  0.54820  0.16680  1.0000
  H   H465      1.0  0.33320  0.31690  0.04820  1.0000
  H   H466      1.0  0.66680  0.81690  0.45180  1.0000
  H   H467      1.0  0.83320  0.18310  0.95180  1.0000
  H   H468      1.0  0.16680  0.68310  0.54820  1.0000
  H   H469      1.0  0.58320  0.79820  0.43310  1.0000
  H   H470      1.0  0.91680  0.20180  0.93310  1.0000
  H   H471      1.0  0.08320  0.70180  0.56690  1.0000
  H   H472      1.0  0.41680  0.29820  0.06690  1.0000
  H   H473      1.0  0.29820  0.06690  0.41680  1.0000
  H   H474      1.0  0.70180  0.56690  0.08320  1.0000
  H   H475      1.0  0.20180  0.93310  0.91680  1.0000
  H   H476      1.0  0.79820  0.43310  0.58320  1.0000
  H   H477      1.0  0.56690  0.08320  0.70180  1.0000
  H   H478      1.0  0.06690  0.41680  0.29820  1.0000
  H   H479      1.0  0.43310  0.58320  0.79820  1.0000
  H   H480      1.0  0.93310  0.91680  0.20180  1.0000
  C   C769      1.0  0.44120  0.15233  0.20649  1.0000
  C   C770      1.0  0.05880  0.84767  0.70649  1.0000
  C   C771      1.0  0.55880  0.65233  0.29351  1.0000
  C   C772      1.0  0.94120  0.34767  0.79351  1.0000
  C   C773      1.0  0.20649  0.44120  0.15233  1.0000
  C   C774      1.0  0.70649  0.05880  0.84767  1.0000
  C   C775      1.0  0.29351  0.55880  0.65233  1.0000
  C   C776      1.0  0.79351  0.94120  0.34767  1.0000
  C   C777      1.0  0.15233  0.20649  0.44120  1.0000
  C   C778      1.0  0.84767  0.70649  0.05880  1.0000
  C   C779      1.0  0.65233  0.29351  0.55880  1.0000
  C   C780      1.0  0.34767  0.79351  0.94120  1.0000
  C   C781      1.0  0.90233  0.69120  0.04351  1.0000
  C   C782      1.0  0.59767  0.30880  0.54351  1.0000
  C   C783      1.0  0.40233  0.80880  0.95649  1.0000
  C   C784      1.0  0.09767  0.19120  0.45649  1.0000
  C   C785      1.0  0.19120  0.45649  0.09767  1.0000
  C   C786      1.0  0.80880  0.95649  0.40233  1.0000
  C   C787      1.0  0.30880  0.54351  0.59767  1.0000
  C   C788      1.0  0.69120  0.04351  0.90233  1.0000
  C   C789      1.0  0.95649  0.40233  0.80880  1.0000
  C   C790      1.0  0.45649  0.09767  0.19120  1.0000
  C   C791      1.0  0.04351  0.90233  0.69120  1.0000
  C   C792      1.0  0.54351  0.59767  0.30880  1.0000
  C   C793      1.0  0.94120  0.65233  0.70649  1.0000
  C   C794      1.0  0.55880  0.34767  0.20649  1.0000
  C   C795      1.0  0.05880  0.15233  0.79351  1.0000
  C   C796      1.0  0.44120  0.84767  0.29351  1.0000
  C   C797      1.0  0.70649  0.94120  0.65233  1.0000
  C   C798      1.0  0.20649  0.55880  0.34767  1.0000
  C   C799      1.0  0.79351  0.05880  0.15233  1.0000
  C   C800      1.0  0.29351  0.44120  0.84767  1.0000
  C   C801      1.0  0.65233  0.70649  0.94120  1.0000
  C   C802      1.0  0.34767  0.20649  0.55880  1.0000
  C   C803      1.0  0.15233  0.79351  0.05880  1.0000
  C   C804      1.0  0.84767  0.29351  0.44120  1.0000
  C   C805      1.0  0.40233  0.19120  0.54351  1.0000
  C   C806      1.0  0.09767  0.80880  0.04351  1.0000
  C   C807      1.0  0.90233  0.30880  0.45649  1.0000
  C   C808      1.0  0.59767  0.69120  0.95649  1.0000
  C   C809      1.0  0.69120  0.95649  0.59767  1.0000
  C   C810      1.0  0.30880  0.45649  0.90233  1.0000
  C   C811      1.0  0.80880  0.04351  0.09767  1.0000
  C   C812      1.0  0.19120  0.54351  0.40233  1.0000
  C   C813      1.0  0.45649  0.90233  0.30880  1.0000
  C   C814      1.0  0.95649  0.59767  0.69120  1.0000
  C   C815      1.0  0.54351  0.40233  0.19120  1.0000
  C   C816      1.0  0.04351  0.09767  0.80880  1.0000
  C   C817      1.0  0.55880  0.84767  0.79351  1.0000
  C   C818      1.0  0.94120  0.15233  0.29351  1.0000
  C   C819      1.0  0.44120  0.34767  0.70649  1.0000
  C   C820      1.0  0.05880  0.65233  0.20649  1.0000
  C   C821      1.0  0.79351  0.55880  0.84767  1.0000
  C   C822      1.0  0.29351  0.94120  0.15233  1.0000
  C   C823      1.0  0.70649  0.44120  0.34767  1.0000
  C   C824      1.0  0.20649  0.05880  0.65233  1.0000
  C   C825      1.0  0.84767  0.79351  0.55880  1.0000
  C   C826      1.0  0.15233  0.29351  0.94120  1.0000
  C   C827      1.0  0.34767  0.70649  0.44120  1.0000
  C   C828      1.0  0.65233  0.20649  0.05880  1.0000
  C   C829      1.0  0.09767  0.30880  0.95649  1.0000
  C   C830      1.0  0.40233  0.69120  0.45649  1.0000
  C   C831      1.0  0.59767  0.19120  0.04351  1.0000
  C   C832      1.0  0.90233  0.80880  0.54351  1.0000
  C   C833      1.0  0.80880  0.54351  0.90233  1.0000
  C   C834      1.0  0.19120  0.04351  0.59767  1.0000
  C   C835      1.0  0.69120  0.45649  0.40233  1.0000
  C   C836      1.0  0.30880  0.95649  0.09767  1.0000
  C   C837      1.0  0.04351  0.59767  0.19120  1.0000
  C   C838      1.0  0.54351  0.90233  0.80880  1.0000
  C   C839      1.0  0.95649  0.09767  0.30880  1.0000
  C   C840      1.0  0.45649  0.40233  0.69120  1.0000
  C   C841      1.0  0.05880  0.34767  0.29351  1.0000
  C   C842      1.0  0.44120  0.65233  0.79351  1.0000
  C   C843      1.0  0.94120  0.84767  0.20649  1.0000
  C   C844      1.0  0.55880  0.15233  0.70649  1.0000
  C   C845      1.0  0.29351  0.05880  0.34767  1.0000
  C   C846      1.0  0.79351  0.44120  0.65233  1.0000
  C   C847      1.0  0.20649  0.94120  0.84767  1.0000
  C   C848      1.0  0.70649  0.55880  0.15233  1.0000
  C   C849      1.0  0.34767  0.29351  0.05880  1.0000
  C   C850      1.0  0.65233  0.79351  0.44120  1.0000
  C   C851      1.0  0.84767  0.20649  0.94120  1.0000
  C   C852      1.0  0.15233  0.70649  0.55880  1.0000
  C   C853      1.0  0.59767  0.80880  0.45649  1.0000
  C   C854      1.0  0.90233  0.19120  0.95649  1.0000
  C   C855      1.0  0.09767  0.69120  0.54351  1.0000
  C   C856      1.0  0.40233  0.30880  0.04351  1.0000
  C   C857      1.0  0.30880  0.04351  0.40233  1.0000
  C   C858      1.0  0.69120  0.54351  0.09767  1.0000
  C   C859      1.0  0.19120  0.95649  0.90233  1.0000
  C   C860      1.0  0.80880  0.45649  0.59767  1.0000
  C   C861      1.0  0.54351  0.09767  0.69120  1.0000
  C   C862      1.0  0.04351  0.40233  0.30880  1.0000
  C   C863      1.0  0.45649  0.59767  0.80880  1.0000
  C   C864      1.0  0.95649  0.90233  0.19120  1.0000
  H   H481      1.0  0.43560  0.14220  0.19950  1.0000
  H   H482      1.0  0.06440  0.85780  0.69950  1.0000
  H   H483      1.0  0.56440  0.64220  0.30050  1.0000
  H   H484      1.0  0.93560  0.35780  0.80050  1.0000
  H   H485      1.0  0.19950  0.43560  0.14220  1.0000
  H   H486      1.0  0.69950  0.06440  0.85780  1.0000
  H   H487      1.0  0.30050  0.56440  0.64220  1.0000
  H   H488      1.0  0.80050  0.93560  0.35780  1.0000
  H   H489      1.0  0.14220  0.19950  0.43560  1.0000
  H   H490      1.0  0.85780  0.69950  0.06440  1.0000
  H   H491      1.0  0.64220  0.30050  0.56440  1.0000
  H   H492      1.0  0.35780  0.80050  0.93560  1.0000
  H   H493      1.0  0.89220  0.68560  0.05050  1.0000
  H   H494      1.0  0.60780  0.31440  0.55050  1.0000
  H   H495      1.0  0.39220  0.81440  0.94950  1.0000
  H   H496      1.0  0.10780  0.18560  0.44950  1.0000
  H   H497      1.0  0.18560  0.44950  0.10780  1.0000
  H   H498      1.0  0.81440  0.94950  0.39220  1.0000
  H   H499      1.0  0.31440  0.55050  0.60780  1.0000
  H   H500      1.0  0.68560  0.05050  0.89220  1.0000
  H   H501      1.0  0.94950  0.39220  0.81440  1.0000
  H   H502      1.0  0.44950  0.10780  0.18560  1.0000
  H   H503      1.0  0.05050  0.89220  0.68560  1.0000
  H   H504      1.0  0.55050  0.60780  0.31440  1.0000
  H   H505      1.0  0.93560  0.64220  0.69950  1.0000
  H   H506      1.0  0.56440  0.35780  0.19950  1.0000
  H   H507      1.0  0.06440  0.14220  0.80050  1.0000
  H   H508      1.0  0.43560  0.85780  0.30050  1.0000
  H   H509      1.0  0.69950  0.93560  0.64220  1.0000
  H   H510      1.0  0.19950  0.56440  0.35780  1.0000
  H   H511      1.0  0.80050  0.06440  0.14220  1.0000
  H   H512      1.0  0.30050  0.43560  0.85780  1.0000
  H   H513      1.0  0.64220  0.69950  0.93560  1.0000
  H   H514      1.0  0.35780  0.19950  0.56440  1.0000
  H   H515      1.0  0.14220  0.80050  0.06440  1.0000
  H   H516      1.0  0.85780  0.30050  0.43560  1.0000
  H   H517      1.0  0.39220  0.18560  0.55050  1.0000
  H   H518      1.0  0.10780  0.81440  0.05050  1.0000
  H   H519      1.0  0.89220  0.31440  0.44950  1.0000
  H   H520      1.0  0.60780  0.68560  0.94950  1.0000
  H   H521      1.0  0.68560  0.94950  0.60780  1.0000
  H   H522      1.0  0.31440  0.44950  0.89220  1.0000
  H   H523      1.0  0.81440  0.05050  0.10780  1.0000
  H   H524      1.0  0.18560  0.55050  0.39220  1.0000
  H   H525      1.0  0.44950  0.89220  0.31440  1.0000
  H   H526      1.0  0.94950  0.60780  0.68560  1.0000
  H   H527      1.0  0.55050  0.39220  0.18560  1.0000
  H   H528      1.0  0.05050  0.10780  0.81440  1.0000
  H   H529      1.0  0.56440  0.85780  0.80050  1.0000
  H   H530      1.0  0.93560  0.14220  0.30050  1.0000
  H   H531      1.0  0.43560  0.35780  0.69950  1.0000
  H   H532      1.0  0.06440  0.64220  0.19950  1.0000
  H   H533      1.0  0.80050  0.56440  0.85780  1.0000
  H   H534      1.0  0.30050  0.93560  0.14220  1.0000
  H   H535      1.0  0.69950  0.43560  0.35780  1.0000
  H   H536      1.0  0.19950  0.06440  0.64220  1.0000
  H   H537      1.0  0.85780  0.80050  0.56440  1.0000
  H   H538      1.0  0.14220  0.30050  0.93560  1.0000
  H   H539      1.0  0.35780  0.69950  0.43560  1.0000
  H   H540      1.0  0.64220  0.19950  0.06440  1.0000
  H   H541      1.0  0.10780  0.31440  0.94950  1.0000
  H   H542      1.0  0.39220  0.68560  0.44950  1.0000
  H   H543      1.0  0.60780  0.18560  0.05050  1.0000
  H   H544      1.0  0.89220  0.81440  0.55050  1.0000
  H   H545      1.0  0.81440  0.55050  0.89220  1.0000
  H   H546      1.0  0.18560  0.05050  0.60780  1.0000
  H   H547      1.0  0.68560  0.44950  0.39220  1.0000
  H   H548      1.0  0.31440  0.94950  0.10780  1.0000
  H   H549      1.0  0.05050  0.60780  0.18560  1.0000
  H   H550      1.0  0.55050  0.89220  0.81440  1.0000
  H   H551      1.0  0.94950  0.10780  0.31440  1.0000
  H   H552      1.0  0.44950  0.39220  0.68560  1.0000
  H   H553      1.0  0.06440  0.35780  0.30050  1.0000
  H   H554      1.0  0.43560  0.64220  0.80050  1.0000
  H   H555      1.0  0.93560  0.85780  0.19950  1.0000
  H   H556      1.0  0.56440  0.14220  0.69950  1.0000
  H   H557      1.0  0.30050  0.06440  0.35780  1.0000
  H   H558      1.0  0.80050  0.43560  0.64220  1.0000
  H   H559      1.0  0.19950  0.93560  0.85780  1.0000
  H   H560      1.0  0.69950  0.56440  0.14220  1.0000
  H   H561      1.0  0.35780  0.30050  0.06440  1.0000
  H   H562      1.0  0.64220  0.80050  0.43560  1.0000
  H   H563      1.0  0.85780  0.19950  0.93560  1.0000
  H   H564      1.0  0.14220  0.69950  0.56440  1.0000
  H   H565      1.0  0.60780  0.81440  0.44950  1.0000
  H   H566      1.0  0.89220  0.18560  0.94950  1.0000
  H   H567      1.0  0.10780  0.68560  0.55050  1.0000
  H   H568      1.0  0.39220  0.31440  0.05050  1.0000
  H   H569      1.0  0.31440  0.05050  0.39220  1.0000
  H   H570      1.0  0.68560  0.55050  0.10780  1.0000
  H   H571      1.0  0.18560  0.94950  0.89220  1.0000
  H   H572      1.0  0.81440  0.44950  0.60780  1.0000
  H   H573      1.0  0.55050  0.10780  0.68560  1.0000
  H   H574      1.0  0.05050  0.39220  0.31440  1.0000
  H   H575      1.0  0.44950  0.60780  0.81440  1.0000
  H   H576      1.0  0.94950  0.89220  0.18560  1.0000
  C   C865      1.0  0.43950  0.15267  0.22581  1.0000
  C   C866      1.0  0.06050  0.84733  0.72581  1.0000
  C   C867      1.0  0.56050  0.65267  0.27419  1.0000
  C   C868      1.0  0.93950  0.34733  0.77419  1.0000
  C   C869      1.0  0.22581  0.43950  0.15267  1.0000
  C   C870      1.0  0.72581  0.06050  0.84733  1.0000
  C   C871      1.0  0.27419  0.56050  0.65267  1.0000
  C   C872      1.0  0.77419  0.93950  0.34733  1.0000
  C   C873      1.0  0.15267  0.22581  0.43950  1.0000
  C   C874      1.0  0.84733  0.72581  0.06050  1.0000
  C   C875      1.0  0.65267  0.27419  0.56050  1.0000
  C   C876      1.0  0.34733  0.77419  0.93950  1.0000
  C   C877      1.0  0.90267  0.68950  0.02419  1.0000
  C   C878      1.0  0.59733  0.31050  0.52419  1.0000
  C   C879      1.0  0.40267  0.81050  0.97581  1.0000
  C   C880      1.0  0.09733  0.18950  0.47581  1.0000
  C   C881      1.0  0.18950  0.47581  0.09733  1.0000
  C   C882      1.0  0.81050  0.97581  0.40267  1.0000
  C   C883      1.0  0.31050  0.52419  0.59733  1.0000
  C   C884      1.0  0.68950  0.02419  0.90267  1.0000
  C   C885      1.0  0.97581  0.40267  0.81050  1.0000
  C   C886      1.0  0.47581  0.09733  0.18950  1.0000
  C   C887      1.0  0.02419  0.90267  0.68950  1.0000
  C   C888      1.0  0.52419  0.59733  0.31050  1.0000
  C   C889      1.0  0.93950  0.65267  0.72581  1.0000
  C   C890      1.0  0.56050  0.34733  0.22581  1.0000
  C   C891      1.0  0.06050  0.15267  0.77419  1.0000
  C   C892      1.0  0.43950  0.84733  0.27419  1.0000
  C   C893      1.0  0.72581  0.93950  0.65267  1.0000
  C   C894      1.0  0.22581  0.56050  0.34733  1.0000
  C   C895      1.0  0.77419  0.06050  0.15267  1.0000
  C   C896      1.0  0.27419  0.43950  0.84733  1.0000
  C   C897      1.0  0.65267  0.72581  0.93950  1.0000
  C   C898      1.0  0.34733  0.22581  0.56050  1.0000
  C   C899      1.0  0.15267  0.77419  0.06050  1.0000
  C   C900      1.0  0.84733  0.27419  0.43950  1.0000
  C   C901      1.0  0.40267  0.18950  0.52419  1.0000
  C   C902      1.0  0.09733  0.81050  0.02419  1.0000
  C   C903      1.0  0.90267  0.31050  0.47581  1.0000
  C   C904      1.0  0.59733  0.68950  0.97581  1.0000
  C   C905      1.0  0.68950  0.97581  0.59733  1.0000
  C   C906      1.0  0.31050  0.47581  0.90267  1.0000
  C   C907      1.0  0.81050  0.02419  0.09733  1.0000
  C   C908      1.0  0.18950  0.52419  0.40267  1.0000
  C   C909      1.0  0.47581  0.90267  0.31050  1.0000
  C   C910      1.0  0.97581  0.59733  0.68950  1.0000
  C   C911      1.0  0.52419  0.40267  0.18950  1.0000
  C   C912      1.0  0.02419  0.09733  0.81050  1.0000
  C   C913      1.0  0.56050  0.84733  0.77419  1.0000
  C   C914      1.0  0.93950  0.15267  0.27419  1.0000
  C   C915      1.0  0.43950  0.34733  0.72581  1.0000
  C   C916      1.0  0.06050  0.65267  0.22581  1.0000
  C   C917      1.0  0.77419  0.56050  0.84733  1.0000
  C   C918      1.0  0.27419  0.93950  0.15267  1.0000
  C   C919      1.0  0.72581  0.43950  0.34733  1.0000
  C   C920      1.0  0.22581  0.06050  0.65267  1.0000
  C   C921      1.0  0.84733  0.77419  0.56050  1.0000
  C   C922      1.0  0.15267  0.27419  0.93950  1.0000
  C   C923      1.0  0.34733  0.72581  0.43950  1.0000
  C   C924      1.0  0.65267  0.22581  0.06050  1.0000
  C   C925      1.0  0.09733  0.31050  0.97581  1.0000
  C   C926      1.0  0.40267  0.68950  0.47581  1.0000
  C   C927      1.0  0.59733  0.18950  0.02419  1.0000
  C   C928      1.0  0.90267  0.81050  0.52419  1.0000
  C   C929      1.0  0.81050  0.52419  0.90267  1.0000
  C   C930      1.0  0.18950  0.02419  0.59733  1.0000
  C   C931      1.0  0.68950  0.47581  0.40267  1.0000
  C   C932      1.0  0.31050  0.97581  0.09733  1.0000
  C   C933      1.0  0.02419  0.59733  0.18950  1.0000
  C   C934      1.0  0.52419  0.90267  0.81050  1.0000
  C   C935      1.0  0.97581  0.09733  0.31050  1.0000
  C   C936      1.0  0.47581  0.40267  0.68950  1.0000
  C   C937      1.0  0.06050  0.34733  0.27419  1.0000
  C   C938      1.0  0.43950  0.65267  0.77419  1.0000
  C   C939      1.0  0.93950  0.84733  0.22581  1.0000
  C   C940      1.0  0.56050  0.15267  0.72581  1.0000
  C   C941      1.0  0.27419  0.06050  0.34733  1.0000
  C   C942      1.0  0.77419  0.43950  0.65267  1.0000
  C   C943      1.0  0.22581  0.93950  0.84733  1.0000
  C   C944      1.0  0.72581  0.56050  0.15267  1.0000
  C   C945      1.0  0.34733  0.27419  0.06050  1.0000
  C   C946      1.0  0.65267  0.77419  0.43950  1.0000
  C   C947      1.0  0.84733  0.22581  0.93950  1.0000
  C   C948      1.0  0.15267  0.72581  0.56050  1.0000
  C   C949      1.0  0.59733  0.81050  0.47581  1.0000
  C   C950      1.0  0.90267  0.18950  0.97581  1.0000
  C   C951      1.0  0.09733  0.68950  0.52419  1.0000
  C   C952      1.0  0.40267  0.31050  0.02419  1.0000
  C   C953      1.0  0.31050  0.02419  0.40267  1.0000
  C   C954      1.0  0.68950  0.52419  0.09733  1.0000
  C   C955      1.0  0.18950  0.97581  0.90267  1.0000
  C   C956      1.0  0.81050  0.47581  0.59733  1.0000
  C   C957      1.0  0.52419  0.09733  0.68950  1.0000
  C   C958      1.0  0.02419  0.40267  0.31050  1.0000
  C   C959      1.0  0.47581  0.59733  0.81050  1.0000
  C   C960      1.0  0.97581  0.90267  0.18950  1.0000
  C   C961      1.0  0.44710  0.16810  0.23480  1.0000
  C   C962      1.0  0.05290  0.83190  0.73480  1.0000
  C   C963      1.0  0.55290  0.66810  0.26520  1.0000
  C   C964      1.0  0.94710  0.33190  0.76520  1.0000
  C   C965      1.0  0.23480  0.44710  0.16810  1.0000
  C   C966      1.0  0.73480  0.05290  0.83190  1.0000
  C   C967      1.0  0.26520  0.55290  0.66810  1.0000
  C   C968      1.0  0.76520  0.94710  0.33190  1.0000
  C   C969      1.0  0.16810  0.23480  0.44710  1.0000
  C   C970      1.0  0.83190  0.73480  0.05290  1.0000
  C   C971      1.0  0.66810  0.26520  0.55290  1.0000
  C   C972      1.0  0.33190  0.76520  0.94710  1.0000
  C   C973      1.0  0.91810  0.69710  0.01520  1.0000
  C   C974      1.0  0.58190  0.30290  0.51520  1.0000
  C   C975      1.0  0.41810  0.80290  0.98480  1.0000
  C   C976      1.0  0.08190  0.19710  0.48480  1.0000
  C   C977      1.0  0.19710  0.48480  0.08190  1.0000
  C   C978      1.0  0.80290  0.98480  0.41810  1.0000
  C   C979      1.0  0.30290  0.51520  0.58190  1.0000
  C   C980      1.0  0.69710  0.01520  0.91810  1.0000
  C   C981      1.0  0.98480  0.41810  0.80290  1.0000
  C   C982      1.0  0.48480  0.08190  0.19710  1.0000
  C   C983      1.0  0.01520  0.91810  0.69710  1.0000
  C   C984      1.0  0.51520  0.58190  0.30290  1.0000
  C   C985      1.0  0.94710  0.66810  0.73480  1.0000
  C   C986      1.0  0.55290  0.33190  0.23480  1.0000
  C   C987      1.0  0.05290  0.16810  0.76520  1.0000
  C   C988      1.0  0.44710  0.83190  0.26520  1.0000
  C   C989      1.0  0.73480  0.94710  0.66810  1.0000
  C   C990      1.0  0.23480  0.55290  0.33190  1.0000
  C   C991      1.0  0.76520  0.05290  0.16810  1.0000
  C   C992      1.0  0.26520  0.44710  0.83190  1.0000
  C   C993      1.0  0.66810  0.73480  0.94710  1.0000
  C   C994      1.0  0.33190  0.23480  0.55290  1.0000
  C   C995      1.0  0.16810  0.76520  0.05290  1.0000
  C   C996      1.0  0.83190  0.26520  0.44710  1.0000
  C   C997      1.0  0.41810  0.19710  0.51520  1.0000
  C   C998      1.0  0.08190  0.80290  0.01520  1.0000
  C   C999      1.0  0.91810  0.30290  0.48480  1.0000
  C   C1000     1.0  0.58190  0.69710  0.98480  1.0000
  C   C1001     1.0  0.69710  0.98480  0.58190  1.0000
  C   C1002     1.0  0.30290  0.48480  0.91810  1.0000
  C   C1003     1.0  0.80290  0.01520  0.08190  1.0000
  C   C1004     1.0  0.19710  0.51520  0.41810  1.0000
  C   C1005     1.0  0.48480  0.91810  0.30290  1.0000
  C   C1006     1.0  0.98480  0.58190  0.69710  1.0000
  C   C1007     1.0  0.51520  0.41810  0.19710  1.0000
  C   C1008     1.0  0.01520  0.08190  0.80290  1.0000
  C   C1009     1.0  0.55290  0.83190  0.76520  1.0000
  C   C1010     1.0  0.94710  0.16810  0.26520  1.0000
  C   C1011     1.0  0.44710  0.33190  0.73480  1.0000
  C   C1012     1.0  0.05290  0.66810  0.23480  1.0000
  C   C1013     1.0  0.76520  0.55290  0.83190  1.0000
  C   C1014     1.0  0.26520  0.94710  0.16810  1.0000
  C   C1015     1.0  0.73480  0.44710  0.33190  1.0000
  C   C1016     1.0  0.23480  0.05290  0.66810  1.0000
  C   C1017     1.0  0.83190  0.76520  0.55290  1.0000
  C   C1018     1.0  0.16810  0.26520  0.94710  1.0000
  C   C1019     1.0  0.33190  0.73480  0.44710  1.0000
  C   C1020     1.0  0.66810  0.23480  0.05290  1.0000
  C   C1021     1.0  0.08190  0.30290  0.98480  1.0000
  C   C1022     1.0  0.41810  0.69710  0.48480  1.0000
  C   C1023     1.0  0.58190  0.19710  0.01520  1.0000
  C   C1024     1.0  0.91810  0.80290  0.51520  1.0000
  C   C1025     1.0  0.80290  0.51520  0.91810  1.0000
  C   C1026     1.0  0.19710  0.01520  0.58190  1.0000
  C   C1027     1.0  0.69710  0.48480  0.41810  1.0000
  C   C1028     1.0  0.30290  0.98480  0.08190  1.0000
  C   C1029     1.0  0.01520  0.58190  0.19710  1.0000
  C   C1030     1.0  0.51520  0.91810  0.80290  1.0000
  C   C1031     1.0  0.98480  0.08190  0.30290  1.0000
  C   C1032     1.0  0.48480  0.41810  0.69710  1.0000
  C   C1033     1.0  0.05290  0.33190  0.26520  1.0000
  C   C1034     1.0  0.44710  0.66810  0.76520  1.0000
  C   C1035     1.0  0.94710  0.83190  0.23480  1.0000
  C   C1036     1.0  0.55290  0.16810  0.73480  1.0000
  C   C1037     1.0  0.26520  0.05290  0.33190  1.0000
  C   C1038     1.0  0.76520  0.44710  0.66810  1.0000
  C   C1039     1.0  0.23480  0.94710  0.83190  1.0000
  C   C1040     1.0  0.73480  0.55290  0.16810  1.0000
  C   C1041     1.0  0.33190  0.26520  0.05290  1.0000
  C   C1042     1.0  0.66810  0.76520  0.44710  1.0000
  C   C1043     1.0  0.83190  0.23480  0.94710  1.0000
  C   C1044     1.0  0.16810  0.73480  0.55290  1.0000
  C   C1045     1.0  0.58190  0.80290  0.48480  1.0000
  C   C1046     1.0  0.91810  0.19710  0.98480  1.0000
  C   C1047     1.0  0.08190  0.69710  0.51520  1.0000
  C   C1048     1.0  0.41810  0.30290  0.01520  1.0000
  C   C1049     1.0  0.30290  0.01520  0.41810  1.0000
  C   C1050     1.0  0.69710  0.51520  0.08190  1.0000
  C   C1051     1.0  0.19710  0.98480  0.91810  1.0000
  C   C1052     1.0  0.80290  0.48480  0.58190  1.0000
  C   C1053     1.0  0.51520  0.08190  0.69710  1.0000
  C   C1054     1.0  0.01520  0.41810  0.30290  1.0000
  C   C1055     1.0  0.48480  0.58190  0.80290  1.0000
  C   C1056     1.0  0.98480  0.91810  0.19710  1.0000
  H   H577      1.0  0.44470  0.16970  0.24800  1.0000
  H   H578      1.0  0.05530  0.83030  0.74800  1.0000
  H   H579      1.0  0.55530  0.66970  0.25200  1.0000
  H   H580      1.0  0.94470  0.33030  0.75200  1.0000
  H   H581      1.0  0.24800  0.44470  0.16970  1.0000
  H   H582      1.0  0.74800  0.05530  0.83030  1.0000
  H   H583      1.0  0.25200  0.55530  0.66970  1.0000
  H   H584      1.0  0.75200  0.94470  0.33030  1.0000
  H   H585      1.0  0.16970  0.24800  0.44470  1.0000
  H   H586      1.0  0.83030  0.74800  0.05530  1.0000
  H   H587      1.0  0.66970  0.25200  0.55530  1.0000
  H   H588      1.0  0.33030  0.75200  0.94470  1.0000
  H   H589      1.0  0.91970  0.69470  0.00200  1.0000
  H   H590      1.0  0.58030  0.30530  0.50200  1.0000
  H   H591      1.0  0.41970  0.80530  0.99800  1.0000
  H   H592      1.0  0.08030  0.19470  0.49800  1.0000
  H   H593      1.0  0.19470  0.49800  0.08030  1.0000
  H   H594      1.0  0.80530  0.99800  0.41970  1.0000
  H   H595      1.0  0.30530  0.50200  0.58030  1.0000
  H   H596      1.0  0.69470  0.00200  0.91970  1.0000
  H   H597      1.0  0.99800  0.41970  0.80530  1.0000
  H   H598      1.0  0.49800  0.08030  0.19470  1.0000
  H   H599      1.0  0.00200  0.91970  0.69470  1.0000
  H   H600      1.0  0.50200  0.58030  0.30530  1.0000
  H   H601      1.0  0.94470  0.66970  0.74800  1.0000
  H   H602      1.0  0.55530  0.33030  0.24800  1.0000
  H   H603      1.0  0.05530  0.16970  0.75200  1.0000
  H   H604      1.0  0.44470  0.83030  0.25200  1.0000
  H   H605      1.0  0.74800  0.94470  0.66970  1.0000
  H   H606      1.0  0.24800  0.55530  0.33030  1.0000
  H   H607      1.0  0.75200  0.05530  0.16970  1.0000
  H   H608      1.0  0.25200  0.44470  0.83030  1.0000
  H   H609      1.0  0.66970  0.74800  0.94470  1.0000
  H   H610      1.0  0.33030  0.24800  0.55530  1.0000
  H   H611      1.0  0.16970  0.75200  0.05530  1.0000
  H   H612      1.0  0.83030  0.25200  0.44470  1.0000
  H   H613      1.0  0.41970  0.19470  0.50200  1.0000
  H   H614      1.0  0.08030  0.80530  0.00200  1.0000
  H   H615      1.0  0.91970  0.30530  0.49800  1.0000
  H   H616      1.0  0.58030  0.69470  0.99800  1.0000
  H   H617      1.0  0.69470  0.99800  0.58030  1.0000
  H   H618      1.0  0.30530  0.49800  0.91970  1.0000
  H   H619      1.0  0.80530  0.00200  0.08030  1.0000
  H   H620      1.0  0.19470  0.50200  0.41970  1.0000
  H   H621      1.0  0.49800  0.91970  0.30530  1.0000
  H   H622      1.0  0.99800  0.58030  0.69470  1.0000
  H   H623      1.0  0.50200  0.41970  0.19470  1.0000
  H   H624      1.0  0.00200  0.08030  0.80530  1.0000
  H   H625      1.0  0.55530  0.83030  0.75200  1.0000
  H   H626      1.0  0.94470  0.16970  0.25200  1.0000
  H   H627      1.0  0.44470  0.33030  0.74800  1.0000
  H   H628      1.0  0.05530  0.66970  0.24800  1.0000
  H   H629      1.0  0.75200  0.55530  0.83030  1.0000
  H   H630      1.0  0.25200  0.94470  0.16970  1.0000
  H   H631      1.0  0.74800  0.44470  0.33030  1.0000
  H   H632      1.0  0.24800  0.05530  0.66970  1.0000
  H   H633      1.0  0.83030  0.75200  0.55530  1.0000
  H   H634      1.0  0.16970  0.25200  0.94470  1.0000
  H   H635      1.0  0.33030  0.74800  0.44470  1.0000
  H   H636      1.0  0.66970  0.24800  0.05530  1.0000
  H   H637      1.0  0.08030  0.30530  0.99800  1.0000
  H   H638      1.0  0.41970  0.69470  0.49800  1.0000
  H   H639      1.0  0.58030  0.19470  0.00200  1.0000
  H   H640      1.0  0.91970  0.80530  0.50200  1.0000
  H   H641      1.0  0.80530  0.50200  0.91970  1.0000
  H   H642      1.0  0.19470  0.00200  0.58030  1.0000
  H   H643      1.0  0.69470  0.49800  0.41970  1.0000
  H   H644      1.0  0.30530  0.99800  0.08030  1.0000
  H   H645      1.0  0.00200  0.58030  0.19470  1.0000
  H   H646      1.0  0.50200  0.91970  0.80530  1.0000
  H   H647      1.0  0.99800  0.08030  0.30530  1.0000
  H   H648      1.0  0.49800  0.41970  0.69470  1.0000
  H   H649      1.0  0.05530  0.33030  0.25200  1.0000
  H   H650      1.0  0.44470  0.66970  0.75200  1.0000
  H   H651      1.0  0.94470  0.83030  0.24800  1.0000
  H   H652      1.0  0.55530  0.16970  0.74800  1.0000
  H   H653      1.0  0.25200  0.05530  0.33030  1.0000
  H   H654      1.0  0.75200  0.44470  0.66970  1.0000
  H   H655      1.0  0.24800  0.94470  0.83030  1.0000
  H   H656      1.0  0.74800  0.55530  0.16970  1.0000
  H   H657      1.0  0.33030  0.25200  0.05530  1.0000
  H   H658      1.0  0.66970  0.75200  0.44470  1.0000
  H   H659      1.0  0.83030  0.24800  0.94470  1.0000
  H   H660      1.0  0.16970  0.74800  0.55530  1.0000
  H   H661      1.0  0.58030  0.80530  0.49800  1.0000
  H   H662      1.0  0.91970  0.19470  0.99800  1.0000
  H   H663      1.0  0.08030  0.69470  0.50200  1.0000
  H   H664      1.0  0.41970  0.30530  0.00200  1.0000
  H   H665      1.0  0.30530  0.00200  0.41970  1.0000
  H   H666      1.0  0.69470  0.50200  0.08030  1.0000
  H   H667      1.0  0.19470  0.99800  0.91970  1.0000
  H   H668      1.0  0.80530  0.49800  0.58030  1.0000
  H   H669      1.0  0.50200  0.08030  0.69470  1.0000
  H   H670      1.0  0.00200  0.41970  0.30530  1.0000
  H   H671      1.0  0.49800  0.58030  0.80530  1.0000
  H   H672      1.0  0.99800  0.91970  0.19470  1.0000
  C   C1057     1.0  0.45840  0.18210  0.22540  1.0000
  C   C1058     1.0  0.04160  0.81790  0.72540  1.0000
  C   C1059     1.0  0.54160  0.68210  0.27460  1.0000
  C   C1060     1.0  0.95840  0.31790  0.77460  1.0000
  C   C1061     1.0  0.22540  0.45840  0.18210  1.0000
  C   C1062     1.0  0.72540  0.04160  0.81790  1.0000
  C   C1063     1.0  0.27460  0.54160  0.68210  1.0000
  C   C1064     1.0  0.77460  0.95840  0.31790  1.0000
  C   C1065     1.0  0.18210  0.22540  0.45840  1.0000
  C   C1066     1.0  0.81790  0.72540  0.04160  1.0000
  C   C1067     1.0  0.68210  0.27460  0.54160  1.0000
  C   C1068     1.0  0.31790  0.77460  0.95840  1.0000
  C   C1069     1.0  0.93210  0.70840  0.02460  1.0000
  C   C1070     1.0  0.56790  0.29160  0.52460  1.0000
  C   C1071     1.0  0.43210  0.79160  0.97540  1.0000
  C   C1072     1.0  0.06790  0.20840  0.47540  1.0000
  C   C1073     1.0  0.20840  0.47540  0.06790  1.0000
  C   C1074     1.0  0.79160  0.97540  0.43210  1.0000
  C   C1075     1.0  0.29160  0.52460  0.56790  1.0000
  C   C1076     1.0  0.70840  0.02460  0.93210  1.0000
  C   C1077     1.0  0.97540  0.43210  0.79160  1.0000
  C   C1078     1.0  0.47540  0.06790  0.20840  1.0000
  C   C1079     1.0  0.02460  0.93210  0.70840  1.0000
  C   C1080     1.0  0.52460  0.56790  0.29160  1.0000
  C   C1081     1.0  0.95840  0.68210  0.72540  1.0000
  C   C1082     1.0  0.54160  0.31790  0.22540  1.0000
  C   C1083     1.0  0.04160  0.18210  0.77460  1.0000
  C   C1084     1.0  0.45840  0.81790  0.27460  1.0000
  C   C1085     1.0  0.72540  0.95840  0.68210  1.0000
  C   C1086     1.0  0.22540  0.54160  0.31790  1.0000
  C   C1087     1.0  0.77460  0.04160  0.18210  1.0000
  C   C1088     1.0  0.27460  0.45840  0.81790  1.0000
  C   C1089     1.0  0.68210  0.72540  0.95840  1.0000
  C   C1090     1.0  0.31790  0.22540  0.54160  1.0000
  C   C1091     1.0  0.18210  0.77460  0.04160  1.0000
  C   C1092     1.0  0.81790  0.27460  0.45840  1.0000
  C   C1093     1.0  0.43210  0.20840  0.52460  1.0000
  C   C1094     1.0  0.06790  0.79160  0.02460  1.0000
  C   C1095     1.0  0.93210  0.29160  0.47540  1.0000
  C   C1096     1.0  0.56790  0.70840  0.97540  1.0000
  C   C1097     1.0  0.70840  0.97540  0.56790  1.0000
  C   C1098     1.0  0.29160  0.47540  0.93210  1.0000
  C   C1099     1.0  0.79160  0.02460  0.06790  1.0000
  C   C1100     1.0  0.20840  0.52460  0.43210  1.0000
  C   C1101     1.0  0.47540  0.93210  0.29160  1.0000
  C   C1102     1.0  0.97540  0.56790  0.70840  1.0000
  C   C1103     1.0  0.52460  0.43210  0.20840  1.0000
  C   C1104     1.0  0.02460  0.06790  0.79160  1.0000
  C   C1105     1.0  0.54160  0.81790  0.77460  1.0000
  C   C1106     1.0  0.95840  0.18210  0.27460  1.0000
  C   C1107     1.0  0.45840  0.31790  0.72540  1.0000
  C   C1108     1.0  0.04160  0.68210  0.22540  1.0000
  C   C1109     1.0  0.77460  0.54160  0.81790  1.0000
  C   C1110     1.0  0.27460  0.95840  0.18210  1.0000
  C   C1111     1.0  0.72540  0.45840  0.31790  1.0000
  C   C1112     1.0  0.22540  0.04160  0.68210  1.0000
  C   C1113     1.0  0.81790  0.77460  0.54160  1.0000
  C   C1114     1.0  0.18210  0.27460  0.95840  1.0000
  C   C1115     1.0  0.31790  0.72540  0.45840  1.0000
  C   C1116     1.0  0.68210  0.22540  0.04160  1.0000
  C   C1117     1.0  0.06790  0.29160  0.97540  1.0000
  C   C1118     1.0  0.43210  0.70840  0.47540  1.0000
  C   C1119     1.0  0.56790  0.20840  0.02460  1.0000
  C   C1120     1.0  0.93210  0.79160  0.52460  1.0000
  C   C1121     1.0  0.79160  0.52460  0.93210  1.0000
  C   C1122     1.0  0.20840  0.02460  0.56790  1.0000
  C   C1123     1.0  0.70840  0.47540  0.43210  1.0000
  C   C1124     1.0  0.29160  0.97540  0.06790  1.0000
  C   C1125     1.0  0.02460  0.56790  0.20840  1.0000
  C   C1126     1.0  0.52460  0.93210  0.79160  1.0000
  C   C1127     1.0  0.97540  0.06790  0.29160  1.0000
  C   C1128     1.0  0.47540  0.43210  0.70840  1.0000
  C   C1129     1.0  0.04160  0.31790  0.27460  1.0000
  C   C1130     1.0  0.45840  0.68210  0.77460  1.0000
  C   C1131     1.0  0.95840  0.81790  0.22540  1.0000
  C   C1132     1.0  0.54160  0.18210  0.72540  1.0000
  C   C1133     1.0  0.27460  0.04160  0.31790  1.0000
  C   C1134     1.0  0.77460  0.45840  0.68210  1.0000
  C   C1135     1.0  0.22540  0.95840  0.81790  1.0000
  C   C1136     1.0  0.72540  0.54160  0.18210  1.0000
  C   C1137     1.0  0.31790  0.27460  0.04160  1.0000
  C   C1138     1.0  0.68210  0.77460  0.45840  1.0000
  C   C1139     1.0  0.81790  0.22540  0.95840  1.0000
  C   C1140     1.0  0.18210  0.72540  0.54160  1.0000
  C   C1141     1.0  0.56790  0.79160  0.47540  1.0000
  C   C1142     1.0  0.93210  0.20840  0.97540  1.0000
  C   C1143     1.0  0.06790  0.70840  0.52460  1.0000
  C   C1144     1.0  0.43210  0.29160  0.02460  1.0000
  C   C1145     1.0  0.29160  0.02460  0.43210  1.0000
  C   C1146     1.0  0.70840  0.52460  0.06790  1.0000
  C   C1147     1.0  0.20840  0.97540  0.93210  1.0000
  C   C1148     1.0  0.79160  0.47540  0.56790  1.0000
  C   C1149     1.0  0.52460  0.06790  0.70840  1.0000
  C   C1150     1.0  0.02460  0.43210  0.29160  1.0000
  C   C1151     1.0  0.47540  0.56790  0.79160  1.0000
  C   C1152     1.0  0.97540  0.93210  0.20840  1.0000
  H   H673      1.0  0.46490  0.19160  0.23250  1.0000
  H   H674      1.0  0.03510  0.80840  0.73250  1.0000
  H   H675      1.0  0.53510  0.69160  0.26750  1.0000
  H   H676      1.0  0.96490  0.30840  0.76750  1.0000
  H   H677      1.0  0.23250  0.46490  0.19160  1.0000
  H   H678      1.0  0.73250  0.03510  0.80840  1.0000
  H   H679      1.0  0.26750  0.53510  0.69160  1.0000
  H   H680      1.0  0.76750  0.96490  0.30840  1.0000
  H   H681      1.0  0.19160  0.23250  0.46490  1.0000
  H   H682      1.0  0.80840  0.73250  0.03510  1.0000
  H   H683      1.0  0.69160  0.26750  0.53510  1.0000
  H   H684      1.0  0.30840  0.76750  0.96490  1.0000
  H   H685      1.0  0.94160  0.71490  0.01750  1.0000
  H   H686      1.0  0.55840  0.28510  0.51750  1.0000
  H   H687      1.0  0.44160  0.78510  0.98250  1.0000
  H   H688      1.0  0.05840  0.21490  0.48250  1.0000
  H   H689      1.0  0.21490  0.48250  0.05840  1.0000
  H   H690      1.0  0.78510  0.98250  0.44160  1.0000
  H   H691      1.0  0.28510  0.51750  0.55840  1.0000
  H   H692      1.0  0.71490  0.01750  0.94160  1.0000
  H   H693      1.0  0.98250  0.44160  0.78510  1.0000
  H   H694      1.0  0.48250  0.05840  0.21490  1.0000
  H   H695      1.0  0.01750  0.94160  0.71490  1.0000
  H   H696      1.0  0.51750  0.55840  0.28510  1.0000
  H   H697      1.0  0.96490  0.69160  0.73250  1.0000
  H   H698      1.0  0.53510  0.30840  0.23250  1.0000
  H   H699      1.0  0.03510  0.19160  0.76750  1.0000
  H   H700      1.0  0.46490  0.80840  0.26750  1.0000
  H   H701      1.0  0.73250  0.96490  0.69160  1.0000
  H   H702      1.0  0.23250  0.53510  0.30840  1.0000
  H   H703      1.0  0.76750  0.03510  0.19160  1.0000
  H   H704      1.0  0.26750  0.46490  0.80840  1.0000
  H   H705      1.0  0.69160  0.73250  0.96490  1.0000
  H   H706      1.0  0.30840  0.23250  0.53510  1.0000
  H   H707      1.0  0.19160  0.76750  0.03510  1.0000
  H   H708      1.0  0.80840  0.26750  0.46490  1.0000
  H   H709      1.0  0.44160  0.21490  0.51750  1.0000
  H   H710      1.0  0.05840  0.78510  0.01750  1.0000
  H   H711      1.0  0.94160  0.28510  0.48250  1.0000
  H   H712      1.0  0.55840  0.71490  0.98250  1.0000
  H   H713      1.0  0.71490  0.98250  0.55840  1.0000
  H   H714      1.0  0.28510  0.48250  0.94160  1.0000
  H   H715      1.0  0.78510  0.01750  0.05840  1.0000
  H   H716      1.0  0.21490  0.51750  0.44160  1.0000
  H   H717      1.0  0.48250  0.94160  0.28510  1.0000
  H   H718      1.0  0.98250  0.55840  0.71490  1.0000
  H   H719      1.0  0.51750  0.44160  0.21490  1.0000
  H   H720      1.0  0.01750  0.05840  0.78510  1.0000
  H   H721      1.0  0.53510  0.80840  0.76750  1.0000
  H   H722      1.0  0.96490  0.19160  0.26750  1.0000
  H   H723      1.0  0.46490  0.30840  0.73250  1.0000
  H   H724      1.0  0.03510  0.69160  0.23250  1.0000
  H   H725      1.0  0.76750  0.53510  0.80840  1.0000
  H   H726      1.0  0.26750  0.96490  0.19160  1.0000
  H   H727      1.0  0.73250  0.46490  0.30840  1.0000
  H   H728      1.0  0.23250  0.03510  0.69160  1.0000
  H   H729      1.0  0.80840  0.76750  0.53510  1.0000
  H   H730      1.0  0.19160  0.26750  0.96490  1.0000
  H   H731      1.0  0.30840  0.73250  0.46490  1.0000
  H   H732      1.0  0.69160  0.23250  0.03510  1.0000
  H   H733      1.0  0.05840  0.28510  0.98250  1.0000
  H   H734      1.0  0.44160  0.71490  0.48250  1.0000
  H   H735      1.0  0.55840  0.21490  0.01750  1.0000
  H   H736      1.0  0.94160  0.78510  0.51750  1.0000
  H   H737      1.0  0.78510  0.51750  0.94160  1.0000
  H   H738      1.0  0.21490  0.01750  0.55840  1.0000
  H   H739      1.0  0.71490  0.48250  0.44160  1.0000
  H   H740      1.0  0.28510  0.98250  0.05840  1.0000
  H   H741      1.0  0.01750  0.55840  0.21490  1.0000
  H   H742      1.0  0.51750  0.94160  0.78510  1.0000
  H   H743      1.0  0.98250  0.05840  0.28510  1.0000
  H   H744      1.0  0.48250  0.44160  0.71490  1.0000
  H   H745      1.0  0.03510  0.30840  0.26750  1.0000
  H   H746      1.0  0.46490  0.69160  0.76750  1.0000
  H   H747      1.0  0.96490  0.80840  0.23250  1.0000
  H   H748      1.0  0.53510  0.19160  0.73250  1.0000
  H   H749      1.0  0.26750  0.03510  0.30840  1.0000
  H   H750      1.0  0.76750  0.46490  0.69160  1.0000
  H   H751      1.0  0.23250  0.96490  0.80840  1.0000
  H   H752      1.0  0.73250  0.53510  0.19160  1.0000
  H   H753      1.0  0.30840  0.26750  0.03510  1.0000
  H   H754      1.0  0.69160  0.76750  0.46490  1.0000
  H   H755      1.0  0.80840  0.23250  0.96490  1.0000
  H   H756      1.0  0.19160  0.73250  0.53510  1.0000
  H   H757      1.0  0.55840  0.78510  0.48250  1.0000
  H   H758      1.0  0.94160  0.21490  0.98250  1.0000
  H   H759      1.0  0.05840  0.71490  0.51750  1.0000
  H   H760      1.0  0.44160  0.28510  0.01750  1.0000
  H   H761      1.0  0.28510  0.01750  0.44160  1.0000
  H   H762      1.0  0.71490  0.51750  0.05840  1.0000
  H   H763      1.0  0.21490  0.98250  0.94160  1.0000
  H   H764      1.0  0.78510  0.48250  0.55840  1.0000
  H   H765      1.0  0.51750  0.05840  0.71490  1.0000
  H   H766      1.0  0.01750  0.44160  0.28510  1.0000
  H   H767      1.0  0.48250  0.55840  0.78510  1.0000
  H   H768      1.0  0.98250  0.94160  0.21490  1.0000
  C   C1153     1.0  0.39880  0.09300  0.26780  1.0000
  C   C1154     1.0  0.10120  0.90700  0.76780  1.0000
  C   C1155     1.0  0.60120  0.59300  0.23220  1.0000
  C   C1156     1.0  0.89880  0.40700  0.73220  1.0000
  C   C1157     1.0  0.26780  0.39880  0.09300  1.0000
  C   C1158     1.0  0.76780  0.10120  0.90700  1.0000
  C   C1159     1.0  0.23220  0.60120  0.59300  1.0000
  C   C1160     1.0  0.73220  0.89880  0.40700  1.0000
  C   C1161     1.0  0.09300  0.26780  0.39880  1.0000
  C   C1162     1.0  0.90700  0.76780  0.10120  1.0000
  C   C1163     1.0  0.59300  0.23220  0.60120  1.0000
  C   C1164     1.0  0.40700  0.73220  0.89880  1.0000
  C   C1165     1.0  0.84300  0.64880  0.98220  1.0000
  C   C1166     1.0  0.65700  0.35120  0.48220  1.0000
  C   C1167     1.0  0.34300  0.85120  0.01780  1.0000
  C   C1168     1.0  0.15700  0.14880  0.51780  1.0000
  C   C1169     1.0  0.14880  0.51780  0.15700  1.0000
  C   C1170     1.0  0.85120  0.01780  0.34300  1.0000
  C   C1171     1.0  0.35120  0.48220  0.65700  1.0000
  C   C1172     1.0  0.64880  0.98220  0.84300  1.0000
  C   C1173     1.0  0.01780  0.34300  0.85120  1.0000
  C   C1174     1.0  0.51780  0.15700  0.14880  1.0000
  C   C1175     1.0  0.98220  0.84300  0.64880  1.0000
  C   C1176     1.0  0.48220  0.65700  0.35120  1.0000
  C   C1177     1.0  0.89880  0.59300  0.76780  1.0000
  C   C1178     1.0  0.60120  0.40700  0.26780  1.0000
  C   C1179     1.0  0.10120  0.09300  0.73220  1.0000
  C   C1180     1.0  0.39880  0.90700  0.23220  1.0000
  C   C1181     1.0  0.76780  0.89880  0.59300  1.0000
  C   C1182     1.0  0.26780  0.60120  0.40700  1.0000
  C   C1183     1.0  0.73220  0.10120  0.09300  1.0000
  C   C1184     1.0  0.23220  0.39880  0.90700  1.0000
  C   C1185     1.0  0.59300  0.76780  0.89880  1.0000
  C   C1186     1.0  0.40700  0.26780  0.60120  1.0000
  C   C1187     1.0  0.09300  0.73220  0.10120  1.0000
  C   C1188     1.0  0.90700  0.23220  0.39880  1.0000
  C   C1189     1.0  0.34300  0.14880  0.48220  1.0000
  C   C1190     1.0  0.15700  0.85120  0.98220  1.0000
  C   C1191     1.0  0.84300  0.35120  0.51780  1.0000
  C   C1192     1.0  0.65700  0.64880  0.01780  1.0000
  C   C1193     1.0  0.64880  0.01780  0.65700  1.0000
  C   C1194     1.0  0.35120  0.51780  0.84300  1.0000
  C   C1195     1.0  0.85120  0.98220  0.15700  1.0000
  C   C1196     1.0  0.14880  0.48220  0.34300  1.0000
  C   C1197     1.0  0.51780  0.84300  0.35120  1.0000
  C   C1198     1.0  0.01780  0.65700  0.64880  1.0000
  C   C1199     1.0  0.48220  0.34300  0.14880  1.0000
  C   C1200     1.0  0.98220  0.15700  0.85120  1.0000
  C   C1201     1.0  0.60120  0.90700  0.73220  1.0000
  C   C1202     1.0  0.89880  0.09300  0.23220  1.0000
  C   C1203     1.0  0.39880  0.40700  0.76780  1.0000
  C   C1204     1.0  0.10120  0.59300  0.26780  1.0000
  C   C1205     1.0  0.73220  0.60120  0.90700  1.0000
  C   C1206     1.0  0.23220  0.89880  0.09300  1.0000
  C   C1207     1.0  0.76780  0.39880  0.40700  1.0000
  C   C1208     1.0  0.26780  0.10120  0.59300  1.0000
  C   C1209     1.0  0.90700  0.73220  0.60120  1.0000
  C   C1210     1.0  0.09300  0.23220  0.89880  1.0000
  C   C1211     1.0  0.40700  0.76780  0.39880  1.0000
  C   C1212     1.0  0.59300  0.26780  0.10120  1.0000
  C   C1213     1.0  0.15700  0.35120  0.01780  1.0000
  C   C1214     1.0  0.34300  0.64880  0.51780  1.0000
  C   C1215     1.0  0.65700  0.14880  0.98220  1.0000
  C   C1216     1.0  0.84300  0.85120  0.48220  1.0000
  C   C1217     1.0  0.85120  0.48220  0.84300  1.0000
  C   C1218     1.0  0.14880  0.98220  0.65700  1.0000
  C   C1219     1.0  0.64880  0.51780  0.34300  1.0000
  C   C1220     1.0  0.35120  0.01780  0.15700  1.0000
  C   C1221     1.0  0.98220  0.65700  0.14880  1.0000
  C   C1222     1.0  0.48220  0.84300  0.85120  1.0000
  C   C1223     1.0  0.01780  0.15700  0.35120  1.0000
  C   C1224     1.0  0.51780  0.34300  0.64880  1.0000
  C   C1225     1.0  0.10120  0.40700  0.23220  1.0000
  C   C1226     1.0  0.39880  0.59300  0.73220  1.0000
  C   C1227     1.0  0.89880  0.90700  0.26780  1.0000
  C   C1228     1.0  0.60120  0.09300  0.76780  1.0000
  C   C1229     1.0  0.23220  0.10120  0.40700  1.0000
  C   C1230     1.0  0.73220  0.39880  0.59300  1.0000
  C   C1231     1.0  0.26780  0.89880  0.90700  1.0000
  C   C1232     1.0  0.76780  0.60120  0.09300  1.0000
  C   C1233     1.0  0.40700  0.23220  0.10120  1.0000
  C   C1234     1.0  0.59300  0.73220  0.39880  1.0000
  C   C1235     1.0  0.90700  0.26780  0.89880  1.0000
  C   C1236     1.0  0.09300  0.76780  0.60120  1.0000
  C   C1237     1.0  0.65700  0.85120  0.51780  1.0000
  C   C1238     1.0  0.84300  0.14880  0.01780  1.0000
  C   C1239     1.0  0.15700  0.64880  0.48220  1.0000
  C   C1240     1.0  0.34300  0.35120  0.98220  1.0000
  C   C1241     1.0  0.35120  0.98220  0.34300  1.0000
  C   C1242     1.0  0.64880  0.48220  0.15700  1.0000
  C   C1243     1.0  0.14880  0.01780  0.84300  1.0000
  C   C1244     1.0  0.85120  0.51780  0.65700  1.0000
  C   C1245     1.0  0.48220  0.15700  0.64880  1.0000
  C   C1246     1.0  0.98220  0.34300  0.35120  1.0000
  C   C1247     1.0  0.51780  0.65700  0.85120  1.0000
  C   C1248     1.0  0.01780  0.84300  0.14880  1.0000
  O   O241      1.0  0.38807  0.08232  0.25832  1.0000
  O   O242      1.0  0.11193  0.91768  0.75832  1.0000
  O   O243      1.0  0.61193  0.58232  0.24168  1.0000
  O   O244      1.0  0.88807  0.41768  0.74168  1.0000
  O   O245      1.0  0.25832  0.38807  0.08232  1.0000
  O   O246      1.0  0.75832  0.11193  0.91768  1.0000
  O   O247      1.0  0.24168  0.61193  0.58232  1.0000
  O   O248      1.0  0.74168  0.88807  0.41768  1.0000
  O   O249      1.0  0.08232  0.25832  0.38807  1.0000
  O   O250      1.0  0.91768  0.75832  0.11193  1.0000
  O   O251      1.0  0.58232  0.24168  0.61193  1.0000
  O   O252      1.0  0.41768  0.74168  0.88807  1.0000
  O   O253      1.0  0.83232  0.63807  0.99168  1.0000
  O   O254      1.0  0.66768  0.36193  0.49168  1.0000
  O   O255      1.0  0.33232  0.86193  0.00832  1.0000
  O   O256      1.0  0.16768  0.13807  0.50832  1.0000
  O   O257      1.0  0.13807  0.50832  0.16768  1.0000
  O   O258      1.0  0.86193  0.00832  0.33232  1.0000
  O   O259      1.0  0.36193  0.49168  0.66768  1.0000
  O   O260      1.0  0.63807  0.99168  0.83232  1.0000
  O   O261      1.0  0.00832  0.33232  0.86193  1.0000
  O   O262      1.0  0.50832  0.16768  0.13807  1.0000
  O   O263      1.0  0.99168  0.83232  0.63807  1.0000
  O   O264      1.0  0.49168  0.66768  0.36193  1.0000
  O   O265      1.0  0.88807  0.58232  0.75832  1.0000
  O   O266      1.0  0.61193  0.41768  0.25832  1.0000
  O   O267      1.0  0.11193  0.08232  0.74168  1.0000
  O   O268      1.0  0.38807  0.91768  0.24168  1.0000
  O   O269      1.0  0.75832  0.88807  0.58232  1.0000
  O   O270      1.0  0.25832  0.61193  0.41768  1.0000
  O   O271      1.0  0.74168  0.11193  0.08232  1.0000
  O   O272      1.0  0.24168  0.38807  0.91768  1.0000
  O   O273      1.0  0.58232  0.75832  0.88807  1.0000
  O   O274      1.0  0.41768  0.25832  0.61193  1.0000
  O   O275      1.0  0.08232  0.74168  0.11193  1.0000
  O   O276      1.0  0.91768  0.24168  0.38807  1.0000
  O   O277      1.0  0.33232  0.13807  0.49168  1.0000
  O   O278      1.0  0.16768  0.86193  0.99168  1.0000
  O   O279      1.0  0.83232  0.36193  0.50832  1.0000
  O   O280      1.0  0.66768  0.63807  0.00832  1.0000
  O   O281      1.0  0.63807  0.00832  0.66768  1.0000
  O   O282      1.0  0.36193  0.50832  0.83232  1.0000
  O   O283      1.0  0.86193  0.99168  0.16768  1.0000
  O   O284      1.0  0.13807  0.49168  0.33232  1.0000
  O   O285      1.0  0.50832  0.83232  0.36193  1.0000
  O   O286      1.0  0.00832  0.66768  0.63807  1.0000
  O   O287      1.0  0.49168  0.33232  0.13807  1.0000
  O   O288      1.0  0.99168  0.16768  0.86193  1.0000
  O   O289      1.0  0.61193  0.91768  0.74168  1.0000
  O   O290      1.0  0.88807  0.08232  0.24168  1.0000
  O   O291      1.0  0.38807  0.41768  0.75832  1.0000
  O   O292      1.0  0.11193  0.58232  0.25832  1.0000
  O   O293      1.0  0.74168  0.61193  0.91768  1.0000
  O   O294      1.0  0.24168  0.88807  0.08232  1.0000
  O   O295      1.0  0.75832  0.38807  0.41768  1.0000
  O   O296      1.0  0.25832  0.11193  0.58232  1.0000
  O   O297      1.0  0.91768  0.74168  0.61193  1.0000
  O   O298      1.0  0.08232  0.24168  0.88807  1.0000
  O   O299      1.0  0.41768  0.75832  0.38807  1.0000
  O   O300      1.0  0.58232  0.25832  0.11193  1.0000
  O   O301      1.0  0.16768  0.36193  0.00832  1.0000
  O   O302      1.0  0.33232  0.63807  0.50832  1.0000
  O   O303      1.0  0.66768  0.13807  0.99168  1.0000
  O   O304      1.0  0.83232  0.86193  0.49168  1.0000
  O   O305      1.0  0.86193  0.49168  0.83232  1.0000
  O   O306      1.0  0.13807  0.99168  0.66768  1.0000
  O   O307      1.0  0.63807  0.50832  0.33232  1.0000
  O   O308      1.0  0.36193  0.00832  0.16768  1.0000
  O   O309      1.0  0.99168  0.66768  0.13807  1.0000
  O   O310      1.0  0.49168  0.83232  0.86193  1.0000
  O   O311      1.0  0.00832  0.16768  0.36193  1.0000
  O   O312      1.0  0.50832  0.33232  0.63807  1.0000
  O   O313      1.0  0.11193  0.41768  0.24168  1.0000
  O   O314      1.0  0.38807  0.58232  0.74168  1.0000
  O   O315      1.0  0.88807  0.91768  0.25832  1.0000
  O   O316      1.0  0.61193  0.08232  0.75832  1.0000
  O   O317      1.0  0.24168  0.11193  0.41768  1.0000
  O   O318      1.0  0.74168  0.38807  0.58232  1.0000
  O   O319      1.0  0.25832  0.88807  0.91768  1.0000
  O   O320      1.0  0.75832  0.61193  0.08232  1.0000
  O   O321      1.0  0.41768  0.24168  0.11193  1.0000
  O   O322      1.0  0.58232  0.74168  0.38807  1.0000
  O   O323      1.0  0.91768  0.25832  0.88807  1.0000
  O   O324      1.0  0.08232  0.75832  0.61193  1.0000
  O   O325      1.0  0.66768  0.86193  0.50832  1.0000
  O   O326      1.0  0.83232  0.13807  0.00832  1.0000
  O   O327      1.0  0.16768  0.63807  0.49168  1.0000
  O   O328      1.0  0.33232  0.36193  0.99168  1.0000
  O   O329      1.0  0.36193  0.99168  0.33232  1.0000
  O   O330      1.0  0.63807  0.49168  0.16768  1.0000
  O   O331      1.0  0.13807  0.00832  0.83232  1.0000
  O   O332      1.0  0.86193  0.50832  0.66768  1.0000
  O   O333      1.0  0.49168  0.16768  0.63807  1.0000
  O   O334      1.0  0.99168  0.33232  0.36193  1.0000
  O   O335      1.0  0.50832  0.66768  0.86193  1.0000
  O   O336      1.0  0.00832  0.83232  0.13807  1.0000
  O   O337      1.0  0.39960  0.09167  0.28525  1.0000
  O   O338      1.0  0.10040  0.90833  0.78525  1.0000
  O   O339      1.0  0.60040  0.59167  0.21475  1.0000
  O   O340      1.0  0.89960  0.40833  0.71475  1.0000
  O   O341      1.0  0.28525  0.39960  0.09167  1.0000
  O   O342      1.0  0.78525  0.10040  0.90833  1.0000
  O   O343      1.0  0.21475  0.60040  0.59167  1.0000
  O   O344      1.0  0.71475  0.89960  0.40833  1.0000
  O   O345      1.0  0.09167  0.28525  0.39960  1.0000
  O   O346      1.0  0.90833  0.78525  0.10040  1.0000
  O   O347      1.0  0.59167  0.21475  0.60040  1.0000
  O   O348      1.0  0.40833  0.71475  0.89960  1.0000
  O   O349      1.0  0.84167  0.64960  0.96475  1.0000
  O   O350      1.0  0.65833  0.35040  0.46475  1.0000
  O   O351      1.0  0.34167  0.85040  0.03525  1.0000
  O   O352      1.0  0.15833  0.14960  0.53525  1.0000
  O   O353      1.0  0.14960  0.53525  0.15833  1.0000
  O   O354      1.0  0.85040  0.03525  0.34167  1.0000
  O   O355      1.0  0.35040  0.46475  0.65833  1.0000
  O   O356      1.0  0.64960  0.96475  0.84167  1.0000
  O   O357      1.0  0.03525  0.34167  0.85040  1.0000
  O   O358      1.0  0.53525  0.15833  0.14960  1.0000
  O   O359      1.0  0.96475  0.84167  0.64960  1.0000
  O   O360      1.0  0.46475  0.65833  0.35040  1.0000
  O   O361      1.0  0.89960  0.59167  0.78525  1.0000
  O   O362      1.0  0.60040  0.40833  0.28525  1.0000
  O   O363      1.0  0.10040  0.09167  0.71475  1.0000
  O   O364      1.0  0.39960  0.90833  0.21475  1.0000
  O   O365      1.0  0.78525  0.89960  0.59167  1.0000
  O   O366      1.0  0.28525  0.60040  0.40833  1.0000
  O   O367      1.0  0.71475  0.10040  0.09167  1.0000
  O   O368      1.0  0.21475  0.39960  0.90833  1.0000
  O   O369      1.0  0.59167  0.78525  0.89960  1.0000
  O   O370      1.0  0.40833  0.28525  0.60040  1.0000
  O   O371      1.0  0.09167  0.71475  0.10040  1.0000
  O   O372      1.0  0.90833  0.21475  0.39960  1.0000
  O   O373      1.0  0.34167  0.14960  0.46475  1.0000
  O   O374      1.0  0.15833  0.85040  0.96475  1.0000
  O   O375      1.0  0.84167  0.35040  0.53525  1.0000
  O   O376      1.0  0.65833  0.64960  0.03525  1.0000
  O   O377      1.0  0.64960  0.03525  0.65833  1.0000
  O   O378      1.0  0.35040  0.53525  0.84167  1.0000
  O   O379      1.0  0.85040  0.96475  0.15833  1.0000
  O   O380      1.0  0.14960  0.46475  0.34167  1.0000
  O   O381      1.0  0.53525  0.84167  0.35040  1.0000
  O   O382      1.0  0.03525  0.65833  0.64960  1.0000
  O   O383      1.0  0.46475  0.34167  0.14960  1.0000
  O   O384      1.0  0.96475  0.15833  0.85040  1.0000
  O   O385      1.0  0.60040  0.90833  0.71475  1.0000
  O   O386      1.0  0.89960  0.09167  0.21475  1.0000
  O   O387      1.0  0.39960  0.40833  0.78525  1.0000
  O   O388      1.0  0.10040  0.59167  0.28525  1.0000
  O   O389      1.0  0.71475  0.60040  0.90833  1.0000
  O   O390      1.0  0.21475  0.89960  0.09167  1.0000
  O   O391      1.0  0.78525  0.39960  0.40833  1.0000
  O   O392      1.0  0.28525  0.10040  0.59167  1.0000
  O   O393      1.0  0.90833  0.71475  0.60040  1.0000
  O   O394      1.0  0.09167  0.21475  0.89960  1.0000
  O   O395      1.0  0.40833  0.78525  0.39960  1.0000
  O   O396      1.0  0.59167  0.28525  0.10040  1.0000
  O   O397      1.0  0.15833  0.35040  0.03525  1.0000
  O   O398      1.0  0.34167  0.64960  0.53525  1.0000
  O   O399      1.0  0.65833  0.14960  0.96475  1.0000
  O   O400      1.0  0.84167  0.85040  0.46475  1.0000
  O   O401      1.0  0.85040  0.46475  0.84167  1.0000
  O   O402      1.0  0.14960  0.96475  0.65833  1.0000
  O   O403      1.0  0.64960  0.53525  0.34167  1.0000
  O   O404      1.0  0.35040  0.03525  0.15833  1.0000
  O   O405      1.0  0.96475  0.65833  0.14960  1.0000
  O   O406      1.0  0.46475  0.84167  0.85040  1.0000
  O   O407      1.0  0.03525  0.15833  0.35040  1.0000
  O   O408      1.0  0.53525  0.34167  0.64960  1.0000
  O   O409      1.0  0.10040  0.40833  0.21475  1.0000
  O   O410      1.0  0.39960  0.59167  0.71475  1.0000
  O   O411      1.0  0.89960  0.90833  0.28525  1.0000
  O   O412      1.0  0.60040  0.09167  0.78525  1.0000
  O   O413      1.0  0.21475  0.10040  0.40833  1.0000
  O   O414      1.0  0.71475  0.39960  0.59167  1.0000
  O   O415      1.0  0.28525  0.89960  0.90833  1.0000
  O   O416      1.0  0.78525  0.60040  0.09167  1.0000
  O   O417      1.0  0.40833  0.21475  0.10040  1.0000
  O   O418      1.0  0.59167  0.71475  0.39960  1.0000
  O   O419      1.0  0.90833  0.28525  0.89960  1.0000
  O   O420      1.0  0.09167  0.78525  0.60040  1.0000
  O   O421      1.0  0.65833  0.85040  0.53525  1.0000
  O   O422      1.0  0.84167  0.14960  0.03525  1.0000
  O   O423      1.0  0.15833  0.64960  0.46475  1.0000
  O   O424      1.0  0.34167  0.35040  0.96475  1.0000
  O   O425      1.0  0.35040  0.96475  0.34167  1.0000
  O   O426      1.0  0.64960  0.46475  0.15833  1.0000
  O   O427      1.0  0.14960  0.03525  0.84167  1.0000
  O   O428      1.0  0.85040  0.53525  0.65833  1.0000
  O   O429      1.0  0.46475  0.15833  0.64960  1.0000
  O   O430      1.0  0.96475  0.34167  0.35040  1.0000
  O   O431      1.0  0.53525  0.65833  0.85040  1.0000
  O   O432      1.0  0.03525  0.84167  0.14960  1.0000
  C   C1249     1.0  0.40962  0.10843  0.25668  1.0000
  C   C1250     1.0  0.09038  0.89157  0.75668  1.0000
  C   C1251     1.0  0.59038  0.60843  0.24332  1.0000
  C   C1252     1.0  0.90962  0.39157  0.74332  1.0000
  C   C1253     1.0  0.25668  0.40962  0.10843  1.0000
  C   C1254     1.0  0.75668  0.09038  0.89157  1.0000
  C   C1255     1.0  0.24332  0.59038  0.60843  1.0000
  C   C1256     1.0  0.74332  0.90962  0.39157  1.0000
  C   C1257     1.0  0.10843  0.25668  0.40962  1.0000
  C   C1258     1.0  0.89157  0.75668  0.09038  1.0000
  C   C1259     1.0  0.60843  0.24332  0.59038  1.0000
  C   C1260     1.0  0.39157  0.74332  0.90962  1.0000
  C   C1261     1.0  0.85843  0.65962  0.99332  1.0000
  C   C1262     1.0  0.64157  0.34038  0.49332  1.0000
  C   C1263     1.0  0.35843  0.84038  0.00668  1.0000
  C   C1264     1.0  0.14157  0.15962  0.50668  1.0000
  C   C1265     1.0  0.15962  0.50668  0.14157  1.0000
  C   C1266     1.0  0.84038  0.00668  0.35843  1.0000
  C   C1267     1.0  0.34038  0.49332  0.64157  1.0000
  C   C1268     1.0  0.65962  0.99332  0.85843  1.0000
  C   C1269     1.0  0.00668  0.35843  0.84038  1.0000
  C   C1270     1.0  0.50668  0.14157  0.15962  1.0000
  C   C1271     1.0  0.99332  0.85843  0.65962  1.0000
  C   C1272     1.0  0.49332  0.64157  0.34038  1.0000
  C   C1273     1.0  0.90962  0.60843  0.75668  1.0000
  C   C1274     1.0  0.59038  0.39157  0.25668  1.0000
  C   C1275     1.0  0.09038  0.10843  0.74332  1.0000
  C   C1276     1.0  0.40962  0.89157  0.24332  1.0000
  C   C1277     1.0  0.75668  0.90962  0.60843  1.0000
  C   C1278     1.0  0.25668  0.59038  0.39157  1.0000
  C   C1279     1.0  0.74332  0.09038  0.10843  1.0000
  C   C1280     1.0  0.24332  0.40962  0.89157  1.0000
  C   C1281     1.0  0.60843  0.75668  0.90962  1.0000
  C   C1282     1.0  0.39157  0.25668  0.59038  1.0000
  C   C1283     1.0  0.10843  0.74332  0.09038  1.0000
  C   C1284     1.0  0.89157  0.24332  0.40962  1.0000
  C   C1285     1.0  0.35843  0.15962  0.49332  1.0000
  C   C1286     1.0  0.14157  0.84038  0.99332  1.0000
  C   C1287     1.0  0.85843  0.34038  0.50668  1.0000
  C   C1288     1.0  0.64157  0.65962  0.00668  1.0000
  C   C1289     1.0  0.65962  0.00668  0.64157  1.0000
  C   C1290     1.0  0.34038  0.50668  0.85843  1.0000
  C   C1291     1.0  0.84038  0.99332  0.14157  1.0000
  C   C1292     1.0  0.15962  0.49332  0.35843  1.0000
  C   C1293     1.0  0.50668  0.85843  0.34038  1.0000
  C   C1294     1.0  0.00668  0.64157  0.65962  1.0000
  C   C1295     1.0  0.49332  0.35843  0.15962  1.0000
  C   C1296     1.0  0.99332  0.14157  0.84038  1.0000
  C   C1297     1.0  0.59038  0.89157  0.74332  1.0000
  C   C1298     1.0  0.90962  0.10843  0.24332  1.0000
  C   C1299     1.0  0.40962  0.39157  0.75668  1.0000
  C   C1300     1.0  0.09038  0.60843  0.25668  1.0000
  C   C1301     1.0  0.74332  0.59038  0.89157  1.0000
  C   C1302     1.0  0.24332  0.90962  0.10843  1.0000
  C   C1303     1.0  0.75668  0.40962  0.39157  1.0000
  C   C1304     1.0  0.25668  0.09038  0.60843  1.0000
  C   C1305     1.0  0.89157  0.74332  0.59038  1.0000
  C   C1306     1.0  0.10843  0.24332  0.90962  1.0000
  C   C1307     1.0  0.39157  0.75668  0.40962  1.0000
  C   C1308     1.0  0.60843  0.25668  0.09038  1.0000
  C   C1309     1.0  0.14157  0.34038  0.00668  1.0000
  C   C1310     1.0  0.35843  0.65962  0.50668  1.0000
  C   C1311     1.0  0.64157  0.15962  0.99332  1.0000
  C   C1312     1.0  0.85843  0.84038  0.49332  1.0000
  C   C1313     1.0  0.84038  0.49332  0.85843  1.0000
  C   C1314     1.0  0.15962  0.99332  0.64157  1.0000
  C   C1315     1.0  0.65962  0.50668  0.35843  1.0000
  C   C1316     1.0  0.34038  0.00668  0.14157  1.0000
  C   C1317     1.0  0.99332  0.64157  0.15962  1.0000
  C   C1318     1.0  0.49332  0.85843  0.84038  1.0000
  C   C1319     1.0  0.00668  0.14157  0.34038  1.0000
  C   C1320     1.0  0.50668  0.35843  0.65962  1.0000
  C   C1321     1.0  0.09038  0.39157  0.24332  1.0000
  C   C1322     1.0  0.40962  0.60843  0.74332  1.0000
  C   C1323     1.0  0.90962  0.89157  0.25668  1.0000
  C   C1324     1.0  0.59038  0.10843  0.75668  1.0000
  C   C1325     1.0  0.24332  0.09038  0.39157  1.0000
  C   C1326     1.0  0.74332  0.40962  0.60843  1.0000
  C   C1327     1.0  0.25668  0.90962  0.89157  1.0000
  C   C1328     1.0  0.75668  0.59038  0.10843  1.0000
  C   C1329     1.0  0.39157  0.24332  0.09038  1.0000
  C   C1330     1.0  0.60843  0.74332  0.40962  1.0000
  C   C1331     1.0  0.89157  0.25668  0.90962  1.0000
  C   C1332     1.0  0.10843  0.75668  0.59038  1.0000
  C   C1333     1.0  0.64157  0.84038  0.50668  1.0000
  C   C1334     1.0  0.85843  0.15962  0.00668  1.0000
  C   C1335     1.0  0.14157  0.65962  0.49332  1.0000
  C   C1336     1.0  0.35843  0.34038  0.99332  1.0000
  C   C1337     1.0  0.34038  0.99332  0.35843  1.0000
  C   C1338     1.0  0.65962  0.49332  0.14157  1.0000
  C   C1339     1.0  0.15962  0.00668  0.85843  1.0000
  C   C1340     1.0  0.84038  0.50668  0.64157  1.0000
  C   C1341     1.0  0.49332  0.14157  0.65962  1.0000
  C   C1342     1.0  0.99332  0.35843  0.34038  1.0000
  C   C1343     1.0  0.50668  0.64157  0.84038  1.0000
  C   C1344     1.0  0.00668  0.85843  0.15962  1.0000
  C   C1345     1.0  0.40990  0.10877  0.23774  1.0000
  C   C1346     1.0  0.09010  0.89123  0.73774  1.0000
  C   C1347     1.0  0.59010  0.60877  0.26226  1.0000
  C   C1348     1.0  0.90990  0.39123  0.76226  1.0000
  C   C1349     1.0  0.23774  0.40990  0.10877  1.0000
  C   C1350     1.0  0.73774  0.09010  0.89123  1.0000
  C   C1351     1.0  0.26226  0.59010  0.60877  1.0000
  C   C1352     1.0  0.76226  0.90990  0.39123  1.0000
  C   C1353     1.0  0.10877  0.23774  0.40990  1.0000
  C   C1354     1.0  0.89123  0.73774  0.09010  1.0000
  C   C1355     1.0  0.60877  0.26226  0.59010  1.0000
  C   C1356     1.0  0.39123  0.76226  0.90990  1.0000
  C   C1357     1.0  0.85877  0.65990  0.01226  1.0000
  C   C1358     1.0  0.64123  0.34010  0.51226  1.0000
  C   C1359     1.0  0.35877  0.84010  0.98774  1.0000
  C   C1360     1.0  0.14123  0.15990  0.48774  1.0000
  C   C1361     1.0  0.15990  0.48774  0.14123  1.0000
  C   C1362     1.0  0.84010  0.98774  0.35877  1.0000
  C   C1363     1.0  0.34010  0.51226  0.64123  1.0000
  C   C1364     1.0  0.65990  0.01226  0.85877  1.0000
  C   C1365     1.0  0.98774  0.35877  0.84010  1.0000
  C   C1366     1.0  0.48774  0.14123  0.15990  1.0000
  C   C1367     1.0  0.01226  0.85877  0.65990  1.0000
  C   C1368     1.0  0.51226  0.64123  0.34010  1.0000
  C   C1369     1.0  0.90990  0.60877  0.73774  1.0000
  C   C1370     1.0  0.59010  0.39123  0.23774  1.0000
  C   C1371     1.0  0.09010  0.10877  0.76226  1.0000
  C   C1372     1.0  0.40990  0.89123  0.26226  1.0000
  C   C1373     1.0  0.73774  0.90990  0.60877  1.0000
  C   C1374     1.0  0.23774  0.59010  0.39123  1.0000
  C   C1375     1.0  0.76226  0.09010  0.10877  1.0000
  C   C1376     1.0  0.26226  0.40990  0.89123  1.0000
  C   C1377     1.0  0.60877  0.73774  0.90990  1.0000
  C   C1378     1.0  0.39123  0.23774  0.59010  1.0000
  C   C1379     1.0  0.10877  0.76226  0.09010  1.0000
  C   C1380     1.0  0.89123  0.26226  0.40990  1.0000
  C   C1381     1.0  0.35877  0.15990  0.51226  1.0000
  C   C1382     1.0  0.14123  0.84010  0.01226  1.0000
  C   C1383     1.0  0.85877  0.34010  0.48774  1.0000
  C   C1384     1.0  0.64123  0.65990  0.98774  1.0000
  C   C1385     1.0  0.65990  0.98774  0.64123  1.0000
  C   C1386     1.0  0.34010  0.48774  0.85877  1.0000
  C   C1387     1.0  0.84010  0.01226  0.14123  1.0000
  C   C1388     1.0  0.15990  0.51226  0.35877  1.0000
  C   C1389     1.0  0.48774  0.85877  0.34010  1.0000
  C   C1390     1.0  0.98774  0.64123  0.65990  1.0000
  C   C1391     1.0  0.51226  0.35877  0.15990  1.0000
  C   C1392     1.0  0.01226  0.14123  0.84010  1.0000
  C   C1393     1.0  0.59010  0.89123  0.76226  1.0000
  C   C1394     1.0  0.90990  0.10877  0.26226  1.0000
  C   C1395     1.0  0.40990  0.39123  0.73774  1.0000
  C   C1396     1.0  0.09010  0.60877  0.23774  1.0000
  C   C1397     1.0  0.76226  0.59010  0.89123  1.0000
  C   C1398     1.0  0.26226  0.90990  0.10877  1.0000
  C   C1399     1.0  0.73774  0.40990  0.39123  1.0000
  C   C1400     1.0  0.23774  0.09010  0.60877  1.0000
  C   C1401     1.0  0.89123  0.76226  0.59010  1.0000
  C   C1402     1.0  0.10877  0.26226  0.90990  1.0000
  C   C1403     1.0  0.39123  0.73774  0.40990  1.0000
  C   C1404     1.0  0.60877  0.23774  0.09010  1.0000
  C   C1405     1.0  0.14123  0.34010  0.98774  1.0000
  C   C1406     1.0  0.35877  0.65990  0.48774  1.0000
  C   C1407     1.0  0.64123  0.15990  0.01226  1.0000
  C   C1408     1.0  0.85877  0.84010  0.51226  1.0000
  C   C1409     1.0  0.84010  0.51226  0.85877  1.0000
  C   C1410     1.0  0.15990  0.01226  0.64123  1.0000
  C   C1411     1.0  0.65990  0.48774  0.35877  1.0000
  C   C1412     1.0  0.34010  0.98774  0.14123  1.0000
  C   C1413     1.0  0.01226  0.64123  0.15990  1.0000
  C   C1414     1.0  0.51226  0.85877  0.84010  1.0000
  C   C1415     1.0  0.98774  0.14123  0.34010  1.0000
  C   C1416     1.0  0.48774  0.35877  0.65990  1.0000
  C   C1417     1.0  0.09010  0.39123  0.26226  1.0000
  C   C1418     1.0  0.40990  0.60877  0.76226  1.0000
  C   C1419     1.0  0.90990  0.89123  0.23774  1.0000
  C   C1420     1.0  0.59010  0.10877  0.73774  1.0000
  C   C1421     1.0  0.26226  0.09010  0.39123  1.0000
  C   C1422     1.0  0.76226  0.40990  0.60877  1.0000
  C   C1423     1.0  0.23774  0.90990  0.89123  1.0000
  C   C1424     1.0  0.73774  0.59010  0.10877  1.0000
  C   C1425     1.0  0.39123  0.26226  0.09010  1.0000
  C   C1426     1.0  0.60877  0.76226  0.40990  1.0000
  C   C1427     1.0  0.89123  0.23774  0.90990  1.0000
  C   C1428     1.0  0.10877  0.73774  0.59010  1.0000
  C   C1429     1.0  0.64123  0.84010  0.48774  1.0000
  C   C1430     1.0  0.85877  0.15990  0.98774  1.0000
  C   C1431     1.0  0.14123  0.65990  0.51226  1.0000
  C   C1432     1.0  0.35877  0.34010  0.01226  1.0000
  C   C1433     1.0  0.34010  0.01226  0.35877  1.0000
  C   C1434     1.0  0.65990  0.51226  0.14123  1.0000
  C   C1435     1.0  0.15990  0.98774  0.85877  1.0000
  C   C1436     1.0  0.84010  0.48774  0.64123  1.0000
  C   C1437     1.0  0.51226  0.14123  0.65990  1.0000
  C   C1438     1.0  0.01226  0.35877  0.34010  1.0000
  C   C1439     1.0  0.48774  0.64123  0.84010  1.0000
  C   C1440     1.0  0.98774  0.85877  0.15990  1.0000
  H   H769      1.0  0.40340  0.09920  0.23080  1.0000
  H   H770      1.0  0.09660  0.90080  0.73080  1.0000
  H   H771      1.0  0.59660  0.59920  0.26920  1.0000
  H   H772      1.0  0.90340  0.40080  0.76920  1.0000
  H   H773      1.0  0.23080  0.40340  0.09920  1.0000
  H   H774      1.0  0.73080  0.09660  0.90080  1.0000
  H   H775      1.0  0.26920  0.59660  0.59920  1.0000
  H   H776      1.0  0.76920  0.90340  0.40080  1.0000
  H   H777      1.0  0.09920  0.23080  0.40340  1.0000
  H   H778      1.0  0.90080  0.73080  0.09660  1.0000
  H   H779      1.0  0.59920  0.26920  0.59660  1.0000
  H   H780      1.0  0.40080  0.76920  0.90340  1.0000
  H   H781      1.0  0.84920  0.65340  0.01920  1.0000
  H   H782      1.0  0.65080  0.34660  0.51920  1.0000
  H   H783      1.0  0.34920  0.84660  0.98080  1.0000
  H   H784      1.0  0.15080  0.15340  0.48080  1.0000
  H   H785      1.0  0.15340  0.48080  0.15080  1.0000
  H   H786      1.0  0.84660  0.98080  0.34920  1.0000
  H   H787      1.0  0.34660  0.51920  0.65080  1.0000
  H   H788      1.0  0.65340  0.01920  0.84920  1.0000
  H   H789      1.0  0.98080  0.34920  0.84660  1.0000
  H   H790      1.0  0.48080  0.15080  0.15340  1.0000
  H   H791      1.0  0.01920  0.84920  0.65340  1.0000
  H   H792      1.0  0.51920  0.65080  0.34660  1.0000
  H   H793      1.0  0.90340  0.59920  0.73080  1.0000
  H   H794      1.0  0.59660  0.40080  0.23080  1.0000
  H   H795      1.0  0.09660  0.09920  0.76920  1.0000
  H   H796      1.0  0.40340  0.90080  0.26920  1.0000
  H   H797      1.0  0.73080  0.90340  0.59920  1.0000
  H   H798      1.0  0.23080  0.59660  0.40080  1.0000
  H   H799      1.0  0.76920  0.09660  0.09920  1.0000
  H   H800      1.0  0.26920  0.40340  0.90080  1.0000
  H   H801      1.0  0.59920  0.73080  0.90340  1.0000
  H   H802      1.0  0.40080  0.23080  0.59660  1.0000
  H   H803      1.0  0.09920  0.76920  0.09660  1.0000
  H   H804      1.0  0.90080  0.26920  0.40340  1.0000
  H   H805      1.0  0.34920  0.15340  0.51920  1.0000
  H   H806      1.0  0.15080  0.84660  0.01920  1.0000
  H   H807      1.0  0.84920  0.34660  0.48080  1.0000
  H   H808      1.0  0.65080  0.65340  0.98080  1.0000
  H   H809      1.0  0.65340  0.98080  0.65080  1.0000
  H   H810      1.0  0.34660  0.48080  0.84920  1.0000
  H   H811      1.0  0.84660  0.01920  0.15080  1.0000
  H   H812      1.0  0.15340  0.51920  0.34920  1.0000
  H   H813      1.0  0.48080  0.84920  0.34660  1.0000
  H   H814      1.0  0.98080  0.65080  0.65340  1.0000
  H   H815      1.0  0.51920  0.34920  0.15340  1.0000
  H   H816      1.0  0.01920  0.15080  0.84660  1.0000
  H   H817      1.0  0.59660  0.90080  0.76920  1.0000
  H   H818      1.0  0.90340  0.09920  0.26920  1.0000
  H   H819      1.0  0.40340  0.40080  0.73080  1.0000
  H   H820      1.0  0.09660  0.59920  0.23080  1.0000
  H   H821      1.0  0.76920  0.59660  0.90080  1.0000
  H   H822      1.0  0.26920  0.90340  0.09920  1.0000
  H   H823      1.0  0.73080  0.40340  0.40080  1.0000
  H   H824      1.0  0.23080  0.09660  0.59920  1.0000
  H   H825      1.0  0.90080  0.76920  0.59660  1.0000
  H   H826      1.0  0.09920  0.26920  0.90340  1.0000
  H   H827      1.0  0.40080  0.73080  0.40340  1.0000
  H   H828      1.0  0.59920  0.23080  0.09660  1.0000
  H   H829      1.0  0.15080  0.34660  0.98080  1.0000
  H   H830      1.0  0.34920  0.65340  0.48080  1.0000
  H   H831      1.0  0.65080  0.15340  0.01920  1.0000
  H   H832      1.0  0.84920  0.84660  0.51920  1.0000
  H   H833      1.0  0.84660  0.51920  0.84920  1.0000
  H   H834      1.0  0.15340  0.01920  0.65080  1.0000
  H   H835      1.0  0.65340  0.48080  0.34920  1.0000
  H   H836      1.0  0.34660  0.98080  0.15080  1.0000
  H   H837      1.0  0.01920  0.65080  0.15340  1.0000
  H   H838      1.0  0.51920  0.84920  0.84660  1.0000
  H   H839      1.0  0.98080  0.15080  0.34660  1.0000
  H   H840      1.0  0.48080  0.34920  0.65340  1.0000
  H   H841      1.0  0.09660  0.40080  0.26920  1.0000
  H   H842      1.0  0.40340  0.59920  0.76920  1.0000
  H   H843      1.0  0.90340  0.90080  0.23080  1.0000
  H   H844      1.0  0.59660  0.09920  0.73080  1.0000
  H   H845      1.0  0.26920  0.09660  0.40080  1.0000
  H   H846      1.0  0.76920  0.40340  0.59920  1.0000
  H   H847      1.0  0.23080  0.90340  0.90080  1.0000
  H   H848      1.0  0.73080  0.59660  0.09920  1.0000
  H   H849      1.0  0.40080  0.26920  0.09660  1.0000
  H   H850      1.0  0.59920  0.76920  0.40340  1.0000
  H   H851      1.0  0.90080  0.23080  0.90340  1.0000
  H   H852      1.0  0.09920  0.73080  0.59660  1.0000
  H   H853      1.0  0.65080  0.84660  0.48080  1.0000
  H   H854      1.0  0.84920  0.15340  0.98080  1.0000
  H   H855      1.0  0.15080  0.65340  0.51920  1.0000
  H   H856      1.0  0.34920  0.34660  0.01920  1.0000
  H   H857      1.0  0.34660  0.01920  0.34920  1.0000
  H   H858      1.0  0.65340  0.51920  0.15080  1.0000
  H   H859      1.0  0.15340  0.98080  0.84920  1.0000
  H   H860      1.0  0.84660  0.48080  0.65080  1.0000
  H   H861      1.0  0.51920  0.15080  0.65340  1.0000
  H   H862      1.0  0.01920  0.34920  0.34660  1.0000
  H   H863      1.0  0.48080  0.65080  0.84660  1.0000
  H   H864      1.0  0.98080  0.84920  0.15340  1.0000
  C   C1441     1.0  0.41980  0.12350  0.22766  1.0000
  C   C1442     1.0  0.08020  0.87650  0.72766  1.0000
  C   C1443     1.0  0.58020  0.62350  0.27234  1.0000
  C   C1444     1.0  0.91980  0.37650  0.77234  1.0000
  C   C1445     1.0  0.22766  0.41980  0.12350  1.0000
  C   C1446     1.0  0.72766  0.08020  0.87650  1.0000
  C   C1447     1.0  0.27234  0.58020  0.62350  1.0000
  C   C1448     1.0  0.77234  0.91980  0.37650  1.0000
  C   C1449     1.0  0.12350  0.22766  0.41980  1.0000
  C   C1450     1.0  0.87650  0.72766  0.08020  1.0000
  C   C1451     1.0  0.62350  0.27234  0.58020  1.0000
  C   C1452     1.0  0.37650  0.77234  0.91980  1.0000
  C   C1453     1.0  0.87350  0.66980  0.02234  1.0000
  C   C1454     1.0  0.62650  0.33020  0.52234  1.0000
  C   C1455     1.0  0.37350  0.83020  0.97766  1.0000
  C   C1456     1.0  0.12650  0.16980  0.47766  1.0000
  C   C1457     1.0  0.16980  0.47766  0.12650  1.0000
  C   C1458     1.0  0.83020  0.97766  0.37350  1.0000
  C   C1459     1.0  0.33020  0.52234  0.62650  1.0000
  C   C1460     1.0  0.66980  0.02234  0.87350  1.0000
  C   C1461     1.0  0.97766  0.37350  0.83020  1.0000
  C   C1462     1.0  0.47766  0.12650  0.16980  1.0000
  C   C1463     1.0  0.02234  0.87350  0.66980  1.0000
  C   C1464     1.0  0.52234  0.62650  0.33020  1.0000
  C   C1465     1.0  0.91980  0.62350  0.72766  1.0000
  C   C1466     1.0  0.58020  0.37650  0.22766  1.0000
  C   C1467     1.0  0.08020  0.12350  0.77234  1.0000
  C   C1468     1.0  0.41980  0.87650  0.27234  1.0000
  C   C1469     1.0  0.72766  0.91980  0.62350  1.0000
  C   C1470     1.0  0.22766  0.58020  0.37650  1.0000
  C   C1471     1.0  0.77234  0.08020  0.12350  1.0000
  C   C1472     1.0  0.27234  0.41980  0.87650  1.0000
  C   C1473     1.0  0.62350  0.72766  0.91980  1.0000
  C   C1474     1.0  0.37650  0.22766  0.58020  1.0000
  C   C1475     1.0  0.12350  0.77234  0.08020  1.0000
  C   C1476     1.0  0.87650  0.27234  0.41980  1.0000
  C   C1477     1.0  0.37350  0.16980  0.52234  1.0000
  C   C1478     1.0  0.12650  0.83020  0.02234  1.0000
  C   C1479     1.0  0.87350  0.33020  0.47766  1.0000
  C   C1480     1.0  0.62650  0.66980  0.97766  1.0000
  C   C1481     1.0  0.66980  0.97766  0.62650  1.0000
  C   C1482     1.0  0.33020  0.47766  0.87350  1.0000
  C   C1483     1.0  0.83020  0.02234  0.12650  1.0000
  C   C1484     1.0  0.16980  0.52234  0.37350  1.0000
  C   C1485     1.0  0.47766  0.87350  0.33020  1.0000
  C   C1486     1.0  0.97766  0.62650  0.66980  1.0000
  C   C1487     1.0  0.52234  0.37350  0.16980  1.0000
  C   C1488     1.0  0.02234  0.12650  0.83020  1.0000
  C   C1489     1.0  0.58020  0.87650  0.77234  1.0000
  C   C1490     1.0  0.91980  0.12350  0.27234  1.0000
  C   C1491     1.0  0.41980  0.37650  0.72766  1.0000
  C   C1492     1.0  0.08020  0.62350  0.22766  1.0000
  C   C1493     1.0  0.77234  0.58020  0.87650  1.0000
  C   C1494     1.0  0.27234  0.91980  0.12350  1.0000
  C   C1495     1.0  0.72766  0.41980  0.37650  1.0000
  C   C1496     1.0  0.22766  0.08020  0.62350  1.0000
  C   C1497     1.0  0.87650  0.77234  0.58020  1.0000
  C   C1498     1.0  0.12350  0.27234  0.91980  1.0000
  C   C1499     1.0  0.37650  0.72766  0.41980  1.0000
  C   C1500     1.0  0.62350  0.22766  0.08020  1.0000
  C   C1501     1.0  0.12650  0.33020  0.97766  1.0000
  C   C1502     1.0  0.37350  0.66980  0.47766  1.0000
  C   C1503     1.0  0.62650  0.16980  0.02234  1.0000
  C   C1504     1.0  0.87350  0.83020  0.52234  1.0000
  C   C1505     1.0  0.83020  0.52234  0.87350  1.0000
  C   C1506     1.0  0.16980  0.02234  0.62650  1.0000
  C   C1507     1.0  0.66980  0.47766  0.37350  1.0000
  C   C1508     1.0  0.33020  0.97766  0.12650  1.0000
  C   C1509     1.0  0.02234  0.62650  0.16980  1.0000
  C   C1510     1.0  0.52234  0.87350  0.83020  1.0000
  C   C1511     1.0  0.97766  0.12650  0.33020  1.0000
  C   C1512     1.0  0.47766  0.37350  0.66980  1.0000
  C   C1513     1.0  0.08020  0.37650  0.27234  1.0000
  C   C1514     1.0  0.41980  0.62350  0.77234  1.0000
  C   C1515     1.0  0.91980  0.87650  0.22766  1.0000
  C   C1516     1.0  0.58020  0.12350  0.72766  1.0000
  C   C1517     1.0  0.27234  0.08020  0.37650  1.0000
  C   C1518     1.0  0.77234  0.41980  0.62350  1.0000
  C   C1519     1.0  0.22766  0.91980  0.87650  1.0000
  C   C1520     1.0  0.72766  0.58020  0.12350  1.0000
  C   C1521     1.0  0.37650  0.27234  0.08020  1.0000
  C   C1522     1.0  0.62350  0.77234  0.41980  1.0000
  C   C1523     1.0  0.87650  0.22766  0.91980  1.0000
  C   C1524     1.0  0.12350  0.72766  0.58020  1.0000
  C   C1525     1.0  0.62650  0.83020  0.47766  1.0000
  C   C1526     1.0  0.87350  0.16980  0.97766  1.0000
  C   C1527     1.0  0.12650  0.66980  0.52234  1.0000
  C   C1528     1.0  0.37350  0.33020  0.02234  1.0000
  C   C1529     1.0  0.33020  0.02234  0.37350  1.0000
  C   C1530     1.0  0.66980  0.52234  0.12650  1.0000
  C   C1531     1.0  0.16980  0.97766  0.87350  1.0000
  C   C1532     1.0  0.83020  0.47766  0.62650  1.0000
  C   C1533     1.0  0.52234  0.12650  0.66980  1.0000
  C   C1534     1.0  0.02234  0.37350  0.33020  1.0000
  C   C1535     1.0  0.47766  0.62650  0.83020  1.0000
  C   C1536     1.0  0.97766  0.87350  0.16980  1.0000
  H   H865      1.0  0.42000  0.12320  0.21420  1.0000
  H   H866      1.0  0.08000  0.87680  0.71420  1.0000
  H   H867      1.0  0.58000  0.62320  0.28580  1.0000
  H   H868      1.0  0.92000  0.37680  0.78580  1.0000
  H   H869      1.0  0.21420  0.42000  0.12320  1.0000
  H   H870      1.0  0.71420  0.08000  0.87680  1.0000
  H   H871      1.0  0.28580  0.58000  0.62320  1.0000
  H   H872      1.0  0.78580  0.92000  0.37680  1.0000
  H   H873      1.0  0.12320  0.21420  0.42000  1.0000
  H   H874      1.0  0.87680  0.71420  0.08000  1.0000
  H   H875      1.0  0.62320  0.28580  0.58000  1.0000
  H   H876      1.0  0.37680  0.78580  0.92000  1.0000
  H   H877      1.0  0.87320  0.67000  0.03580  1.0000
  H   H878      1.0  0.62680  0.33000  0.53580  1.0000
  H   H879      1.0  0.37320  0.83000  0.96420  1.0000
  H   H880      1.0  0.12680  0.17000  0.46420  1.0000
  H   H881      1.0  0.17000  0.46420  0.12680  1.0000
  H   H882      1.0  0.83000  0.96420  0.37320  1.0000
  H   H883      1.0  0.33000  0.53580  0.62680  1.0000
  H   H884      1.0  0.67000  0.03580  0.87320  1.0000
  H   H885      1.0  0.96420  0.37320  0.83000  1.0000
  H   H886      1.0  0.46420  0.12680  0.17000  1.0000
  H   H887      1.0  0.03580  0.87320  0.67000  1.0000
  H   H888      1.0  0.53580  0.62680  0.33000  1.0000
  H   H889      1.0  0.92000  0.62320  0.71420  1.0000
  H   H890      1.0  0.58000  0.37680  0.21420  1.0000
  H   H891      1.0  0.08000  0.12320  0.78580  1.0000
  H   H892      1.0  0.42000  0.87680  0.28580  1.0000
  H   H893      1.0  0.71420  0.92000  0.62320  1.0000
  H   H894      1.0  0.21420  0.58000  0.37680  1.0000
  H   H895      1.0  0.78580  0.08000  0.12320  1.0000
  H   H896      1.0  0.28580  0.42000  0.87680  1.0000
  H   H897      1.0  0.62320  0.71420  0.92000  1.0000
  H   H898      1.0  0.37680  0.21420  0.58000  1.0000
  H   H899      1.0  0.12320  0.78580  0.08000  1.0000
  H   H900      1.0  0.87680  0.28580  0.42000  1.0000
  H   H901      1.0  0.37320  0.17000  0.53580  1.0000
  H   H902      1.0  0.12680  0.83000  0.03580  1.0000
  H   H903      1.0  0.87320  0.33000  0.46420  1.0000
  H   H904      1.0  0.62680  0.67000  0.96420  1.0000
  H   H905      1.0  0.67000  0.96420  0.62680  1.0000
  H   H906      1.0  0.33000  0.46420  0.87320  1.0000
  H   H907      1.0  0.83000  0.03580  0.12680  1.0000
  H   H908      1.0  0.17000  0.53580  0.37320  1.0000
  H   H909      1.0  0.46420  0.87320  0.33000  1.0000
  H   H910      1.0  0.96420  0.62680  0.67000  1.0000
  H   H911      1.0  0.53580  0.37320  0.17000  1.0000
  H   H912      1.0  0.03580  0.12680  0.83000  1.0000
  H   H913      1.0  0.58000  0.87680  0.78580  1.0000
  H   H914      1.0  0.92000  0.12320  0.28580  1.0000
  H   H915      1.0  0.42000  0.37680  0.71420  1.0000
  H   H916      1.0  0.08000  0.62320  0.21420  1.0000
  H   H917      1.0  0.78580  0.58000  0.87680  1.0000
  H   H918      1.0  0.28580  0.92000  0.12320  1.0000
  H   H919      1.0  0.71420  0.42000  0.37680  1.0000
  H   H920      1.0  0.21420  0.08000  0.62320  1.0000
  H   H921      1.0  0.87680  0.78580  0.58000  1.0000
  H   H922      1.0  0.12320  0.28580  0.92000  1.0000
  H   H923      1.0  0.37680  0.71420  0.42000  1.0000
  H   H924      1.0  0.62320  0.21420  0.08000  1.0000
  H   H925      1.0  0.12680  0.33000  0.96420  1.0000
  H   H926      1.0  0.37320  0.67000  0.46420  1.0000
  H   H927      1.0  0.62680  0.17000  0.03580  1.0000
  H   H928      1.0  0.87320  0.83000  0.53580  1.0000
  H   H929      1.0  0.83000  0.53580  0.87320  1.0000
  H   H930      1.0  0.17000  0.03580  0.62680  1.0000
  H   H931      1.0  0.67000  0.46420  0.37320  1.0000
  H   H932      1.0  0.33000  0.96420  0.12680  1.0000
  H   H933      1.0  0.03580  0.62680  0.17000  1.0000
  H   H934      1.0  0.53580  0.87320  0.83000  1.0000
  H   H935      1.0  0.96420  0.12680  0.33000  1.0000
  H   H936      1.0  0.46420  0.37320  0.67000  1.0000
  H   H937      1.0  0.08000  0.37680  0.28580  1.0000
  H   H938      1.0  0.42000  0.62320  0.78580  1.0000
  H   H939      1.0  0.92000  0.87680  0.21420  1.0000
  H   H940      1.0  0.58000  0.12320  0.71420  1.0000
  H   H941      1.0  0.28580  0.08000  0.37680  1.0000
  H   H942      1.0  0.78580  0.42000  0.62320  1.0000
  H   H943      1.0  0.21420  0.92000  0.87680  1.0000
  H   H944      1.0  0.71420  0.58000  0.12320  1.0000
  H   H945      1.0  0.37680  0.28580  0.08000  1.0000
  H   H946      1.0  0.62320  0.78580  0.42000  1.0000
  H   H947      1.0  0.87680  0.21420  0.92000  1.0000
  H   H948      1.0  0.12320  0.71420  0.58000  1.0000
  H   H949      1.0  0.62680  0.83000  0.46420  1.0000
  H   H950      1.0  0.87320  0.17000  0.96420  1.0000
  H   H951      1.0  0.12680  0.67000  0.53580  1.0000
  H   H952      1.0  0.37320  0.33000  0.03580  1.0000
  H   H953      1.0  0.33000  0.03580  0.37320  1.0000
  H   H954      1.0  0.67000  0.53580  0.12680  1.0000
  H   H955      1.0  0.17000  0.96420  0.87320  1.0000
  H   H956      1.0  0.83000  0.46420  0.62680  1.0000
  H   H957      1.0  0.53580  0.12680  0.67000  1.0000
  H   H958      1.0  0.03580  0.37320  0.33000  1.0000
  H   H959      1.0  0.46420  0.62680  0.83000  1.0000
  H   H960      1.0  0.96420  0.87320  0.17000  1.0000
  C   C1537     1.0  0.42900  0.13786  0.23660  1.0000
  C   C1538     1.0  0.07100  0.86214  0.73660  1.0000
  C   C1539     1.0  0.57100  0.63786  0.26340  1.0000
  C   C1540     1.0  0.92900  0.36214  0.76340  1.0000
  C   C1541     1.0  0.23660  0.42900  0.13786  1.0000
  C   C1542     1.0  0.73660  0.07100  0.86214  1.0000
  C   C1543     1.0  0.26340  0.57100  0.63786  1.0000
  C   C1544     1.0  0.76340  0.92900  0.36214  1.0000
  C   C1545     1.0  0.13786  0.23660  0.42900  1.0000
  C   C1546     1.0  0.86214  0.73660  0.07100  1.0000
  C   C1547     1.0  0.63786  0.26340  0.57100  1.0000
  C   C1548     1.0  0.36214  0.76340  0.92900  1.0000
  C   C1549     1.0  0.88786  0.67900  0.01340  1.0000
  C   C1550     1.0  0.61214  0.32100  0.51340  1.0000
  C   C1551     1.0  0.38786  0.82100  0.98660  1.0000
  C   C1552     1.0  0.11214  0.17900  0.48660  1.0000
  C   C1553     1.0  0.17900  0.48660  0.11214  1.0000
  C   C1554     1.0  0.82100  0.98660  0.38786  1.0000
  C   C1555     1.0  0.32100  0.51340  0.61214  1.0000
  C   C1556     1.0  0.67900  0.01340  0.88786  1.0000
  C   C1557     1.0  0.98660  0.38786  0.82100  1.0000
  C   C1558     1.0  0.48660  0.11214  0.17900  1.0000
  C   C1559     1.0  0.01340  0.88786  0.67900  1.0000
  C   C1560     1.0  0.51340  0.61214  0.32100  1.0000
  C   C1561     1.0  0.92900  0.63786  0.73660  1.0000
  C   C1562     1.0  0.57100  0.36214  0.23660  1.0000
  C   C1563     1.0  0.07100  0.13786  0.76340  1.0000
  C   C1564     1.0  0.42900  0.86214  0.26340  1.0000
  C   C1565     1.0  0.73660  0.92900  0.63786  1.0000
  C   C1566     1.0  0.23660  0.57100  0.36214  1.0000
  C   C1567     1.0  0.76340  0.07100  0.13786  1.0000
  C   C1568     1.0  0.26340  0.42900  0.86214  1.0000
  C   C1569     1.0  0.63786  0.73660  0.92900  1.0000
  C   C1570     1.0  0.36214  0.23660  0.57100  1.0000
  C   C1571     1.0  0.13786  0.76340  0.07100  1.0000
  C   C1572     1.0  0.86214  0.26340  0.42900  1.0000
  C   C1573     1.0  0.38786  0.17900  0.51340  1.0000
  C   C1574     1.0  0.11214  0.82100  0.01340  1.0000
  C   C1575     1.0  0.88786  0.32100  0.48660  1.0000
  C   C1576     1.0  0.61214  0.67900  0.98660  1.0000
  C   C1577     1.0  0.67900  0.98660  0.61214  1.0000
  C   C1578     1.0  0.32100  0.48660  0.88786  1.0000
  C   C1579     1.0  0.82100  0.01340  0.11214  1.0000
  C   C1580     1.0  0.17900  0.51340  0.38786  1.0000
  C   C1581     1.0  0.48660  0.88786  0.32100  1.0000
  C   C1582     1.0  0.98660  0.61214  0.67900  1.0000
  C   C1583     1.0  0.51340  0.38786  0.17900  1.0000
  C   C1584     1.0  0.01340  0.11214  0.82100  1.0000
  C   C1585     1.0  0.57100  0.86214  0.76340  1.0000
  C   C1586     1.0  0.92900  0.13786  0.26340  1.0000
  C   C1587     1.0  0.42900  0.36214  0.73660  1.0000
  C   C1588     1.0  0.07100  0.63786  0.23660  1.0000
  C   C1589     1.0  0.76340  0.57100  0.86214  1.0000
  C   C1590     1.0  0.26340  0.92900  0.13786  1.0000
  C   C1591     1.0  0.73660  0.42900  0.36214  1.0000
  C   C1592     1.0  0.23660  0.07100  0.63786  1.0000
  C   C1593     1.0  0.86214  0.76340  0.57100  1.0000
  C   C1594     1.0  0.13786  0.26340  0.92900  1.0000
  C   C1595     1.0  0.36214  0.73660  0.42900  1.0000
  C   C1596     1.0  0.63786  0.23660  0.07100  1.0000
  C   C1597     1.0  0.11214  0.32100  0.98660  1.0000
  C   C1598     1.0  0.38786  0.67900  0.48660  1.0000
  C   C1599     1.0  0.61214  0.17900  0.01340  1.0000
  C   C1600     1.0  0.88786  0.82100  0.51340  1.0000
  C   C1601     1.0  0.82100  0.51340  0.88786  1.0000
  C   C1602     1.0  0.17900  0.01340  0.61214  1.0000
  C   C1603     1.0  0.67900  0.48660  0.38786  1.0000
  C   C1604     1.0  0.32100  0.98660  0.11214  1.0000
  C   C1605     1.0  0.01340  0.61214  0.17900  1.0000
  C   C1606     1.0  0.51340  0.88786  0.82100  1.0000
  C   C1607     1.0  0.98660  0.11214  0.32100  1.0000
  C   C1608     1.0  0.48660  0.38786  0.67900  1.0000
  C   C1609     1.0  0.07100  0.36214  0.26340  1.0000
  C   C1610     1.0  0.42900  0.63786  0.76340  1.0000
  C   C1611     1.0  0.92900  0.86214  0.23660  1.0000
  C   C1612     1.0  0.57100  0.13786  0.73660  1.0000
  C   C1613     1.0  0.26340  0.07100  0.36214  1.0000
  C   C1614     1.0  0.76340  0.42900  0.63786  1.0000
  C   C1615     1.0  0.23660  0.92900  0.86214  1.0000
  C   C1616     1.0  0.73660  0.57100  0.13786  1.0000
  C   C1617     1.0  0.36214  0.26340  0.07100  1.0000
  C   C1618     1.0  0.63786  0.76340  0.42900  1.0000
  C   C1619     1.0  0.86214  0.23660  0.92900  1.0000
  C   C1620     1.0  0.13786  0.73660  0.57100  1.0000
  C   C1621     1.0  0.61214  0.82100  0.48660  1.0000
  C   C1622     1.0  0.88786  0.17900  0.98660  1.0000
  C   C1623     1.0  0.11214  0.67900  0.51340  1.0000
  C   C1624     1.0  0.38786  0.32100  0.01340  1.0000
  C   C1625     1.0  0.32100  0.01340  0.38786  1.0000
  C   C1626     1.0  0.67900  0.51340  0.11214  1.0000
  C   C1627     1.0  0.17900  0.98660  0.88786  1.0000
  C   C1628     1.0  0.82100  0.48660  0.61214  1.0000
  C   C1629     1.0  0.51340  0.11214  0.67900  1.0000
  C   C1630     1.0  0.01340  0.38786  0.32100  1.0000
  C   C1631     1.0  0.48660  0.61214  0.82100  1.0000
  C   C1632     1.0  0.98660  0.88786  0.17900  1.0000
  C   C1633     1.0  0.42960  0.13690  0.25600  1.0000
  C   C1634     1.0  0.07040  0.86310  0.75600  1.0000
  C   C1635     1.0  0.57040  0.63690  0.24400  1.0000
  C   C1636     1.0  0.92960  0.36310  0.74400  1.0000
  C   C1637     1.0  0.25600  0.42960  0.13690  1.0000
  C   C1638     1.0  0.75600  0.07040  0.86310  1.0000
  C   C1639     1.0  0.24400  0.57040  0.63690  1.0000
  C   C1640     1.0  0.74400  0.92960  0.36310  1.0000
  C   C1641     1.0  0.13690  0.25600  0.42960  1.0000
  C   C1642     1.0  0.86310  0.75600  0.07040  1.0000
  C   C1643     1.0  0.63690  0.24400  0.57040  1.0000
  C   C1644     1.0  0.36310  0.74400  0.92960  1.0000
  C   C1645     1.0  0.88690  0.67960  0.99400  1.0000
  C   C1646     1.0  0.61310  0.32040  0.49400  1.0000
  C   C1647     1.0  0.38690  0.82040  0.00600  1.0000
  C   C1648     1.0  0.11310  0.17960  0.50600  1.0000
  C   C1649     1.0  0.17960  0.50600  0.11310  1.0000
  C   C1650     1.0  0.82040  0.00600  0.38690  1.0000
  C   C1651     1.0  0.32040  0.49400  0.61310  1.0000
  C   C1652     1.0  0.67960  0.99400  0.88690  1.0000
  C   C1653     1.0  0.00600  0.38690  0.82040  1.0000
  C   C1654     1.0  0.50600  0.11310  0.17960  1.0000
  C   C1655     1.0  0.99400  0.88690  0.67960  1.0000
  C   C1656     1.0  0.49400  0.61310  0.32040  1.0000
  C   C1657     1.0  0.92960  0.63690  0.75600  1.0000
  C   C1658     1.0  0.57040  0.36310  0.25600  1.0000
  C   C1659     1.0  0.07040  0.13690  0.74400  1.0000
  C   C1660     1.0  0.42960  0.86310  0.24400  1.0000
  C   C1661     1.0  0.75600  0.92960  0.63690  1.0000
  C   C1662     1.0  0.25600  0.57040  0.36310  1.0000
  C   C1663     1.0  0.74400  0.07040  0.13690  1.0000
  C   C1664     1.0  0.24400  0.42960  0.86310  1.0000
  C   C1665     1.0  0.63690  0.75600  0.92960  1.0000
  C   C1666     1.0  0.36310  0.25600  0.57040  1.0000
  C   C1667     1.0  0.13690  0.74400  0.07040  1.0000
  C   C1668     1.0  0.86310  0.24400  0.42960  1.0000
  C   C1669     1.0  0.38690  0.17960  0.49400  1.0000
  C   C1670     1.0  0.11310  0.82040  0.99400  1.0000
  C   C1671     1.0  0.88690  0.32040  0.50600  1.0000
  C   C1672     1.0  0.61310  0.67960  0.00600  1.0000
  C   C1673     1.0  0.67960  0.00600  0.61310  1.0000
  C   C1674     1.0  0.32040  0.50600  0.88690  1.0000
  C   C1675     1.0  0.82040  0.99400  0.11310  1.0000
  C   C1676     1.0  0.17960  0.49400  0.38690  1.0000
  C   C1677     1.0  0.50600  0.88690  0.32040  1.0000
  C   C1678     1.0  0.00600  0.61310  0.67960  1.0000
  C   C1679     1.0  0.49400  0.38690  0.17960  1.0000
  C   C1680     1.0  0.99400  0.11310  0.82040  1.0000
  C   C1681     1.0  0.57040  0.86310  0.74400  1.0000
  C   C1682     1.0  0.92960  0.13690  0.24400  1.0000
  C   C1683     1.0  0.42960  0.36310  0.75600  1.0000
  C   C1684     1.0  0.07040  0.63690  0.25600  1.0000
  C   C1685     1.0  0.74400  0.57040  0.86310  1.0000
  C   C1686     1.0  0.24400  0.92960  0.13690  1.0000
  C   C1687     1.0  0.75600  0.42960  0.36310  1.0000
  C   C1688     1.0  0.25600  0.07040  0.63690  1.0000
  C   C1689     1.0  0.86310  0.74400  0.57040  1.0000
  C   C1690     1.0  0.13690  0.24400  0.92960  1.0000
  C   C1691     1.0  0.36310  0.75600  0.42960  1.0000
  C   C1692     1.0  0.63690  0.25600  0.07040  1.0000
  C   C1693     1.0  0.11310  0.32040  0.00600  1.0000
  C   C1694     1.0  0.38690  0.67960  0.50600  1.0000
  C   C1695     1.0  0.61310  0.17960  0.99400  1.0000
  C   C1696     1.0  0.88690  0.82040  0.49400  1.0000
  C   C1697     1.0  0.82040  0.49400  0.88690  1.0000
  C   C1698     1.0  0.17960  0.99400  0.61310  1.0000
  C   C1699     1.0  0.67960  0.50600  0.38690  1.0000
  C   C1700     1.0  0.32040  0.00600  0.11310  1.0000
  C   C1701     1.0  0.99400  0.61310  0.17960  1.0000
  C   C1702     1.0  0.49400  0.88690  0.82040  1.0000
  C   C1703     1.0  0.00600  0.11310  0.32040  1.0000
  C   C1704     1.0  0.50600  0.38690  0.67960  1.0000
  C   C1705     1.0  0.07040  0.36310  0.24400  1.0000
  C   C1706     1.0  0.42960  0.63690  0.74400  1.0000
  C   C1707     1.0  0.92960  0.86310  0.25600  1.0000
  C   C1708     1.0  0.57040  0.13690  0.75600  1.0000
  C   C1709     1.0  0.24400  0.07040  0.36310  1.0000
  C   C1710     1.0  0.74400  0.42960  0.63690  1.0000
  C   C1711     1.0  0.25600  0.92960  0.86310  1.0000
  C   C1712     1.0  0.75600  0.57040  0.13690  1.0000
  C   C1713     1.0  0.36310  0.24400  0.07040  1.0000
  C   C1714     1.0  0.63690  0.74400  0.42960  1.0000
  C   C1715     1.0  0.86310  0.25600  0.92960  1.0000
  C   C1716     1.0  0.13690  0.75600  0.57040  1.0000
  C   C1717     1.0  0.61310  0.82040  0.50600  1.0000
  C   C1718     1.0  0.88690  0.17960  0.00600  1.0000
  C   C1719     1.0  0.11310  0.67960  0.49400  1.0000
  C   C1720     1.0  0.38690  0.32040  0.99400  1.0000
  C   C1721     1.0  0.32040  0.99400  0.38690  1.0000
  C   C1722     1.0  0.67960  0.49400  0.11310  1.0000
  C   C1723     1.0  0.17960  0.00600  0.88690  1.0000
  C   C1724     1.0  0.82040  0.50600  0.61310  1.0000
  C   C1725     1.0  0.49400  0.11310  0.67960  1.0000
  C   C1726     1.0  0.99400  0.38690  0.32040  1.0000
  C   C1727     1.0  0.50600  0.61310  0.82040  1.0000
  C   C1728     1.0  0.00600  0.88690  0.17960  1.0000
  H   H961      1.0  0.43710  0.14560  0.26300  1.0000
  H   H962      1.0  0.06290  0.85440  0.76300  1.0000
  H   H963      1.0  0.56290  0.64560  0.23700  1.0000
  H   H964      1.0  0.93710  0.35440  0.73700  1.0000
  H   H965      1.0  0.26300  0.43710  0.14560  1.0000
  H   H966      1.0  0.76300  0.06290  0.85440  1.0000
  H   H967      1.0  0.23700  0.56290  0.64560  1.0000
  H   H968      1.0  0.73700  0.93710  0.35440  1.0000
  H   H969      1.0  0.14560  0.26300  0.43710  1.0000
  H   H970      1.0  0.85440  0.76300  0.06290  1.0000
  H   H971      1.0  0.64560  0.23700  0.56290  1.0000
  H   H972      1.0  0.35440  0.73700  0.93710  1.0000
  H   H973      1.0  0.89560  0.68710  0.98700  1.0000
  H   H974      1.0  0.60440  0.31290  0.48700  1.0000
  H   H975      1.0  0.39560  0.81290  0.01300  1.0000
  H   H976      1.0  0.10440  0.18710  0.51300  1.0000
  H   H977      1.0  0.18710  0.51300  0.10440  1.0000
  H   H978      1.0  0.81290  0.01300  0.39560  1.0000
  H   H979      1.0  0.31290  0.48700  0.60440  1.0000
  H   H980      1.0  0.68710  0.98700  0.89560  1.0000
  H   H981      1.0  0.01300  0.39560  0.81290  1.0000
  H   H982      1.0  0.51300  0.10440  0.18710  1.0000
  H   H983      1.0  0.98700  0.89560  0.68710  1.0000
  H   H984      1.0  0.48700  0.60440  0.31290  1.0000
  H   H985      1.0  0.93710  0.64560  0.76300  1.0000
  H   H986      1.0  0.56290  0.35440  0.26300  1.0000
  H   H987      1.0  0.06290  0.14560  0.73700  1.0000
  H   H988      1.0  0.43710  0.85440  0.23700  1.0000
  H   H989      1.0  0.76300  0.93710  0.64560  1.0000
  H   H990      1.0  0.26300  0.56290  0.35440  1.0000
  H   H991      1.0  0.73700  0.06290  0.14560  1.0000
  H   H992      1.0  0.23700  0.43710  0.85440  1.0000
  H   H993      1.0  0.64560  0.76300  0.93710  1.0000
  H   H994      1.0  0.35440  0.26300  0.56290  1.0000
  H   H995      1.0  0.14560  0.73700  0.06290  1.0000
  H   H996      1.0  0.85440  0.23700  0.43710  1.0000
  H   H997      1.0  0.39560  0.18710  0.48700  1.0000
  H   H998      1.0  0.10440  0.81290  0.98700  1.0000
  H   H999      1.0  0.89560  0.31290  0.51300  1.0000
  H   H1000     1.0  0.60440  0.68710  0.01300  1.0000
  H   H1001     1.0  0.68710  0.01300  0.60440  1.0000
  H   H1002     1.0  0.31290  0.51300  0.89560  1.0000
  H   H1003     1.0  0.81290  0.98700  0.10440  1.0000
  H   H1004     1.0  0.18710  0.48700  0.39560  1.0000
  H   H1005     1.0  0.51300  0.89560  0.31290  1.0000
  H   H1006     1.0  0.01300  0.60440  0.68710  1.0000
  H   H1007     1.0  0.48700  0.39560  0.18710  1.0000
  H   H1008     1.0  0.98700  0.10440  0.81290  1.0000
  H   H1009     1.0  0.56290  0.85440  0.73700  1.0000
  H   H1010     1.0  0.93710  0.14560  0.23700  1.0000
  H   H1011     1.0  0.43710  0.35440  0.76300  1.0000
  H   H1012     1.0  0.06290  0.64560  0.26300  1.0000
  H   H1013     1.0  0.73700  0.56290  0.85440  1.0000
  H   H1014     1.0  0.23700  0.93710  0.14560  1.0000
  H   H1015     1.0  0.76300  0.43710  0.35440  1.0000
  H   H1016     1.0  0.26300  0.06290  0.64560  1.0000
  H   H1017     1.0  0.85440  0.73700  0.56290  1.0000
  H   H1018     1.0  0.14560  0.23700  0.93710  1.0000
  H   H1019     1.0  0.35440  0.76300  0.43710  1.0000
  H   H1020     1.0  0.64560  0.26300  0.06290  1.0000
  H   H1021     1.0  0.10440  0.31290  0.01300  1.0000
  H   H1022     1.0  0.39560  0.68710  0.51300  1.0000
  H   H1023     1.0  0.60440  0.18710  0.98700  1.0000
  H   H1024     1.0  0.89560  0.81290  0.48700  1.0000
  H   H1025     1.0  0.81290  0.48700  0.89560  1.0000
  H   H1026     1.0  0.18710  0.98700  0.60440  1.0000
  H   H1027     1.0  0.68710  0.51300  0.39560  1.0000
  H   H1028     1.0  0.31290  0.01300  0.10440  1.0000
  H   H1029     1.0  0.98700  0.60440  0.18710  1.0000
  H   H1030     1.0  0.48700  0.89560  0.81290  1.0000
  H   H1031     1.0  0.01300  0.10440  0.31290  1.0000
  H   H1032     1.0  0.51300  0.39560  0.68710  1.0000
  H   H1033     1.0  0.06290  0.35440  0.23700  1.0000
  H   H1034     1.0  0.43710  0.64560  0.73700  1.0000
  H   H1035     1.0  0.93710  0.85440  0.26300  1.0000
  H   H1036     1.0  0.56290  0.14560  0.76300  1.0000
  H   H1037     1.0  0.23700  0.06290  0.35440  1.0000
  H   H1038     1.0  0.73700  0.43710  0.64560  1.0000
  H   H1039     1.0  0.26300  0.93710  0.85440  1.0000
  H   H1040     1.0  0.76300  0.56290  0.14560  1.0000
  H   H1041     1.0  0.35440  0.23700  0.06290  1.0000
  H   H1042     1.0  0.64560  0.73700  0.43710  1.0000
  H   H1043     1.0  0.85440  0.26300  0.93710  1.0000
  H   H1044     1.0  0.14560  0.76300  0.56290  1.0000
  H   H1045     1.0  0.60440  0.81290  0.51300  1.0000
  H   H1046     1.0  0.89560  0.18710  0.01300  1.0000
  H   H1047     1.0  0.10440  0.68710  0.48700  1.0000
  H   H1048     1.0  0.39560  0.31290  0.98700  1.0000
  H   H1049     1.0  0.31290  0.98700  0.39560  1.0000
  H   H1050     1.0  0.68710  0.48700  0.10440  1.0000
  H   H1051     1.0  0.18710  0.01300  0.89560  1.0000
  H   H1052     1.0  0.81290  0.51300  0.60440  1.0000
  H   H1053     1.0  0.48700  0.10440  0.68710  1.0000
  H   H1054     1.0  0.98700  0.39560  0.31290  1.0000
  H   H1055     1.0  0.51300  0.60440  0.81290  1.0000
  H   H1056     1.0  0.01300  0.89560  0.18710  1.0000
  C   C1729     1.0  0.41910  0.12280  0.26560  1.0000
  C   C1730     1.0  0.08090  0.87720  0.76560  1.0000
  C   C1731     1.0  0.58090  0.62280  0.23440  1.0000
  C   C1732     1.0  0.91910  0.37720  0.73440  1.0000
  C   C1733     1.0  0.26560  0.41910  0.12280  1.0000
  C   C1734     1.0  0.76560  0.08090  0.87720  1.0000
  C   C1735     1.0  0.23440  0.58090  0.62280  1.0000
  C   C1736     1.0  0.73440  0.91910  0.37720  1.0000
  C   C1737     1.0  0.12280  0.26560  0.41910  1.0000
  C   C1738     1.0  0.87720  0.76560  0.08090  1.0000
  C   C1739     1.0  0.62280  0.23440  0.58090  1.0000
  C   C1740     1.0  0.37720  0.73440  0.91910  1.0000
  C   C1741     1.0  0.87280  0.66910  0.98440  1.0000
  C   C1742     1.0  0.62720  0.33090  0.48440  1.0000
  C   C1743     1.0  0.37280  0.83090  0.01560  1.0000
  C   C1744     1.0  0.12720  0.16910  0.51560  1.0000
  C   C1745     1.0  0.16910  0.51560  0.12720  1.0000
  C   C1746     1.0  0.83090  0.01560  0.37280  1.0000
  C   C1747     1.0  0.33090  0.48440  0.62720  1.0000
  C   C1748     1.0  0.66910  0.98440  0.87280  1.0000
  C   C1749     1.0  0.01560  0.37280  0.83090  1.0000
  C   C1750     1.0  0.51560  0.12720  0.16910  1.0000
  C   C1751     1.0  0.98440  0.87280  0.66910  1.0000
  C   C1752     1.0  0.48440  0.62720  0.33090  1.0000
  C   C1753     1.0  0.91910  0.62280  0.76560  1.0000
  C   C1754     1.0  0.58090  0.37720  0.26560  1.0000
  C   C1755     1.0  0.08090  0.12280  0.73440  1.0000
  C   C1756     1.0  0.41910  0.87720  0.23440  1.0000
  C   C1757     1.0  0.76560  0.91910  0.62280  1.0000
  C   C1758     1.0  0.26560  0.58090  0.37720  1.0000
  C   C1759     1.0  0.73440  0.08090  0.12280  1.0000
  C   C1760     1.0  0.23440  0.41910  0.87720  1.0000
  C   C1761     1.0  0.62280  0.76560  0.91910  1.0000
  C   C1762     1.0  0.37720  0.26560  0.58090  1.0000
  C   C1763     1.0  0.12280  0.73440  0.08090  1.0000
  C   C1764     1.0  0.87720  0.23440  0.41910  1.0000
  C   C1765     1.0  0.37280  0.16910  0.48440  1.0000
  C   C1766     1.0  0.12720  0.83090  0.98440  1.0000
  C   C1767     1.0  0.87280  0.33090  0.51560  1.0000
  C   C1768     1.0  0.62720  0.66910  0.01560  1.0000
  C   C1769     1.0  0.66910  0.01560  0.62720  1.0000
  C   C1770     1.0  0.33090  0.51560  0.87280  1.0000
  C   C1771     1.0  0.83090  0.98440  0.12720  1.0000
  C   C1772     1.0  0.16910  0.48440  0.37280  1.0000
  C   C1773     1.0  0.51560  0.87280  0.33090  1.0000
  C   C1774     1.0  0.01560  0.62720  0.66910  1.0000
  C   C1775     1.0  0.48440  0.37280  0.16910  1.0000
  C   C1776     1.0  0.98440  0.12720  0.83090  1.0000
  C   C1777     1.0  0.58090  0.87720  0.73440  1.0000
  C   C1778     1.0  0.91910  0.12280  0.23440  1.0000
  C   C1779     1.0  0.41910  0.37720  0.76560  1.0000
  C   C1780     1.0  0.08090  0.62280  0.26560  1.0000
  C   C1781     1.0  0.73440  0.58090  0.87720  1.0000
  C   C1782     1.0  0.23440  0.91910  0.12280  1.0000
  C   C1783     1.0  0.76560  0.41910  0.37720  1.0000
  C   C1784     1.0  0.26560  0.08090  0.62280  1.0000
  C   C1785     1.0  0.87720  0.73440  0.58090  1.0000
  C   C1786     1.0  0.12280  0.23440  0.91910  1.0000
  C   C1787     1.0  0.37720  0.76560  0.41910  1.0000
  C   C1788     1.0  0.62280  0.26560  0.08090  1.0000
  C   C1789     1.0  0.12720  0.33090  0.01560  1.0000
  C   C1790     1.0  0.37280  0.66910  0.51560  1.0000
  C   C1791     1.0  0.62720  0.16910  0.98440  1.0000
  C   C1792     1.0  0.87280  0.83090  0.48440  1.0000
  C   C1793     1.0  0.83090  0.48440  0.87280  1.0000
  C   C1794     1.0  0.16910  0.98440  0.62720  1.0000
  C   C1795     1.0  0.66910  0.51560  0.37280  1.0000
  C   C1796     1.0  0.33090  0.01560  0.12720  1.0000
  C   C1797     1.0  0.98440  0.62720  0.16910  1.0000
  C   C1798     1.0  0.48440  0.87280  0.83090  1.0000
  C   C1799     1.0  0.01560  0.12720  0.33090  1.0000
  C   C1800     1.0  0.51560  0.37280  0.66910  1.0000
  C   C1801     1.0  0.08090  0.37720  0.23440  1.0000
  C   C1802     1.0  0.41910  0.62280  0.73440  1.0000
  C   C1803     1.0  0.91910  0.87720  0.26560  1.0000
  C   C1804     1.0  0.58090  0.12280  0.76560  1.0000
  C   C1805     1.0  0.23440  0.08090  0.37720  1.0000
  C   C1806     1.0  0.73440  0.41910  0.62280  1.0000
  C   C1807     1.0  0.26560  0.91910  0.87720  1.0000
  C   C1808     1.0  0.76560  0.58090  0.12280  1.0000
  C   C1809     1.0  0.37720  0.23440  0.08090  1.0000
  C   C1810     1.0  0.62280  0.73440  0.41910  1.0000
  C   C1811     1.0  0.87720  0.26560  0.91910  1.0000
  C   C1812     1.0  0.12280  0.76560  0.58090  1.0000
  C   C1813     1.0  0.62720  0.83090  0.51560  1.0000
  C   C1814     1.0  0.87280  0.16910  0.01560  1.0000
  C   C1815     1.0  0.12720  0.66910  0.48440  1.0000
  C   C1816     1.0  0.37280  0.33090  0.98440  1.0000
  C   C1817     1.0  0.33090  0.98440  0.37280  1.0000
  C   C1818     1.0  0.66910  0.48440  0.12720  1.0000
  C   C1819     1.0  0.16910  0.01560  0.87280  1.0000
  C   C1820     1.0  0.83090  0.51560  0.62720  1.0000
  C   C1821     1.0  0.48440  0.12720  0.66910  1.0000
  C   C1822     1.0  0.98440  0.37280  0.33090  1.0000
  C   C1823     1.0  0.51560  0.62720  0.83090  1.0000
  C   C1824     1.0  0.01560  0.87280  0.16910  1.0000
  H   H1057     1.0  0.41850  0.12330  0.27910  1.0000
  H   H1058     1.0  0.08150  0.87670  0.77910  1.0000
  H   H1059     1.0  0.58150  0.62330  0.22090  1.0000
  H   H1060     1.0  0.91850  0.37670  0.72090  1.0000
  H   H1061     1.0  0.27910  0.41850  0.12330  1.0000
  H   H1062     1.0  0.77910  0.08150  0.87670  1.0000
  H   H1063     1.0  0.22090  0.58150  0.62330  1.0000
  H   H1064     1.0  0.72090  0.91850  0.37670  1.0000
  H   H1065     1.0  0.12330  0.27910  0.41850  1.0000
  H   H1066     1.0  0.87670  0.77910  0.08150  1.0000
  H   H1067     1.0  0.62330  0.22090  0.58150  1.0000
  H   H1068     1.0  0.37670  0.72090  0.91850  1.0000
  H   H1069     1.0  0.87330  0.66850  0.97090  1.0000
  H   H1070     1.0  0.62670  0.33150  0.47090  1.0000
  H   H1071     1.0  0.37330  0.83150  0.02910  1.0000
  H   H1072     1.0  0.12670  0.16850  0.52910  1.0000
  H   H1073     1.0  0.16850  0.52910  0.12670  1.0000
  H   H1074     1.0  0.83150  0.02910  0.37330  1.0000
  H   H1075     1.0  0.33150  0.47090  0.62670  1.0000
  H   H1076     1.0  0.66850  0.97090  0.87330  1.0000
  H   H1077     1.0  0.02910  0.37330  0.83150  1.0000
  H   H1078     1.0  0.52910  0.12670  0.16850  1.0000
  H   H1079     1.0  0.97090  0.87330  0.66850  1.0000
  H   H1080     1.0  0.47090  0.62670  0.33150  1.0000
  H   H1081     1.0  0.91850  0.62330  0.77910  1.0000
  H   H1082     1.0  0.58150  0.37670  0.27910  1.0000
  H   H1083     1.0  0.08150  0.12330  0.72090  1.0000
  H   H1084     1.0  0.41850  0.87670  0.22090  1.0000
  H   H1085     1.0  0.77910  0.91850  0.62330  1.0000
  H   H1086     1.0  0.27910  0.58150  0.37670  1.0000
  H   H1087     1.0  0.72090  0.08150  0.12330  1.0000
  H   H1088     1.0  0.22090  0.41850  0.87670  1.0000
  H   H1089     1.0  0.62330  0.77910  0.91850  1.0000
  H   H1090     1.0  0.37670  0.27910  0.58150  1.0000
  H   H1091     1.0  0.12330  0.72090  0.08150  1.0000
  H   H1092     1.0  0.87670  0.22090  0.41850  1.0000
  H   H1093     1.0  0.37330  0.16850  0.47090  1.0000
  H   H1094     1.0  0.12670  0.83150  0.97090  1.0000
  H   H1095     1.0  0.87330  0.33150  0.52910  1.0000
  H   H1096     1.0  0.62670  0.66850  0.02910  1.0000
  H   H1097     1.0  0.66850  0.02910  0.62670  1.0000
  H   H1098     1.0  0.33150  0.52910  0.87330  1.0000
  H   H1099     1.0  0.83150  0.97090  0.12670  1.0000
  H   H1100     1.0  0.16850  0.47090  0.37330  1.0000
  H   H1101     1.0  0.52910  0.87330  0.33150  1.0000
  H   H1102     1.0  0.02910  0.62670  0.66850  1.0000
  H   H1103     1.0  0.47090  0.37330  0.16850  1.0000
  H   H1104     1.0  0.97090  0.12670  0.83150  1.0000
  H   H1105     1.0  0.58150  0.87670  0.72090  1.0000
  H   H1106     1.0  0.91850  0.12330  0.22090  1.0000
  H   H1107     1.0  0.41850  0.37670  0.77910  1.0000
  H   H1108     1.0  0.08150  0.62330  0.27910  1.0000
  H   H1109     1.0  0.72090  0.58150  0.87670  1.0000
  H   H1110     1.0  0.22090  0.91850  0.12330  1.0000
  H   H1111     1.0  0.77910  0.41850  0.37670  1.0000
  H   H1112     1.0  0.27910  0.08150  0.62330  1.0000
  H   H1113     1.0  0.87670  0.72090  0.58150  1.0000
  H   H1114     1.0  0.12330  0.22090  0.91850  1.0000
  H   H1115     1.0  0.37670  0.77910  0.41850  1.0000
  H   H1116     1.0  0.62330  0.27910  0.08150  1.0000
  H   H1117     1.0  0.12670  0.33150  0.02910  1.0000
  H   H1118     1.0  0.37330  0.66850  0.52910  1.0000
  H   H1119     1.0  0.62670  0.16850  0.97090  1.0000
  H   H1120     1.0  0.87330  0.83150  0.47090  1.0000
  H   H1121     1.0  0.83150  0.47090  0.87330  1.0000
  H   H1122     1.0  0.16850  0.97090  0.62670  1.0000
  H   H1123     1.0  0.66850  0.52910  0.37330  1.0000
  H   H1124     1.0  0.33150  0.02910  0.12670  1.0000
  H   H1125     1.0  0.97090  0.62670  0.16850  1.0000
  H   H1126     1.0  0.47090  0.87330  0.83150  1.0000
  H   H1127     1.0  0.02910  0.12670  0.33150  1.0000
  H   H1128     1.0  0.52910  0.37330  0.66850  1.0000
  H   H1129     1.0  0.08150  0.37670  0.22090  1.0000
  H   H1130     1.0  0.41850  0.62330  0.72090  1.0000
  H   H1131     1.0  0.91850  0.87670  0.27910  1.0000
  H   H1132     1.0  0.58150  0.12330  0.77910  1.0000
  H   H1133     1.0  0.22090  0.08150  0.37670  1.0000
  H   H1134     1.0  0.72090  0.41850  0.62330  1.0000
  H   H1135     1.0  0.27910  0.91850  0.87670  1.0000
  H   H1136     1.0  0.77910  0.58150  0.12330  1.0000
  H   H1137     1.0  0.37670  0.22090  0.08150  1.0000
  H   H1138     1.0  0.62330  0.72090  0.41850  1.0000
  H   H1139     1.0  0.87670  0.27910  0.91850  1.0000
  H   H1140     1.0  0.12330  0.77910  0.58150  1.0000
  H   H1141     1.0  0.62670  0.83150  0.52910  1.0000
  H   H1142     1.0  0.87330  0.16850  0.02910  1.0000
  H   H1143     1.0  0.12670  0.66850  0.47090  1.0000
  H   H1144     1.0  0.37330  0.33150  0.97090  1.0000
  H   H1145     1.0  0.33150  0.97090  0.37330  1.0000
  H   H1146     1.0  0.66850  0.47090  0.12670  1.0000
  H   H1147     1.0  0.16850  0.02910  0.87330  1.0000
  H   H1148     1.0  0.83150  0.52910  0.62670  1.0000
  H   H1149     1.0  0.47090  0.12670  0.66850  1.0000
  H   H1150     1.0  0.97090  0.37330  0.33150  1.0000
  H   H1151     1.0  0.52910  0.62670  0.83150  1.0000
  H   H1152     1.0  0.02910  0.87330  0.16850  1.0000
  C   C1825     1.0  0.42520  0.19520  0.14570  1.0000
  C   C1826     1.0  0.07480  0.80480  0.64570  1.0000
  C   C1827     1.0  0.57480  0.69520  0.35430  1.0000
  C   C1828     1.0  0.92520  0.30480  0.85430  1.0000
  C   C1829     1.0  0.14570  0.42520  0.19520  1.0000
  C   C1830     1.0  0.64570  0.07480  0.80480  1.0000
  C   C1831     1.0  0.35430  0.57480  0.69520  1.0000
  C   C1832     1.0  0.85430  0.92520  0.30480  1.0000
  C   C1833     1.0  0.19520  0.14570  0.42520  1.0000
  C   C1834     1.0  0.80480  0.64570  0.07480  1.0000
  C   C1835     1.0  0.69520  0.35430  0.57480  1.0000
  C   C1836     1.0  0.30480  0.85430  0.92520  1.0000
  C   C1837     1.0  0.94520  0.67520  0.10430  1.0000
  C   C1838     1.0  0.55480  0.32480  0.60430  1.0000
  C   C1839     1.0  0.44520  0.82480  0.89570  1.0000
  C   C1840     1.0  0.05480  0.17520  0.39570  1.0000
  C   C1841     1.0  0.17520  0.39570  0.05480  1.0000
  C   C1842     1.0  0.82480  0.89570  0.44520  1.0000
  C   C1843     1.0  0.32480  0.60430  0.55480  1.0000
  C   C1844     1.0  0.67520  0.10430  0.94520  1.0000
  C   C1845     1.0  0.89570  0.44520  0.82480  1.0000
  C   C1846     1.0  0.39570  0.05480  0.17520  1.0000
  C   C1847     1.0  0.10430  0.94520  0.67520  1.0000
  C   C1848     1.0  0.60430  0.55480  0.32480  1.0000
  C   C1849     1.0  0.92520  0.69520  0.64570  1.0000
  C   C1850     1.0  0.57480  0.30480  0.14570  1.0000
  C   C1851     1.0  0.07480  0.19520  0.85430  1.0000
  C   C1852     1.0  0.42520  0.80480  0.35430  1.0000
  C   C1853     1.0  0.64570  0.92520  0.69520  1.0000
  C   C1854     1.0  0.14570  0.57480  0.30480  1.0000
  C   C1855     1.0  0.85430  0.07480  0.19520  1.0000
  C   C1856     1.0  0.35430  0.42520  0.80480  1.0000
  C   C1857     1.0  0.69520  0.64570  0.92520  1.0000
  C   C1858     1.0  0.30480  0.14570  0.57480  1.0000
  C   C1859     1.0  0.19520  0.85430  0.07480  1.0000
  C   C1860     1.0  0.80480  0.35430  0.42520  1.0000
  C   C1861     1.0  0.44520  0.17520  0.60430  1.0000
  C   C1862     1.0  0.05480  0.82480  0.10430  1.0000
  C   C1863     1.0  0.94520  0.32480  0.39570  1.0000
  C   C1864     1.0  0.55480  0.67520  0.89570  1.0000
  C   C1865     1.0  0.67520  0.89570  0.55480  1.0000
  C   C1866     1.0  0.32480  0.39570  0.94520  1.0000
  C   C1867     1.0  0.82480  0.10430  0.05480  1.0000
  C   C1868     1.0  0.17520  0.60430  0.44520  1.0000
  C   C1869     1.0  0.39570  0.94520  0.32480  1.0000
  C   C1870     1.0  0.89570  0.55480  0.67520  1.0000
  C   C1871     1.0  0.60430  0.44520  0.17520  1.0000
  C   C1872     1.0  0.10430  0.05480  0.82480  1.0000
  C   C1873     1.0  0.57480  0.80480  0.85430  1.0000
  C   C1874     1.0  0.92520  0.19520  0.35430  1.0000
  C   C1875     1.0  0.42520  0.30480  0.64570  1.0000
  C   C1876     1.0  0.07480  0.69520  0.14570  1.0000
  C   C1877     1.0  0.85430  0.57480  0.80480  1.0000
  C   C1878     1.0  0.35430  0.92520  0.19520  1.0000
  C   C1879     1.0  0.64570  0.42520  0.30480  1.0000
  C   C1880     1.0  0.14570  0.07480  0.69520  1.0000
  C   C1881     1.0  0.80480  0.85430  0.57480  1.0000
  C   C1882     1.0  0.19520  0.35430  0.92520  1.0000
  C   C1883     1.0  0.30480  0.64570  0.42520  1.0000
  C   C1884     1.0  0.69520  0.14570  0.07480  1.0000
  C   C1885     1.0  0.05480  0.32480  0.89570  1.0000
  C   C1886     1.0  0.44520  0.67520  0.39570  1.0000
  C   C1887     1.0  0.55480  0.17520  0.10430  1.0000
  C   C1888     1.0  0.94520  0.82480  0.60430  1.0000
  C   C1889     1.0  0.82480  0.60430  0.94520  1.0000
  C   C1890     1.0  0.17520  0.10430  0.55480  1.0000
  C   C1891     1.0  0.67520  0.39570  0.44520  1.0000
  C   C1892     1.0  0.32480  0.89570  0.05480  1.0000
  C   C1893     1.0  0.10430  0.55480  0.17520  1.0000
  C   C1894     1.0  0.60430  0.94520  0.82480  1.0000
  C   C1895     1.0  0.89570  0.05480  0.32480  1.0000
  C   C1896     1.0  0.39570  0.44520  0.67520  1.0000
  C   C1897     1.0  0.07480  0.30480  0.35430  1.0000
  C   C1898     1.0  0.42520  0.69520  0.85430  1.0000
  C   C1899     1.0  0.92520  0.80480  0.14570  1.0000
  C   C1900     1.0  0.57480  0.19520  0.64570  1.0000
  C   C1901     1.0  0.35430  0.07480  0.30480  1.0000
  C   C1902     1.0  0.85430  0.42520  0.69520  1.0000
  C   C1903     1.0  0.14570  0.92520  0.80480  1.0000
  C   C1904     1.0  0.64570  0.57480  0.19520  1.0000
  C   C1905     1.0  0.30480  0.35430  0.07480  1.0000
  C   C1906     1.0  0.69520  0.85430  0.42520  1.0000
  C   C1907     1.0  0.80480  0.14570  0.92520  1.0000
  C   C1908     1.0  0.19520  0.64570  0.57480  1.0000
  C   C1909     1.0  0.55480  0.82480  0.39570  1.0000
  C   C1910     1.0  0.94520  0.17520  0.89570  1.0000
  C   C1911     1.0  0.05480  0.67520  0.60430  1.0000
  C   C1912     1.0  0.44520  0.32480  0.10430  1.0000
  C   C1913     1.0  0.32480  0.10430  0.44520  1.0000
  C   C1914     1.0  0.67520  0.60430  0.05480  1.0000
  C   C1915     1.0  0.17520  0.89570  0.94520  1.0000
  C   C1916     1.0  0.82480  0.39570  0.55480  1.0000
  C   C1917     1.0  0.60430  0.05480  0.67520  1.0000
  C   C1918     1.0  0.10430  0.44520  0.32480  1.0000
  C   C1919     1.0  0.39570  0.55480  0.82480  1.0000
  C   C1920     1.0  0.89570  0.94520  0.17520  1.0000
  O   O433      1.0  0.43832  0.19874  0.13372  1.0000
  O   O434      1.0  0.06168  0.80126  0.63372  1.0000
  O   O435      1.0  0.56168  0.69874  0.36628  1.0000
  O   O436      1.0  0.93832  0.30126  0.86628  1.0000
  O   O437      1.0  0.13372  0.43832  0.19874  1.0000
  O   O438      1.0  0.63372  0.06168  0.80126  1.0000
  O   O439      1.0  0.36628  0.56168  0.69874  1.0000
  O   O440      1.0  0.86628  0.93832  0.30126  1.0000
  O   O441      1.0  0.19874  0.13372  0.43832  1.0000
  O   O442      1.0  0.80126  0.63372  0.06168  1.0000
  O   O443      1.0  0.69874  0.36628  0.56168  1.0000
  O   O444      1.0  0.30126  0.86628  0.93832  1.0000
  O   O445      1.0  0.94874  0.68832  0.11628  1.0000
  O   O446      1.0  0.55126  0.31168  0.61628  1.0000
  O   O447      1.0  0.44874  0.81168  0.88372  1.0000
  O   O448      1.0  0.05126  0.18832  0.38372  1.0000
  O   O449      1.0  0.18832  0.38372  0.05126  1.0000
  O   O450      1.0  0.81168  0.88372  0.44874  1.0000
  O   O451      1.0  0.31168  0.61628  0.55126  1.0000
  O   O452      1.0  0.68832  0.11628  0.94874  1.0000
  O   O453      1.0  0.88372  0.44874  0.81168  1.0000
  O   O454      1.0  0.38372  0.05126  0.18832  1.0000
  O   O455      1.0  0.11628  0.94874  0.68832  1.0000
  O   O456      1.0  0.61628  0.55126  0.31168  1.0000
  O   O457      1.0  0.93832  0.69874  0.63372  1.0000
  O   O458      1.0  0.56168  0.30126  0.13372  1.0000
  O   O459      1.0  0.06168  0.19874  0.86628  1.0000
  O   O460      1.0  0.43832  0.80126  0.36628  1.0000
  O   O461      1.0  0.63372  0.93832  0.69874  1.0000
  O   O462      1.0  0.13372  0.56168  0.30126  1.0000
  O   O463      1.0  0.86628  0.06168  0.19874  1.0000
  O   O464      1.0  0.36628  0.43832  0.80126  1.0000
  O   O465      1.0  0.69874  0.63372  0.93832  1.0000
  O   O466      1.0  0.30126  0.13372  0.56168  1.0000
  O   O467      1.0  0.19874  0.86628  0.06168  1.0000
  O   O468      1.0  0.80126  0.36628  0.43832  1.0000
  O   O469      1.0  0.44874  0.18832  0.61628  1.0000
  O   O470      1.0  0.05126  0.81168  0.11628  1.0000
  O   O471      1.0  0.94874  0.31168  0.38372  1.0000
  O   O472      1.0  0.55126  0.68832  0.88372  1.0000
  O   O473      1.0  0.68832  0.88372  0.55126  1.0000
  O   O474      1.0  0.31168  0.38372  0.94874  1.0000
  O   O475      1.0  0.81168  0.11628  0.05126  1.0000
  O   O476      1.0  0.18832  0.61628  0.44874  1.0000
  O   O477      1.0  0.38372  0.94874  0.31168  1.0000
  O   O478      1.0  0.88372  0.55126  0.68832  1.0000
  O   O479      1.0  0.61628  0.44874  0.18832  1.0000
  O   O480      1.0  0.11628  0.05126  0.81168  1.0000
  O   O481      1.0  0.56168  0.80126  0.86628  1.0000
  O   O482      1.0  0.93832  0.19874  0.36628  1.0000
  O   O483      1.0  0.43832  0.30126  0.63372  1.0000
  O   O484      1.0  0.06168  0.69874  0.13372  1.0000
  O   O485      1.0  0.86628  0.56168  0.80126  1.0000
  O   O486      1.0  0.36628  0.93832  0.19874  1.0000
  O   O487      1.0  0.63372  0.43832  0.30126  1.0000
  O   O488      1.0  0.13372  0.06168  0.69874  1.0000
  O   O489      1.0  0.80126  0.86628  0.56168  1.0000
  O   O490      1.0  0.19874  0.36628  0.93832  1.0000
  O   O491      1.0  0.30126  0.63372  0.43832  1.0000
  O   O492      1.0  0.69874  0.13372  0.06168  1.0000
  O   O493      1.0  0.05126  0.31168  0.88372  1.0000
  O   O494      1.0  0.44874  0.68832  0.38372  1.0000
  O   O495      1.0  0.55126  0.18832  0.11628  1.0000
  O   O496      1.0  0.94874  0.81168  0.61628  1.0000
  O   O497      1.0  0.81168  0.61628  0.94874  1.0000
  O   O498      1.0  0.18832  0.11628  0.55126  1.0000
  O   O499      1.0  0.68832  0.38372  0.44874  1.0000
  O   O500      1.0  0.31168  0.88372  0.05126  1.0000
  O   O501      1.0  0.11628  0.55126  0.18832  1.0000
  O   O502      1.0  0.61628  0.94874  0.81168  1.0000
  O   O503      1.0  0.88372  0.05126  0.31168  1.0000
  O   O504      1.0  0.38372  0.44874  0.68832  1.0000
  O   O505      1.0  0.06168  0.30126  0.36628  1.0000
  O   O506      1.0  0.43832  0.69874  0.86628  1.0000
  O   O507      1.0  0.93832  0.80126  0.13372  1.0000
  O   O508      1.0  0.56168  0.19874  0.63372  1.0000
  O   O509      1.0  0.36628  0.06168  0.30126  1.0000
  O   O510      1.0  0.86628  0.43832  0.69874  1.0000
  O   O511      1.0  0.13372  0.93832  0.80126  1.0000
  O   O512      1.0  0.63372  0.56168  0.19874  1.0000
  O   O513      1.0  0.30126  0.36628  0.06168  1.0000
  O   O514      1.0  0.69874  0.86628  0.43832  1.0000
  O   O515      1.0  0.80126  0.13372  0.93832  1.0000
  O   O516      1.0  0.19874  0.63372  0.56168  1.0000
  O   O517      1.0  0.55126  0.81168  0.38372  1.0000
  O   O518      1.0  0.94874  0.18832  0.88372  1.0000
  O   O519      1.0  0.05126  0.68832  0.61628  1.0000
  O   O520      1.0  0.44874  0.31168  0.11628  1.0000
  O   O521      1.0  0.31168  0.11628  0.44874  1.0000
  O   O522      1.0  0.68832  0.61628  0.05126  1.0000
  O   O523      1.0  0.18832  0.88372  0.94874  1.0000
  O   O524      1.0  0.81168  0.38372  0.55126  1.0000
  O   O525      1.0  0.61628  0.05126  0.68832  1.0000
  O   O526      1.0  0.11628  0.44874  0.31168  1.0000
  O   O527      1.0  0.38372  0.55126  0.81168  1.0000
  O   O528      1.0  0.88372  0.94874  0.18832  1.0000
  O   O529      1.0  0.41450  0.20772  0.15138  1.0000
  O   O530      1.0  0.08550  0.79228  0.65138  1.0000
  O   O531      1.0  0.58550  0.70772  0.34862  1.0000
  O   O532      1.0  0.91450  0.29228  0.84862  1.0000
  O   O533      1.0  0.15138  0.41450  0.20772  1.0000
  O   O534      1.0  0.65138  0.08550  0.79228  1.0000
  O   O535      1.0  0.34862  0.58550  0.70772  1.0000
  O   O536      1.0  0.84862  0.91450  0.29228  1.0000
  O   O537      1.0  0.20772  0.15138  0.41450  1.0000
  O   O538      1.0  0.79228  0.65138  0.08550  1.0000
  O   O539      1.0  0.70772  0.34862  0.58550  1.0000
  O   O540      1.0  0.29228  0.84862  0.91450  1.0000
  O   O541      1.0  0.95772  0.66450  0.09862  1.0000
  O   O542      1.0  0.54228  0.33550  0.59862  1.0000
  O   O543      1.0  0.45772  0.83550  0.90138  1.0000
  O   O544      1.0  0.04228  0.16450  0.40138  1.0000
  O   O545      1.0  0.16450  0.40138  0.04228  1.0000
  O   O546      1.0  0.83550  0.90138  0.45772  1.0000
  O   O547      1.0  0.33550  0.59862  0.54228  1.0000
  O   O548      1.0  0.66450  0.09862  0.95772  1.0000
  O   O549      1.0  0.90138  0.45772  0.83550  1.0000
  O   O550      1.0  0.40138  0.04228  0.16450  1.0000
  O   O551      1.0  0.09862  0.95772  0.66450  1.0000
  O   O552      1.0  0.59862  0.54228  0.33550  1.0000
  O   O553      1.0  0.91450  0.70772  0.65138  1.0000
  O   O554      1.0  0.58550  0.29228  0.15138  1.0000
  O   O555      1.0  0.08550  0.20772  0.84862  1.0000
  O   O556      1.0  0.41450  0.79228  0.34862  1.0000
  O   O557      1.0  0.65138  0.91450  0.70772  1.0000
  O   O558      1.0  0.15138  0.58550  0.29228  1.0000
  O   O559      1.0  0.84862  0.08550  0.20772  1.0000
  O   O560      1.0  0.34862  0.41450  0.79228  1.0000
  O   O561      1.0  0.70772  0.65138  0.91450  1.0000
  O   O562      1.0  0.29228  0.15138  0.58550  1.0000
  O   O563      1.0  0.20772  0.84862  0.08550  1.0000
  O   O564      1.0  0.79228  0.34862  0.41450  1.0000
  O   O565      1.0  0.45772  0.16450  0.59862  1.0000
  O   O566      1.0  0.04228  0.83550  0.09862  1.0000
  O   O567      1.0  0.95772  0.33550  0.40138  1.0000
  O   O568      1.0  0.54228  0.66450  0.90138  1.0000
  O   O569      1.0  0.66450  0.90138  0.54228  1.0000
  O   O570      1.0  0.33550  0.40138  0.95772  1.0000
  O   O571      1.0  0.83550  0.09862  0.04228  1.0000
  O   O572      1.0  0.16450  0.59862  0.45772  1.0000
  O   O573      1.0  0.40138  0.95772  0.33550  1.0000
  O   O574      1.0  0.90138  0.54228  0.66450  1.0000
  O   O575      1.0  0.59862  0.45772  0.16450  1.0000
  O   O576      1.0  0.09862  0.04228  0.83550  1.0000
  O   O577      1.0  0.58550  0.79228  0.84862  1.0000
  O   O578      1.0  0.91450  0.20772  0.34862  1.0000
  O   O579      1.0  0.41450  0.29228  0.65138  1.0000
  O   O580      1.0  0.08550  0.70772  0.15138  1.0000
  O   O581      1.0  0.84862  0.58550  0.79228  1.0000
  O   O582      1.0  0.34862  0.91450  0.20772  1.0000
  O   O583      1.0  0.65138  0.41450  0.29228  1.0000
  O   O584      1.0  0.15138  0.08550  0.70772  1.0000
  O   O585      1.0  0.79228  0.84862  0.58550  1.0000
  O   O586      1.0  0.20772  0.34862  0.91450  1.0000
  O   O587      1.0  0.29228  0.65138  0.41450  1.0000
  O   O588      1.0  0.70772  0.15138  0.08550  1.0000
  O   O589      1.0  0.04228  0.33550  0.90138  1.0000
  O   O590      1.0  0.45772  0.66450  0.40138  1.0000
  O   O591      1.0  0.54228  0.16450  0.09862  1.0000
  O   O592      1.0  0.95772  0.83550  0.59862  1.0000
  O   O593      1.0  0.83550  0.59862  0.95772  1.0000
  O   O594      1.0  0.16450  0.09862  0.54228  1.0000
  O   O595      1.0  0.66450  0.40138  0.45772  1.0000
  O   O596      1.0  0.33550  0.90138  0.04228  1.0000
  O   O597      1.0  0.09862  0.54228  0.16450  1.0000
  O   O598      1.0  0.59862  0.95772  0.83550  1.0000
  O   O599      1.0  0.90138  0.04228  0.33550  1.0000
  O   O600      1.0  0.40138  0.45772  0.66450  1.0000
  O   O601      1.0  0.08550  0.29228  0.34862  1.0000
  O   O602      1.0  0.41450  0.70772  0.84862  1.0000
  O   O603      1.0  0.91450  0.79228  0.15138  1.0000
  O   O604      1.0  0.58550  0.20772  0.65138  1.0000
  O   O605      1.0  0.34862  0.08550  0.29228  1.0000
  O   O606      1.0  0.84862  0.41450  0.70772  1.0000
  O   O607      1.0  0.15138  0.91450  0.79228  1.0000
  O   O608      1.0  0.65138  0.58550  0.20772  1.0000
  O   O609      1.0  0.29228  0.34862  0.08550  1.0000
  O   O610      1.0  0.70772  0.84862  0.41450  1.0000
  O   O611      1.0  0.79228  0.15138  0.91450  1.0000
  O   O612      1.0  0.20772  0.65138  0.58550  1.0000
  O   O613      1.0  0.54228  0.83550  0.40138  1.0000
  O   O614      1.0  0.95772  0.16450  0.90138  1.0000
  O   O615      1.0  0.04228  0.66450  0.59862  1.0000
  O   O616      1.0  0.45772  0.33550  0.09862  1.0000
  O   O617      1.0  0.33550  0.09862  0.45772  1.0000
  O   O618      1.0  0.66450  0.59862  0.04228  1.0000
  O   O619      1.0  0.16450  0.90138  0.95772  1.0000
  O   O620      1.0  0.83550  0.40138  0.54228  1.0000
  O   O621      1.0  0.59862  0.04228  0.66450  1.0000
  O   O622      1.0  0.09862  0.45772  0.33550  1.0000
  O   O623      1.0  0.40138  0.54228  0.83550  1.0000
  O   O624      1.0  0.90138  0.95772  0.16450  1.0000
  C   C1921     1.0  0.42114  0.17411  0.15106  1.0000
  C   C1922     1.0  0.07886  0.82589  0.65106  1.0000
  C   C1923     1.0  0.57886  0.67411  0.34894  1.0000
  C   C1924     1.0  0.92114  0.32589  0.84894  1.0000
  C   C1925     1.0  0.15106  0.42114  0.17411  1.0000
  C   C1926     1.0  0.65106  0.07886  0.82589  1.0000
  C   C1927     1.0  0.34894  0.57886  0.67411  1.0000
  C   C1928     1.0  0.84894  0.92114  0.32589  1.0000
  C   C1929     1.0  0.17411  0.15106  0.42114  1.0000
  C   C1930     1.0  0.82589  0.65106  0.07886  1.0000
  C   C1931     1.0  0.67411  0.34894  0.57886  1.0000
  C   C1932     1.0  0.32589  0.84894  0.92114  1.0000
  C   C1933     1.0  0.92411  0.67114  0.09894  1.0000
  C   C1934     1.0  0.57589  0.32886  0.59894  1.0000
  C   C1935     1.0  0.42411  0.82886  0.90106  1.0000
  C   C1936     1.0  0.07589  0.17114  0.40106  1.0000
  C   C1937     1.0  0.17114  0.40106  0.07589  1.0000
  C   C1938     1.0  0.82886  0.90106  0.42411  1.0000
  C   C1939     1.0  0.32886  0.59894  0.57589  1.0000
  C   C1940     1.0  0.67114  0.09894  0.92411  1.0000
  C   C1941     1.0  0.90106  0.42411  0.82886  1.0000
  C   C1942     1.0  0.40106  0.07589  0.17114  1.0000
  C   C1943     1.0  0.09894  0.92411  0.67114  1.0000
  C   C1944     1.0  0.59894  0.57589  0.32886  1.0000
  C   C1945     1.0  0.92114  0.67411  0.65106  1.0000
  C   C1946     1.0  0.57886  0.32589  0.15106  1.0000
  C   C1947     1.0  0.07886  0.17411  0.84894  1.0000
  C   C1948     1.0  0.42114  0.82589  0.34894  1.0000
  C   C1949     1.0  0.65106  0.92114  0.67411  1.0000
  C   C1950     1.0  0.15106  0.57886  0.32589  1.0000
  C   C1951     1.0  0.84894  0.07886  0.17411  1.0000
  C   C1952     1.0  0.34894  0.42114  0.82589  1.0000
  C   C1953     1.0  0.67411  0.65106  0.92114  1.0000
  C   C1954     1.0  0.32589  0.15106  0.57886  1.0000
  C   C1955     1.0  0.17411  0.84894  0.07886  1.0000
  C   C1956     1.0  0.82589  0.34894  0.42114  1.0000
  C   C1957     1.0  0.42411  0.17114  0.59894  1.0000
  C   C1958     1.0  0.07589  0.82886  0.09894  1.0000
  C   C1959     1.0  0.92411  0.32886  0.40106  1.0000
  C   C1960     1.0  0.57589  0.67114  0.90106  1.0000
  C   C1961     1.0  0.67114  0.90106  0.57589  1.0000
  C   C1962     1.0  0.32886  0.40106  0.92411  1.0000
  C   C1963     1.0  0.82886  0.09894  0.07589  1.0000
  C   C1964     1.0  0.17114  0.59894  0.42411  1.0000
  C   C1965     1.0  0.40106  0.92411  0.32886  1.0000
  C   C1966     1.0  0.90106  0.57589  0.67114  1.0000
  C   C1967     1.0  0.59894  0.42411  0.17114  1.0000
  C   C1968     1.0  0.09894  0.07589  0.82886  1.0000
  C   C1969     1.0  0.57886  0.82589  0.84894  1.0000
  C   C1970     1.0  0.92114  0.17411  0.34894  1.0000
  C   C1971     1.0  0.42114  0.32589  0.65106  1.0000
  C   C1972     1.0  0.07886  0.67411  0.15106  1.0000
  C   C1973     1.0  0.84894  0.57886  0.82589  1.0000
  C   C1974     1.0  0.34894  0.92114  0.17411  1.0000
  C   C1975     1.0  0.65106  0.42114  0.32589  1.0000
  C   C1976     1.0  0.15106  0.07886  0.67411  1.0000
  C   C1977     1.0  0.82589  0.84894  0.57886  1.0000
  C   C1978     1.0  0.17411  0.34894  0.92114  1.0000
  C   C1979     1.0  0.32589  0.65106  0.42114  1.0000
  C   C1980     1.0  0.67411  0.15106  0.07886  1.0000
  C   C1981     1.0  0.07589  0.32886  0.90106  1.0000
  C   C1982     1.0  0.42411  0.67114  0.40106  1.0000
  C   C1983     1.0  0.57589  0.17114  0.09894  1.0000
  C   C1984     1.0  0.92411  0.82886  0.59894  1.0000
  C   C1985     1.0  0.82886  0.59894  0.92411  1.0000
  C   C1986     1.0  0.17114  0.09894  0.57589  1.0000
  C   C1987     1.0  0.67114  0.40106  0.42411  1.0000
  C   C1988     1.0  0.32886  0.90106  0.07589  1.0000
  C   C1989     1.0  0.09894  0.57589  0.17114  1.0000
  C   C1990     1.0  0.59894  0.92411  0.82886  1.0000
  C   C1991     1.0  0.90106  0.07589  0.32886  1.0000
  C   C1992     1.0  0.40106  0.42411  0.67114  1.0000
  C   C1993     1.0  0.07886  0.32589  0.34894  1.0000
  C   C1994     1.0  0.42114  0.67411  0.84894  1.0000
  C   C1995     1.0  0.92114  0.82589  0.15106  1.0000
  C   C1996     1.0  0.57886  0.17411  0.65106  1.0000
  C   C1997     1.0  0.34894  0.07886  0.32589  1.0000
  C   C1998     1.0  0.84894  0.42114  0.67411  1.0000
  C   C1999     1.0  0.15106  0.92114  0.82589  1.0000
  C   C2000     1.0  0.65106  0.57886  0.17411  1.0000
  C   C2001     1.0  0.32589  0.34894  0.07886  1.0000
  C   C2002     1.0  0.67411  0.84894  0.42114  1.0000
  C   C2003     1.0  0.82589  0.15106  0.92114  1.0000
  C   C2004     1.0  0.17411  0.65106  0.57886  1.0000
  C   C2005     1.0  0.57589  0.82886  0.40106  1.0000
  C   C2006     1.0  0.92411  0.17114  0.90106  1.0000
  C   C2007     1.0  0.07589  0.67114  0.59894  1.0000
  C   C2008     1.0  0.42411  0.32886  0.09894  1.0000
  C   C2009     1.0  0.32886  0.09894  0.42411  1.0000
  C   C2010     1.0  0.67114  0.59894  0.07589  1.0000
  C   C2011     1.0  0.17114  0.90106  0.92411  1.0000
  C   C2012     1.0  0.82886  0.40106  0.57589  1.0000
  C   C2013     1.0  0.59894  0.07589  0.67114  1.0000
  C   C2014     1.0  0.09894  0.42411  0.32886  1.0000
  C   C2015     1.0  0.40106  0.57589  0.82886  1.0000
  C   C2016     1.0  0.90106  0.92411  0.17114  1.0000
  C   C2017     1.0  0.40605  0.16913  0.16246  1.0000
  C   C2018     1.0  0.09395  0.83087  0.66246  1.0000
  C   C2019     1.0  0.59395  0.66913  0.33754  1.0000
  C   C2020     1.0  0.90605  0.33087  0.83754  1.0000
  C   C2021     1.0  0.16246  0.40605  0.16913  1.0000
  C   C2022     1.0  0.66246  0.09395  0.83087  1.0000
  C   C2023     1.0  0.33754  0.59395  0.66913  1.0000
  C   C2024     1.0  0.83754  0.90605  0.33087  1.0000
  C   C2025     1.0  0.16913  0.16246  0.40605  1.0000
  C   C2026     1.0  0.83087  0.66246  0.09395  1.0000
  C   C2027     1.0  0.66913  0.33754  0.59395  1.0000
  C   C2028     1.0  0.33087  0.83754  0.90605  1.0000
  C   C2029     1.0  0.91913  0.65605  0.08754  1.0000
  C   C2030     1.0  0.58087  0.34395  0.58754  1.0000
  C   C2031     1.0  0.41913  0.84395  0.91246  1.0000
  C   C2032     1.0  0.08087  0.15605  0.41246  1.0000
  C   C2033     1.0  0.15605  0.41246  0.08087  1.0000
  C   C2034     1.0  0.84395  0.91246  0.41913  1.0000
  C   C2035     1.0  0.34395  0.58754  0.58087  1.0000
  C   C2036     1.0  0.65605  0.08754  0.91913  1.0000
  C   C2037     1.0  0.91246  0.41913  0.84395  1.0000
  C   C2038     1.0  0.41246  0.08087  0.15605  1.0000
  C   C2039     1.0  0.08754  0.91913  0.65605  1.0000
  C   C2040     1.0  0.58754  0.58087  0.34395  1.0000
  C   C2041     1.0  0.90605  0.66913  0.66246  1.0000
  C   C2042     1.0  0.59395  0.33087  0.16246  1.0000
  C   C2043     1.0  0.09395  0.16913  0.83754  1.0000
  C   C2044     1.0  0.40605  0.83087  0.33754  1.0000
  C   C2045     1.0  0.66246  0.90605  0.66913  1.0000
  C   C2046     1.0  0.16246  0.59395  0.33087  1.0000
  C   C2047     1.0  0.83754  0.09395  0.16913  1.0000
  C   C2048     1.0  0.33754  0.40605  0.83087  1.0000
  C   C2049     1.0  0.66913  0.66246  0.90605  1.0000
  C   C2050     1.0  0.33087  0.16246  0.59395  1.0000
  C   C2051     1.0  0.16913  0.83754  0.09395  1.0000
  C   C2052     1.0  0.83087  0.33754  0.40605  1.0000
  C   C2053     1.0  0.41913  0.15605  0.58754  1.0000
  C   C2054     1.0  0.08087  0.84395  0.08754  1.0000
  C   C2055     1.0  0.91913  0.34395  0.41246  1.0000
  C   C2056     1.0  0.58087  0.65605  0.91246  1.0000
  C   C2057     1.0  0.65605  0.91246  0.58087  1.0000
  C   C2058     1.0  0.34395  0.41246  0.91913  1.0000
  C   C2059     1.0  0.84395  0.08754  0.08087  1.0000
  C   C2060     1.0  0.15605  0.58754  0.41913  1.0000
  C   C2061     1.0  0.41246  0.91913  0.34395  1.0000
  C   C2062     1.0  0.91246  0.58087  0.65605  1.0000
  C   C2063     1.0  0.58754  0.41913  0.15605  1.0000
  C   C2064     1.0  0.08754  0.08087  0.84395  1.0000
  C   C2065     1.0  0.59395  0.83087  0.83754  1.0000
  C   C2066     1.0  0.90605  0.16913  0.33754  1.0000
  C   C2067     1.0  0.40605  0.33087  0.66246  1.0000
  C   C2068     1.0  0.09395  0.66913  0.16246  1.0000
  C   C2069     1.0  0.83754  0.59395  0.83087  1.0000
  C   C2070     1.0  0.33754  0.90605  0.16913  1.0000
  C   C2071     1.0  0.66246  0.40605  0.33087  1.0000
  C   C2072     1.0  0.16246  0.09395  0.66913  1.0000
  C   C2073     1.0  0.83087  0.83754  0.59395  1.0000
  C   C2074     1.0  0.16913  0.33754  0.90605  1.0000
  C   C2075     1.0  0.33087  0.66246  0.40605  1.0000
  C   C2076     1.0  0.66913  0.16246  0.09395  1.0000
  C   C2077     1.0  0.08087  0.34395  0.91246  1.0000
  C   C2078     1.0  0.41913  0.65605  0.41246  1.0000
  C   C2079     1.0  0.58087  0.15605  0.08754  1.0000
  C   C2080     1.0  0.91913  0.84395  0.58754  1.0000
  C   C2081     1.0  0.84395  0.58754  0.91913  1.0000
  C   C2082     1.0  0.15605  0.08754  0.58087  1.0000
  C   C2083     1.0  0.65605  0.41246  0.41913  1.0000
  C   C2084     1.0  0.34395  0.91246  0.08087  1.0000
  C   C2085     1.0  0.08754  0.58087  0.15605  1.0000
  C   C2086     1.0  0.58754  0.91913  0.84395  1.0000
  C   C2087     1.0  0.91246  0.08087  0.34395  1.0000
  C   C2088     1.0  0.41246  0.41913  0.65605  1.0000
  C   C2089     1.0  0.09395  0.33087  0.33754  1.0000
  C   C2090     1.0  0.40605  0.66913  0.83754  1.0000
  C   C2091     1.0  0.90605  0.83087  0.16246  1.0000
  C   C2092     1.0  0.59395  0.16913  0.66246  1.0000
  C   C2093     1.0  0.33754  0.09395  0.33087  1.0000
  C   C2094     1.0  0.83754  0.40605  0.66913  1.0000
  C   C2095     1.0  0.16246  0.90605  0.83087  1.0000
  C   C2096     1.0  0.66246  0.59395  0.16913  1.0000
  C   C2097     1.0  0.33087  0.33754  0.09395  1.0000
  C   C2098     1.0  0.66913  0.83754  0.40605  1.0000
  C   C2099     1.0  0.83087  0.16246  0.90605  1.0000
  C   C2100     1.0  0.16913  0.66246  0.59395  1.0000
  C   C2101     1.0  0.58087  0.84395  0.41246  1.0000
  C   C2102     1.0  0.91913  0.15605  0.91246  1.0000
  C   C2103     1.0  0.08087  0.65605  0.58754  1.0000
  C   C2104     1.0  0.41913  0.34395  0.08754  1.0000
  C   C2105     1.0  0.34395  0.08754  0.41913  1.0000
  C   C2106     1.0  0.65605  0.58754  0.08087  1.0000
  C   C2107     1.0  0.15605  0.91246  0.91913  1.0000
  C   C2108     1.0  0.84395  0.41246  0.58087  1.0000
  C   C2109     1.0  0.58754  0.08087  0.65605  1.0000
  C   C2110     1.0  0.08754  0.41913  0.34395  1.0000
  C   C2111     1.0  0.41246  0.58087  0.84395  1.0000
  C   C2112     1.0  0.91246  0.91913  0.15605  1.0000
  H   H1153     1.0  0.39820  0.17880  0.16760  1.0000
  H   H1154     1.0  0.10180  0.82120  0.66760  1.0000
  H   H1155     1.0  0.60180  0.67880  0.33240  1.0000
  H   H1156     1.0  0.89820  0.32120  0.83240  1.0000
  H   H1157     1.0  0.16760  0.39820  0.17880  1.0000
  H   H1158     1.0  0.66760  0.10180  0.82120  1.0000
  H   H1159     1.0  0.33240  0.60180  0.67880  1.0000
  H   H1160     1.0  0.83240  0.89820  0.32120  1.0000
  H   H1161     1.0  0.17880  0.16760  0.39820  1.0000
  H   H1162     1.0  0.82120  0.66760  0.10180  1.0000
  H   H1163     1.0  0.67880  0.33240  0.60180  1.0000
  H   H1164     1.0  0.32120  0.83240  0.89820  1.0000
  H   H1165     1.0  0.92880  0.64820  0.08240  1.0000
  H   H1166     1.0  0.57120  0.35180  0.58240  1.0000
  H   H1167     1.0  0.42880  0.85180  0.91760  1.0000
  H   H1168     1.0  0.07120  0.14820  0.41760  1.0000
  H   H1169     1.0  0.14820  0.41760  0.07120  1.0000
  H   H1170     1.0  0.85180  0.91760  0.42880  1.0000
  H   H1171     1.0  0.35180  0.58240  0.57120  1.0000
  H   H1172     1.0  0.64820  0.08240  0.92880  1.0000
  H   H1173     1.0  0.91760  0.42880  0.85180  1.0000
  H   H1174     1.0  0.41760  0.07120  0.14820  1.0000
  H   H1175     1.0  0.08240  0.92880  0.64820  1.0000
  H   H1176     1.0  0.58240  0.57120  0.35180  1.0000
  H   H1177     1.0  0.89820  0.67880  0.66760  1.0000
  H   H1178     1.0  0.60180  0.32120  0.16760  1.0000
  H   H1179     1.0  0.10180  0.17880  0.83240  1.0000
  H   H1180     1.0  0.39820  0.82120  0.33240  1.0000
  H   H1181     1.0  0.66760  0.89820  0.67880  1.0000
  H   H1182     1.0  0.16760  0.60180  0.32120  1.0000
  H   H1183     1.0  0.83240  0.10180  0.17880  1.0000
  H   H1184     1.0  0.33240  0.39820  0.82120  1.0000
  H   H1185     1.0  0.67880  0.66760  0.89820  1.0000
  H   H1186     1.0  0.32120  0.16760  0.60180  1.0000
  H   H1187     1.0  0.17880  0.83240  0.10180  1.0000
  H   H1188     1.0  0.82120  0.33240  0.39820  1.0000
  H   H1189     1.0  0.42880  0.14820  0.58240  1.0000
  H   H1190     1.0  0.07120  0.85180  0.08240  1.0000
  H   H1191     1.0  0.92880  0.35180  0.41760  1.0000
  H   H1192     1.0  0.57120  0.64820  0.91760  1.0000
  H   H1193     1.0  0.64820  0.91760  0.57120  1.0000
  H   H1194     1.0  0.35180  0.41760  0.92880  1.0000
  H   H1195     1.0  0.85180  0.08240  0.07120  1.0000
  H   H1196     1.0  0.14820  0.58240  0.42880  1.0000
  H   H1197     1.0  0.41760  0.92880  0.35180  1.0000
  H   H1198     1.0  0.91760  0.57120  0.64820  1.0000
  H   H1199     1.0  0.58240  0.42880  0.14820  1.0000
  H   H1200     1.0  0.08240  0.07120  0.85180  1.0000
  H   H1201     1.0  0.60180  0.82120  0.83240  1.0000
  H   H1202     1.0  0.89820  0.17880  0.33240  1.0000
  H   H1203     1.0  0.39820  0.32120  0.66760  1.0000
  H   H1204     1.0  0.10180  0.67880  0.16760  1.0000
  H   H1205     1.0  0.83240  0.60180  0.82120  1.0000
  H   H1206     1.0  0.33240  0.89820  0.17880  1.0000
  H   H1207     1.0  0.66760  0.39820  0.32120  1.0000
  H   H1208     1.0  0.16760  0.10180  0.67880  1.0000
  H   H1209     1.0  0.82120  0.83240  0.60180  1.0000
  H   H1210     1.0  0.17880  0.33240  0.89820  1.0000
  H   H1211     1.0  0.32120  0.66760  0.39820  1.0000
  H   H1212     1.0  0.67880  0.16760  0.10180  1.0000
  H   H1213     1.0  0.07120  0.35180  0.91760  1.0000
  H   H1214     1.0  0.42880  0.64820  0.41760  1.0000
  H   H1215     1.0  0.57120  0.14820  0.08240  1.0000
  H   H1216     1.0  0.92880  0.85180  0.58240  1.0000
  H   H1217     1.0  0.85180  0.58240  0.92880  1.0000
  H   H1218     1.0  0.14820  0.08240  0.57120  1.0000
  H   H1219     1.0  0.64820  0.41760  0.42880  1.0000
  H   H1220     1.0  0.35180  0.91760  0.07120  1.0000
  H   H1221     1.0  0.08240  0.57120  0.14820  1.0000
  H   H1222     1.0  0.58240  0.92880  0.85180  1.0000
  H   H1223     1.0  0.91760  0.07120  0.35180  1.0000
  H   H1224     1.0  0.41760  0.42880  0.64820  1.0000
  H   H1225     1.0  0.10180  0.32120  0.33240  1.0000
  H   H1226     1.0  0.39820  0.67880  0.83240  1.0000
  H   H1227     1.0  0.89820  0.82120  0.16760  1.0000
  H   H1228     1.0  0.60180  0.17880  0.66760  1.0000
  H   H1229     1.0  0.33240  0.10180  0.32120  1.0000
  H   H1230     1.0  0.83240  0.39820  0.67880  1.0000
  H   H1231     1.0  0.16760  0.89820  0.82120  1.0000
  H   H1232     1.0  0.66760  0.60180  0.17880  1.0000
  H   H1233     1.0  0.32120  0.33240  0.10180  1.0000
  H   H1234     1.0  0.67880  0.83240  0.39820  1.0000
  H   H1235     1.0  0.82120  0.16760  0.89820  1.0000
  H   H1236     1.0  0.17880  0.66760  0.60180  1.0000
  H   H1237     1.0  0.57120  0.85180  0.41760  1.0000
  H   H1238     1.0  0.92880  0.14820  0.91760  1.0000
  H   H1239     1.0  0.07120  0.64820  0.58240  1.0000
  H   H1240     1.0  0.42880  0.35180  0.08240  1.0000
  H   H1241     1.0  0.35180  0.08240  0.42880  1.0000
  H   H1242     1.0  0.64820  0.58240  0.07120  1.0000
  H   H1243     1.0  0.14820  0.91760  0.92880  1.0000
  H   H1244     1.0  0.85180  0.41760  0.57120  1.0000
  H   H1245     1.0  0.58240  0.07120  0.64820  1.0000
  H   H1246     1.0  0.08240  0.42880  0.35180  1.0000
  H   H1247     1.0  0.41760  0.57120  0.85180  1.0000
  H   H1248     1.0  0.91760  0.92880  0.14820  1.0000
  C   C2113     1.0  0.40208  0.14982  0.16660  1.0000
  C   C2114     1.0  0.09792  0.85018  0.66660  1.0000
  C   C2115     1.0  0.59792  0.64982  0.33340  1.0000
  C   C2116     1.0  0.90208  0.35018  0.83340  1.0000
  C   C2117     1.0  0.16660  0.40208  0.14982  1.0000
  C   C2118     1.0  0.66660  0.09792  0.85018  1.0000
  C   C2119     1.0  0.33340  0.59792  0.64982  1.0000
  C   C2120     1.0  0.83340  0.90208  0.35018  1.0000
  C   C2121     1.0  0.14982  0.16660  0.40208  1.0000
  C   C2122     1.0  0.85018  0.66660  0.09792  1.0000
  C   C2123     1.0  0.64982  0.33340  0.59792  1.0000
  C   C2124     1.0  0.35018  0.83340  0.90208  1.0000
  C   C2125     1.0  0.89982  0.65208  0.08340  1.0000
  C   C2126     1.0  0.60018  0.34792  0.58340  1.0000
  C   C2127     1.0  0.39982  0.84792  0.91660  1.0000
  C   C2128     1.0  0.10018  0.15208  0.41660  1.0000
  C   C2129     1.0  0.15208  0.41660  0.10018  1.0000
  C   C2130     1.0  0.84792  0.91660  0.39982  1.0000
  C   C2131     1.0  0.34792  0.58340  0.60018  1.0000
  C   C2132     1.0  0.65208  0.08340  0.89982  1.0000
  C   C2133     1.0  0.91660  0.39982  0.84792  1.0000
  C   C2134     1.0  0.41660  0.10018  0.15208  1.0000
  C   C2135     1.0  0.08340  0.89982  0.65208  1.0000
  C   C2136     1.0  0.58340  0.60018  0.34792  1.0000
  C   C2137     1.0  0.90208  0.64982  0.66660  1.0000
  C   C2138     1.0  0.59792  0.35018  0.16660  1.0000
  C   C2139     1.0  0.09792  0.14982  0.83340  1.0000
  C   C2140     1.0  0.40208  0.85018  0.33340  1.0000
  C   C2141     1.0  0.66660  0.90208  0.64982  1.0000
  C   C2142     1.0  0.16660  0.59792  0.35018  1.0000
  C   C2143     1.0  0.83340  0.09792  0.14982  1.0000
  C   C2144     1.0  0.33340  0.40208  0.85018  1.0000
  C   C2145     1.0  0.64982  0.66660  0.90208  1.0000
  C   C2146     1.0  0.35018  0.16660  0.59792  1.0000
  C   C2147     1.0  0.14982  0.83340  0.09792  1.0000
  C   C2148     1.0  0.85018  0.33340  0.40208  1.0000
  C   C2149     1.0  0.39982  0.15208  0.58340  1.0000
  C   C2150     1.0  0.10018  0.84792  0.08340  1.0000
  C   C2151     1.0  0.89982  0.34792  0.41660  1.0000
  C   C2152     1.0  0.60018  0.65208  0.91660  1.0000
  C   C2153     1.0  0.65208  0.91660  0.60018  1.0000
  C   C2154     1.0  0.34792  0.41660  0.89982  1.0000
  C   C2155     1.0  0.84792  0.08340  0.10018  1.0000
  C   C2156     1.0  0.15208  0.58340  0.39982  1.0000
  C   C2157     1.0  0.41660  0.89982  0.34792  1.0000
  C   C2158     1.0  0.91660  0.60018  0.65208  1.0000
  C   C2159     1.0  0.58340  0.39982  0.15208  1.0000
  C   C2160     1.0  0.08340  0.10018  0.84792  1.0000
  C   C2161     1.0  0.59792  0.85018  0.83340  1.0000
  C   C2162     1.0  0.90208  0.14982  0.33340  1.0000
  C   C2163     1.0  0.40208  0.35018  0.66660  1.0000
  C   C2164     1.0  0.09792  0.64982  0.16660  1.0000
  C   C2165     1.0  0.83340  0.59792  0.85018  1.0000
  C   C2166     1.0  0.33340  0.90208  0.14982  1.0000
  C   C2167     1.0  0.66660  0.40208  0.35018  1.0000
  C   C2168     1.0  0.16660  0.09792  0.64982  1.0000
  C   C2169     1.0  0.85018  0.83340  0.59792  1.0000
  C   C2170     1.0  0.14982  0.33340  0.90208  1.0000
  C   C2171     1.0  0.35018  0.66660  0.40208  1.0000
  C   C2172     1.0  0.64982  0.16660  0.09792  1.0000
  C   C2173     1.0  0.10018  0.34792  0.91660  1.0000
  C   C2174     1.0  0.39982  0.65208  0.41660  1.0000
  C   C2175     1.0  0.60018  0.15208  0.08340  1.0000
  C   C2176     1.0  0.89982  0.84792  0.58340  1.0000
  C   C2177     1.0  0.84792  0.58340  0.89982  1.0000
  C   C2178     1.0  0.15208  0.08340  0.60018  1.0000
  C   C2179     1.0  0.65208  0.41660  0.39982  1.0000
  C   C2180     1.0  0.34792  0.91660  0.10018  1.0000
  C   C2181     1.0  0.08340  0.60018  0.15208  1.0000
  C   C2182     1.0  0.58340  0.89982  0.84792  1.0000
  C   C2183     1.0  0.91660  0.10018  0.34792  1.0000
  C   C2184     1.0  0.41660  0.39982  0.65208  1.0000
  C   C2185     1.0  0.09792  0.35018  0.33340  1.0000
  C   C2186     1.0  0.40208  0.64982  0.83340  1.0000
  C   C2187     1.0  0.90208  0.85018  0.16660  1.0000
  C   C2188     1.0  0.59792  0.14982  0.66660  1.0000
  C   C2189     1.0  0.33340  0.09792  0.35018  1.0000
  C   C2190     1.0  0.83340  0.40208  0.64982  1.0000
  C   C2191     1.0  0.16660  0.90208  0.85018  1.0000
  C   C2192     1.0  0.66660  0.59792  0.14982  1.0000
  C   C2193     1.0  0.35018  0.33340  0.09792  1.0000
  C   C2194     1.0  0.64982  0.83340  0.40208  1.0000
  C   C2195     1.0  0.85018  0.16660  0.90208  1.0000
  C   C2196     1.0  0.14982  0.66660  0.59792  1.0000
  C   C2197     1.0  0.60018  0.84792  0.41660  1.0000
  C   C2198     1.0  0.89982  0.15208  0.91660  1.0000
  C   C2199     1.0  0.10018  0.65208  0.58340  1.0000
  C   C2200     1.0  0.39982  0.34792  0.08340  1.0000
  C   C2201     1.0  0.34792  0.08340  0.39982  1.0000
  C   C2202     1.0  0.65208  0.58340  0.10018  1.0000
  C   C2203     1.0  0.15208  0.91660  0.89982  1.0000
  C   C2204     1.0  0.84792  0.41660  0.60018  1.0000
  C   C2205     1.0  0.58340  0.10018  0.65208  1.0000
  C   C2206     1.0  0.08340  0.39982  0.34792  1.0000
  C   C2207     1.0  0.41660  0.60018  0.84792  1.0000
  C   C2208     1.0  0.91660  0.89982  0.15208  1.0000
  H   H1249     1.0  0.39150  0.14660  0.17430  1.0000
  H   H1250     1.0  0.10850  0.85340  0.67430  1.0000
  H   H1251     1.0  0.60850  0.64660  0.32570  1.0000
  H   H1252     1.0  0.89150  0.35340  0.82570  1.0000
  H   H1253     1.0  0.17430  0.39150  0.14660  1.0000
  H   H1254     1.0  0.67430  0.10850  0.85340  1.0000
  H   H1255     1.0  0.32570  0.60850  0.64660  1.0000
  H   H1256     1.0  0.82570  0.89150  0.35340  1.0000
  H   H1257     1.0  0.14660  0.17430  0.39150  1.0000
  H   H1258     1.0  0.85340  0.67430  0.10850  1.0000
  H   H1259     1.0  0.64660  0.32570  0.60850  1.0000
  H   H1260     1.0  0.35340  0.82570  0.89150  1.0000
  H   H1261     1.0  0.89660  0.64150  0.07570  1.0000
  H   H1262     1.0  0.60340  0.35850  0.57570  1.0000
  H   H1263     1.0  0.39660  0.85850  0.92430  1.0000
  H   H1264     1.0  0.10340  0.14150  0.42430  1.0000
  H   H1265     1.0  0.14150  0.42430  0.10340  1.0000
  H   H1266     1.0  0.85850  0.92430  0.39660  1.0000
  H   H1267     1.0  0.35850  0.57570  0.60340  1.0000
  H   H1268     1.0  0.64150  0.07570  0.89660  1.0000
  H   H1269     1.0  0.92430  0.39660  0.85850  1.0000
  H   H1270     1.0  0.42430  0.10340  0.14150  1.0000
  H   H1271     1.0  0.07570  0.89660  0.64150  1.0000
  H   H1272     1.0  0.57570  0.60340  0.35850  1.0000
  H   H1273     1.0  0.89150  0.64660  0.67430  1.0000
  H   H1274     1.0  0.60850  0.35340  0.17430  1.0000
  H   H1275     1.0  0.10850  0.14660  0.82570  1.0000
  H   H1276     1.0  0.39150  0.85340  0.32570  1.0000
  H   H1277     1.0  0.67430  0.89150  0.64660  1.0000
  H   H1278     1.0  0.17430  0.60850  0.35340  1.0000
  H   H1279     1.0  0.82570  0.10850  0.14660  1.0000
  H   H1280     1.0  0.32570  0.39150  0.85340  1.0000
  H   H1281     1.0  0.64660  0.67430  0.89150  1.0000
  H   H1282     1.0  0.35340  0.17430  0.60850  1.0000
  H   H1283     1.0  0.14660  0.82570  0.10850  1.0000
  H   H1284     1.0  0.85340  0.32570  0.39150  1.0000
  H   H1285     1.0  0.39660  0.14150  0.57570  1.0000
  H   H1286     1.0  0.10340  0.85850  0.07570  1.0000
  H   H1287     1.0  0.89660  0.35850  0.42430  1.0000
  H   H1288     1.0  0.60340  0.64150  0.92430  1.0000
  H   H1289     1.0  0.64150  0.92430  0.60340  1.0000
  H   H1290     1.0  0.35850  0.42430  0.89660  1.0000
  H   H1291     1.0  0.85850  0.07570  0.10340  1.0000
  H   H1292     1.0  0.14150  0.57570  0.39660  1.0000
  H   H1293     1.0  0.42430  0.89660  0.35850  1.0000
  H   H1294     1.0  0.92430  0.60340  0.64150  1.0000
  H   H1295     1.0  0.57570  0.39660  0.14150  1.0000
  H   H1296     1.0  0.07570  0.10340  0.85850  1.0000
  H   H1297     1.0  0.60850  0.85340  0.82570  1.0000
  H   H1298     1.0  0.89150  0.14660  0.32570  1.0000
  H   H1299     1.0  0.39150  0.35340  0.67430  1.0000
  H   H1300     1.0  0.10850  0.64660  0.17430  1.0000
  H   H1301     1.0  0.82570  0.60850  0.85340  1.0000
  H   H1302     1.0  0.32570  0.89150  0.14660  1.0000
  H   H1303     1.0  0.67430  0.39150  0.35340  1.0000
  H   H1304     1.0  0.17430  0.10850  0.64660  1.0000
  H   H1305     1.0  0.85340  0.82570  0.60850  1.0000
  H   H1306     1.0  0.14660  0.32570  0.89150  1.0000
  H   H1307     1.0  0.35340  0.67430  0.39150  1.0000
  H   H1308     1.0  0.64660  0.17430  0.10850  1.0000
  H   H1309     1.0  0.10340  0.35850  0.92430  1.0000
  H   H1310     1.0  0.39660  0.64150  0.42430  1.0000
  H   H1311     1.0  0.60340  0.14150  0.07570  1.0000
  H   H1312     1.0  0.89660  0.85850  0.57570  1.0000
  H   H1313     1.0  0.85850  0.57570  0.89660  1.0000
  H   H1314     1.0  0.14150  0.07570  0.60340  1.0000
  H   H1315     1.0  0.64150  0.42430  0.39660  1.0000
  H   H1316     1.0  0.35850  0.92430  0.10340  1.0000
  H   H1317     1.0  0.07570  0.60340  0.14150  1.0000
  H   H1318     1.0  0.57570  0.89660  0.85850  1.0000
  H   H1319     1.0  0.92430  0.10340  0.35850  1.0000
  H   H1320     1.0  0.42430  0.39660  0.64150  1.0000
  H   H1321     1.0  0.10850  0.35340  0.32570  1.0000
  H   H1322     1.0  0.39150  0.64660  0.82570  1.0000
  H   H1323     1.0  0.89150  0.85340  0.17430  1.0000
  H   H1324     1.0  0.60850  0.14660  0.67430  1.0000
  H   H1325     1.0  0.32570  0.10850  0.35340  1.0000
  H   H1326     1.0  0.82570  0.39150  0.64660  1.0000
  H   H1327     1.0  0.17430  0.89150  0.85340  1.0000
  H   H1328     1.0  0.67430  0.60850  0.14660  1.0000
  H   H1329     1.0  0.35340  0.32570  0.10850  1.0000
  H   H1330     1.0  0.64660  0.82570  0.39150  1.0000
  H   H1331     1.0  0.85340  0.17430  0.89150  1.0000
  H   H1332     1.0  0.14660  0.67430  0.60850  1.0000
  H   H1333     1.0  0.60340  0.85850  0.42430  1.0000
  H   H1334     1.0  0.89660  0.14150  0.92430  1.0000
  H   H1335     1.0  0.10340  0.64150  0.57570  1.0000
  H   H1336     1.0  0.39660  0.35850  0.07570  1.0000
  H   H1337     1.0  0.35850  0.07570  0.39660  1.0000
  H   H1338     1.0  0.64150  0.57570  0.10340  1.0000
  H   H1339     1.0  0.14150  0.92430  0.89660  1.0000
  H   H1340     1.0  0.85850  0.42430  0.60340  1.0000
  H   H1341     1.0  0.57570  0.10340  0.64150  1.0000
  H   H1342     1.0  0.07570  0.39660  0.35850  1.0000
  H   H1343     1.0  0.42430  0.60340  0.85850  1.0000
  H   H1344     1.0  0.92430  0.89660  0.14150  1.0000
  C   C2209     1.0  0.41367  0.13582  0.15948  1.0000
  C   C2210     1.0  0.08633  0.86418  0.65948  1.0000
  C   C2211     1.0  0.58633  0.63582  0.34052  1.0000
  C   C2212     1.0  0.91367  0.36418  0.84052  1.0000
  C   C2213     1.0  0.15948  0.41367  0.13582  1.0000
  C   C2214     1.0  0.65948  0.08633  0.86418  1.0000
  C   C2215     1.0  0.34052  0.58633  0.63582  1.0000
  C   C2216     1.0  0.84052  0.91367  0.36418  1.0000
  C   C2217     1.0  0.13582  0.15948  0.41367  1.0000
  C   C2218     1.0  0.86418  0.65948  0.08633  1.0000
  C   C2219     1.0  0.63582  0.34052  0.58633  1.0000
  C   C2220     1.0  0.36418  0.84052  0.91367  1.0000
  C   C2221     1.0  0.88582  0.66367  0.09052  1.0000
  C   C2222     1.0  0.61418  0.33633  0.59052  1.0000
  C   C2223     1.0  0.38582  0.83633  0.90948  1.0000
  C   C2224     1.0  0.11418  0.16367  0.40948  1.0000
  C   C2225     1.0  0.16367  0.40948  0.11418  1.0000
  C   C2226     1.0  0.83633  0.90948  0.38582  1.0000
  C   C2227     1.0  0.33633  0.59052  0.61418  1.0000
  C   C2228     1.0  0.66367  0.09052  0.88582  1.0000
  C   C2229     1.0  0.90948  0.38582  0.83633  1.0000
  C   C2230     1.0  0.40948  0.11418  0.16367  1.0000
  C   C2231     1.0  0.09052  0.88582  0.66367  1.0000
  C   C2232     1.0  0.59052  0.61418  0.33633  1.0000
  C   C2233     1.0  0.91367  0.63582  0.65948  1.0000
  C   C2234     1.0  0.58633  0.36418  0.15948  1.0000
  C   C2235     1.0  0.08633  0.13582  0.84052  1.0000
  C   C2236     1.0  0.41367  0.86418  0.34052  1.0000
  C   C2237     1.0  0.65948  0.91367  0.63582  1.0000
  C   C2238     1.0  0.15948  0.58633  0.36418  1.0000
  C   C2239     1.0  0.84052  0.08633  0.13582  1.0000
  C   C2240     1.0  0.34052  0.41367  0.86418  1.0000
  C   C2241     1.0  0.63582  0.65948  0.91367  1.0000
  C   C2242     1.0  0.36418  0.15948  0.58633  1.0000
  C   C2243     1.0  0.13582  0.84052  0.08633  1.0000
  C   C2244     1.0  0.86418  0.34052  0.41367  1.0000
  C   C2245     1.0  0.38582  0.16367  0.59052  1.0000
  C   C2246     1.0  0.11418  0.83633  0.09052  1.0000
  C   C2247     1.0  0.88582  0.33633  0.40948  1.0000
  C   C2248     1.0  0.61418  0.66367  0.90948  1.0000
  C   C2249     1.0  0.66367  0.90948  0.61418  1.0000
  C   C2250     1.0  0.33633  0.40948  0.88582  1.0000
  C   C2251     1.0  0.83633  0.09052  0.11418  1.0000
  C   C2252     1.0  0.16367  0.59052  0.38582  1.0000
  C   C2253     1.0  0.40948  0.88582  0.33633  1.0000
  C   C2254     1.0  0.90948  0.61418  0.66367  1.0000
  C   C2255     1.0  0.59052  0.38582  0.16367  1.0000
  C   C2256     1.0  0.09052  0.11418  0.83633  1.0000
  C   C2257     1.0  0.58633  0.86418  0.84052  1.0000
  C   C2258     1.0  0.91367  0.13582  0.34052  1.0000
  C   C2259     1.0  0.41367  0.36418  0.65948  1.0000
  C   C2260     1.0  0.08633  0.63582  0.15948  1.0000
  C   C2261     1.0  0.84052  0.58633  0.86418  1.0000
  C   C2262     1.0  0.34052  0.91367  0.13582  1.0000
  C   C2263     1.0  0.65948  0.41367  0.36418  1.0000
  C   C2264     1.0  0.15948  0.08633  0.63582  1.0000
  C   C2265     1.0  0.86418  0.84052  0.58633  1.0000
  C   C2266     1.0  0.13582  0.34052  0.91367  1.0000
  C   C2267     1.0  0.36418  0.65948  0.41367  1.0000
  C   C2268     1.0  0.63582  0.15948  0.08633  1.0000
  C   C2269     1.0  0.11418  0.33633  0.90948  1.0000
  C   C2270     1.0  0.38582  0.66367  0.40948  1.0000
  C   C2271     1.0  0.61418  0.16367  0.09052  1.0000
  C   C2272     1.0  0.88582  0.83633  0.59052  1.0000
  C   C2273     1.0  0.83633  0.59052  0.88582  1.0000
  C   C2274     1.0  0.16367  0.09052  0.61418  1.0000
  C   C2275     1.0  0.66367  0.40948  0.38582  1.0000
  C   C2276     1.0  0.33633  0.90948  0.11418  1.0000
  C   C2277     1.0  0.09052  0.61418  0.16367  1.0000
  C   C2278     1.0  0.59052  0.88582  0.83633  1.0000
  C   C2279     1.0  0.90948  0.11418  0.33633  1.0000
  C   C2280     1.0  0.40948  0.38582  0.66367  1.0000
  C   C2281     1.0  0.08633  0.36418  0.34052  1.0000
  C   C2282     1.0  0.41367  0.63582  0.84052  1.0000
  C   C2283     1.0  0.91367  0.86418  0.15948  1.0000
  C   C2284     1.0  0.58633  0.13582  0.65948  1.0000
  C   C2285     1.0  0.34052  0.08633  0.36418  1.0000
  C   C2286     1.0  0.84052  0.41367  0.63582  1.0000
  C   C2287     1.0  0.15948  0.91367  0.86418  1.0000
  C   C2288     1.0  0.65948  0.58633  0.13582  1.0000
  C   C2289     1.0  0.36418  0.34052  0.08633  1.0000
  C   C2290     1.0  0.63582  0.84052  0.41367  1.0000
  C   C2291     1.0  0.86418  0.15948  0.91367  1.0000
  C   C2292     1.0  0.13582  0.65948  0.58633  1.0000
  C   C2293     1.0  0.61418  0.83633  0.40948  1.0000
  C   C2294     1.0  0.88582  0.16367  0.90948  1.0000
  C   C2295     1.0  0.11418  0.66367  0.59052  1.0000
  C   C2296     1.0  0.38582  0.33633  0.09052  1.0000
  C   C2297     1.0  0.33633  0.09052  0.38582  1.0000
  C   C2298     1.0  0.66367  0.59052  0.11418  1.0000
  C   C2299     1.0  0.16367  0.90948  0.88582  1.0000
  C   C2300     1.0  0.83633  0.40948  0.61418  1.0000
  C   C2301     1.0  0.59052  0.11418  0.66367  1.0000
  C   C2302     1.0  0.09052  0.38582  0.33633  1.0000
  C   C2303     1.0  0.40948  0.61418  0.83633  1.0000
  C   C2304     1.0  0.90948  0.88582  0.16367  1.0000
  C   C2305     1.0  0.42890  0.14068  0.14821  1.0000
  C   C2306     1.0  0.07110  0.85932  0.64821  1.0000
  C   C2307     1.0  0.57110  0.64068  0.35179  1.0000
  C   C2308     1.0  0.92890  0.35932  0.85179  1.0000
  C   C2309     1.0  0.14821  0.42890  0.14068  1.0000
  C   C2310     1.0  0.64821  0.07110  0.85932  1.0000
  C   C2311     1.0  0.35179  0.57110  0.64068  1.0000
  C   C2312     1.0  0.85179  0.92890  0.35932  1.0000
  C   C2313     1.0  0.14068  0.14821  0.42890  1.0000
  C   C2314     1.0  0.85932  0.64821  0.07110  1.0000
  C   C2315     1.0  0.64068  0.35179  0.57110  1.0000
  C   C2316     1.0  0.35932  0.85179  0.92890  1.0000
  C   C2317     1.0  0.89068  0.67890  0.10179  1.0000
  C   C2318     1.0  0.60932  0.32110  0.60179  1.0000
  C   C2319     1.0  0.39068  0.82110  0.89821  1.0000
  C   C2320     1.0  0.10932  0.17890  0.39821  1.0000
  C   C2321     1.0  0.17890  0.39821  0.10932  1.0000
  C   C2322     1.0  0.82110  0.89821  0.39068  1.0000
  C   C2323     1.0  0.32110  0.60179  0.60932  1.0000
  C   C2324     1.0  0.67890  0.10179  0.89068  1.0000
  C   C2325     1.0  0.89821  0.39068  0.82110  1.0000
  C   C2326     1.0  0.39821  0.10932  0.17890  1.0000
  C   C2327     1.0  0.10179  0.89068  0.67890  1.0000
  C   C2328     1.0  0.60179  0.60932  0.32110  1.0000
  C   C2329     1.0  0.92890  0.64068  0.64821  1.0000
  C   C2330     1.0  0.57110  0.35932  0.14821  1.0000
  C   C2331     1.0  0.07110  0.14068  0.85179  1.0000
  C   C2332     1.0  0.42890  0.85932  0.35179  1.0000
  C   C2333     1.0  0.64821  0.92890  0.64068  1.0000
  C   C2334     1.0  0.14821  0.57110  0.35932  1.0000
  C   C2335     1.0  0.85179  0.07110  0.14068  1.0000
  C   C2336     1.0  0.35179  0.42890  0.85932  1.0000
  C   C2337     1.0  0.64068  0.64821  0.92890  1.0000
  C   C2338     1.0  0.35932  0.14821  0.57110  1.0000
  C   C2339     1.0  0.14068  0.85179  0.07110  1.0000
  C   C2340     1.0  0.85932  0.35179  0.42890  1.0000
  C   C2341     1.0  0.39068  0.17890  0.60179  1.0000
  C   C2342     1.0  0.10932  0.82110  0.10179  1.0000
  C   C2343     1.0  0.89068  0.32110  0.39821  1.0000
  C   C2344     1.0  0.60932  0.67890  0.89821  1.0000
  C   C2345     1.0  0.67890  0.89821  0.60932  1.0000
  C   C2346     1.0  0.32110  0.39821  0.89068  1.0000
  C   C2347     1.0  0.82110  0.10179  0.10932  1.0000
  C   C2348     1.0  0.17890  0.60179  0.39068  1.0000
  C   C2349     1.0  0.39821  0.89068  0.32110  1.0000
  C   C2350     1.0  0.89821  0.60932  0.67890  1.0000
  C   C2351     1.0  0.60179  0.39068  0.17890  1.0000
  C   C2352     1.0  0.10179  0.10932  0.82110  1.0000
  C   C2353     1.0  0.57110  0.85932  0.85179  1.0000
  C   C2354     1.0  0.92890  0.14068  0.35179  1.0000
  C   C2355     1.0  0.42890  0.35932  0.64821  1.0000
  C   C2356     1.0  0.07110  0.64068  0.14821  1.0000
  C   C2357     1.0  0.85179  0.57110  0.85932  1.0000
  C   C2358     1.0  0.35179  0.92890  0.14068  1.0000
  C   C2359     1.0  0.64821  0.42890  0.35932  1.0000
  C   C2360     1.0  0.14821  0.07110  0.64068  1.0000
  C   C2361     1.0  0.85932  0.85179  0.57110  1.0000
  C   C2362     1.0  0.14068  0.35179  0.92890  1.0000
  C   C2363     1.0  0.35932  0.64821  0.42890  1.0000
  C   C2364     1.0  0.64068  0.14821  0.07110  1.0000
  C   C2365     1.0  0.10932  0.32110  0.89821  1.0000
  C   C2366     1.0  0.39068  0.67890  0.39821  1.0000
  C   C2367     1.0  0.60932  0.17890  0.10179  1.0000
  C   C2368     1.0  0.89068  0.82110  0.60179  1.0000
  C   C2369     1.0  0.82110  0.60179  0.89068  1.0000
  C   C2370     1.0  0.17890  0.10179  0.60932  1.0000
  C   C2371     1.0  0.67890  0.39821  0.39068  1.0000
  C   C2372     1.0  0.32110  0.89821  0.10932  1.0000
  C   C2373     1.0  0.10179  0.60932  0.17890  1.0000
  C   C2374     1.0  0.60179  0.89068  0.82110  1.0000
  C   C2375     1.0  0.89821  0.10932  0.32110  1.0000
  C   C2376     1.0  0.39821  0.39068  0.67890  1.0000
  C   C2377     1.0  0.07110  0.35932  0.35179  1.0000
  C   C2378     1.0  0.42890  0.64068  0.85179  1.0000
  C   C2379     1.0  0.92890  0.85932  0.14821  1.0000
  C   C2380     1.0  0.57110  0.14068  0.64821  1.0000
  C   C2381     1.0  0.35179  0.07110  0.35932  1.0000
  C   C2382     1.0  0.85179  0.42890  0.64068  1.0000
  C   C2383     1.0  0.14821  0.92890  0.85932  1.0000
  C   C2384     1.0  0.64821  0.57110  0.14068  1.0000
  C   C2385     1.0  0.35932  0.35179  0.07110  1.0000
  C   C2386     1.0  0.64068  0.85179  0.42890  1.0000
  C   C2387     1.0  0.85932  0.14821  0.92890  1.0000
  C   C2388     1.0  0.14068  0.64821  0.57110  1.0000
  C   C2389     1.0  0.60932  0.82110  0.39821  1.0000
  C   C2390     1.0  0.89068  0.17890  0.89821  1.0000
  C   C2391     1.0  0.10932  0.67890  0.60179  1.0000
  C   C2392     1.0  0.39068  0.32110  0.10179  1.0000
  C   C2393     1.0  0.32110  0.10179  0.39068  1.0000
  C   C2394     1.0  0.67890  0.60179  0.10932  1.0000
  C   C2395     1.0  0.17890  0.89821  0.89068  1.0000
  C   C2396     1.0  0.82110  0.39821  0.60932  1.0000
  C   C2397     1.0  0.60179  0.10932  0.67890  1.0000
  C   C2398     1.0  0.10179  0.39068  0.32110  1.0000
  C   C2399     1.0  0.39821  0.60932  0.82110  1.0000
  C   C2400     1.0  0.89821  0.89068  0.17890  1.0000
  H   H1345     1.0  0.43690  0.13100  0.14340  1.0000
  H   H1346     1.0  0.06310  0.86900  0.64340  1.0000
  H   H1347     1.0  0.56310  0.63100  0.35660  1.0000
  H   H1348     1.0  0.93690  0.36900  0.85660  1.0000
  H   H1349     1.0  0.14340  0.43690  0.13100  1.0000
  H   H1350     1.0  0.64340  0.06310  0.86900  1.0000
  H   H1351     1.0  0.35660  0.56310  0.63100  1.0000
  H   H1352     1.0  0.85660  0.93690  0.36900  1.0000
  H   H1353     1.0  0.13100  0.14340  0.43690  1.0000
  H   H1354     1.0  0.86900  0.64340  0.06310  1.0000
  H   H1355     1.0  0.63100  0.35660  0.56310  1.0000
  H   H1356     1.0  0.36900  0.85660  0.93690  1.0000
  H   H1357     1.0  0.88100  0.68690  0.10660  1.0000
  H   H1358     1.0  0.61900  0.31310  0.60660  1.0000
  H   H1359     1.0  0.38100  0.81310  0.89340  1.0000
  H   H1360     1.0  0.11900  0.18690  0.39340  1.0000
  H   H1361     1.0  0.18690  0.39340  0.11900  1.0000
  H   H1362     1.0  0.81310  0.89340  0.38100  1.0000
  H   H1363     1.0  0.31310  0.60660  0.61900  1.0000
  H   H1364     1.0  0.68690  0.10660  0.88100  1.0000
  H   H1365     1.0  0.89340  0.38100  0.81310  1.0000
  H   H1366     1.0  0.39340  0.11900  0.18690  1.0000
  H   H1367     1.0  0.10660  0.88100  0.68690  1.0000
  H   H1368     1.0  0.60660  0.61900  0.31310  1.0000
  H   H1369     1.0  0.93690  0.63100  0.64340  1.0000
  H   H1370     1.0  0.56310  0.36900  0.14340  1.0000
  H   H1371     1.0  0.06310  0.13100  0.85660  1.0000
  H   H1372     1.0  0.43690  0.86900  0.35660  1.0000
  H   H1373     1.0  0.64340  0.93690  0.63100  1.0000
  H   H1374     1.0  0.14340  0.56310  0.36900  1.0000
  H   H1375     1.0  0.85660  0.06310  0.13100  1.0000
  H   H1376     1.0  0.35660  0.43690  0.86900  1.0000
  H   H1377     1.0  0.63100  0.64340  0.93690  1.0000
  H   H1378     1.0  0.36900  0.14340  0.56310  1.0000
  H   H1379     1.0  0.13100  0.85660  0.06310  1.0000
  H   H1380     1.0  0.86900  0.35660  0.43690  1.0000
  H   H1381     1.0  0.38100  0.18690  0.60660  1.0000
  H   H1382     1.0  0.11900  0.81310  0.10660  1.0000
  H   H1383     1.0  0.88100  0.31310  0.39340  1.0000
  H   H1384     1.0  0.61900  0.68690  0.89340  1.0000
  H   H1385     1.0  0.68690  0.89340  0.61900  1.0000
  H   H1386     1.0  0.31310  0.39340  0.88100  1.0000
  H   H1387     1.0  0.81310  0.10660  0.11900  1.0000
  H   H1388     1.0  0.18690  0.60660  0.38100  1.0000
  H   H1389     1.0  0.39340  0.88100  0.31310  1.0000
  H   H1390     1.0  0.89340  0.61900  0.68690  1.0000
  H   H1391     1.0  0.60660  0.38100  0.18690  1.0000
  H   H1392     1.0  0.10660  0.11900  0.81310  1.0000
  H   H1393     1.0  0.56310  0.86900  0.85660  1.0000
  H   H1394     1.0  0.93690  0.13100  0.35660  1.0000
  H   H1395     1.0  0.43690  0.36900  0.64340  1.0000
  H   H1396     1.0  0.06310  0.63100  0.14340  1.0000
  H   H1397     1.0  0.85660  0.56310  0.86900  1.0000
  H   H1398     1.0  0.35660  0.93690  0.13100  1.0000
  H   H1399     1.0  0.64340  0.43690  0.36900  1.0000
  H   H1400     1.0  0.14340  0.06310  0.63100  1.0000
  H   H1401     1.0  0.86900  0.85660  0.56310  1.0000
  H   H1402     1.0  0.13100  0.35660  0.93690  1.0000
  H   H1403     1.0  0.36900  0.64340  0.43690  1.0000
  H   H1404     1.0  0.63100  0.14340  0.06310  1.0000
  H   H1405     1.0  0.11900  0.31310  0.89340  1.0000
  H   H1406     1.0  0.38100  0.68690  0.39340  1.0000
  H   H1407     1.0  0.61900  0.18690  0.10660  1.0000
  H   H1408     1.0  0.88100  0.81310  0.60660  1.0000
  H   H1409     1.0  0.81310  0.60660  0.88100  1.0000
  H   H1410     1.0  0.18690  0.10660  0.61900  1.0000
  H   H1411     1.0  0.68690  0.39340  0.38100  1.0000
  H   H1412     1.0  0.31310  0.89340  0.11900  1.0000
  H   H1413     1.0  0.10660  0.61900  0.18690  1.0000
  H   H1414     1.0  0.60660  0.88100  0.81310  1.0000
  H   H1415     1.0  0.89340  0.11900  0.31310  1.0000
  H   H1416     1.0  0.39340  0.38100  0.68690  1.0000
  H   H1417     1.0  0.06310  0.36900  0.35660  1.0000
  H   H1418     1.0  0.43690  0.63100  0.85660  1.0000
  H   H1419     1.0  0.93690  0.86900  0.14340  1.0000
  H   H1420     1.0  0.56310  0.13100  0.64340  1.0000
  H   H1421     1.0  0.35660  0.06310  0.36900  1.0000
  H   H1422     1.0  0.85660  0.43690  0.63100  1.0000
  H   H1423     1.0  0.14340  0.93690  0.86900  1.0000
  H   H1424     1.0  0.64340  0.56310  0.13100  1.0000
  H   H1425     1.0  0.36900  0.35660  0.06310  1.0000
  H   H1426     1.0  0.63100  0.85660  0.43690  1.0000
  H   H1427     1.0  0.86900  0.14340  0.93690  1.0000
  H   H1428     1.0  0.13100  0.64340  0.56310  1.0000
  H   H1429     1.0  0.61900  0.81310  0.39340  1.0000
  H   H1430     1.0  0.88100  0.18690  0.89340  1.0000
  H   H1431     1.0  0.11900  0.68690  0.60660  1.0000
  H   H1432     1.0  0.38100  0.31310  0.10660  1.0000
  H   H1433     1.0  0.31310  0.10660  0.38100  1.0000
  H   H1434     1.0  0.68690  0.60660  0.11900  1.0000
  H   H1435     1.0  0.18690  0.89340  0.88100  1.0000
  H   H1436     1.0  0.81310  0.39340  0.61900  1.0000
  H   H1437     1.0  0.60660  0.11900  0.68690  1.0000
  H   H1438     1.0  0.10660  0.38100  0.31310  1.0000
  H   H1439     1.0  0.39340  0.61900  0.81310  1.0000
  H   H1440     1.0  0.89340  0.88100  0.18690  1.0000
  C   C2401     1.0  0.43270  0.16000  0.14380  1.0000
  C   C2402     1.0  0.06730  0.84000  0.64380  1.0000
  C   C2403     1.0  0.56730  0.66000  0.35620  1.0000
  C   C2404     1.0  0.93270  0.34000  0.85620  1.0000
  C   C2405     1.0  0.14380  0.43270  0.16000  1.0000
  C   C2406     1.0  0.64380  0.06730  0.84000  1.0000
  C   C2407     1.0  0.35620  0.56730  0.66000  1.0000
  C   C2408     1.0  0.85620  0.93270  0.34000  1.0000
  C   C2409     1.0  0.16000  0.14380  0.43270  1.0000
  C   C2410     1.0  0.84000  0.64380  0.06730  1.0000
  C   C2411     1.0  0.66000  0.35620  0.56730  1.0000
  C   C2412     1.0  0.34000  0.85620  0.93270  1.0000
  C   C2413     1.0  0.91000  0.68270  0.10620  1.0000
  C   C2414     1.0  0.59000  0.31730  0.60620  1.0000
  C   C2415     1.0  0.41000  0.81730  0.89380  1.0000
  C   C2416     1.0  0.09000  0.18270  0.39380  1.0000
  C   C2417     1.0  0.18270  0.39380  0.09000  1.0000
  C   C2418     1.0  0.81730  0.89380  0.41000  1.0000
  C   C2419     1.0  0.31730  0.60620  0.59000  1.0000
  C   C2420     1.0  0.68270  0.10620  0.91000  1.0000
  C   C2421     1.0  0.89380  0.41000  0.81730  1.0000
  C   C2422     1.0  0.39380  0.09000  0.18270  1.0000
  C   C2423     1.0  0.10620  0.91000  0.68270  1.0000
  C   C2424     1.0  0.60620  0.59000  0.31730  1.0000
  C   C2425     1.0  0.93270  0.66000  0.64380  1.0000
  C   C2426     1.0  0.56730  0.34000  0.14380  1.0000
  C   C2427     1.0  0.06730  0.16000  0.85620  1.0000
  C   C2428     1.0  0.43270  0.84000  0.35620  1.0000
  C   C2429     1.0  0.64380  0.93270  0.66000  1.0000
  C   C2430     1.0  0.14380  0.56730  0.34000  1.0000
  C   C2431     1.0  0.85620  0.06730  0.16000  1.0000
  C   C2432     1.0  0.35620  0.43270  0.84000  1.0000
  C   C2433     1.0  0.66000  0.64380  0.93270  1.0000
  C   C2434     1.0  0.34000  0.14380  0.56730  1.0000
  C   C2435     1.0  0.16000  0.85620  0.06730  1.0000
  C   C2436     1.0  0.84000  0.35620  0.43270  1.0000
  C   C2437     1.0  0.41000  0.18270  0.60620  1.0000
  C   C2438     1.0  0.09000  0.81730  0.10620  1.0000
  C   C2439     1.0  0.91000  0.31730  0.39380  1.0000
  C   C2440     1.0  0.59000  0.68270  0.89380  1.0000
  C   C2441     1.0  0.68270  0.89380  0.59000  1.0000
  C   C2442     1.0  0.31730  0.39380  0.91000  1.0000
  C   C2443     1.0  0.81730  0.10620  0.09000  1.0000
  C   C2444     1.0  0.18270  0.60620  0.41000  1.0000
  C   C2445     1.0  0.39380  0.91000  0.31730  1.0000
  C   C2446     1.0  0.89380  0.59000  0.68270  1.0000
  C   C2447     1.0  0.60620  0.41000  0.18270  1.0000
  C   C2448     1.0  0.10620  0.09000  0.81730  1.0000
  C   C2449     1.0  0.56730  0.84000  0.85620  1.0000
  C   C2450     1.0  0.93270  0.16000  0.35620  1.0000
  C   C2451     1.0  0.43270  0.34000  0.64380  1.0000
  C   C2452     1.0  0.06730  0.66000  0.14380  1.0000
  C   C2453     1.0  0.85620  0.56730  0.84000  1.0000
  C   C2454     1.0  0.35620  0.93270  0.16000  1.0000
  C   C2455     1.0  0.64380  0.43270  0.34000  1.0000
  C   C2456     1.0  0.14380  0.06730  0.66000  1.0000
  C   C2457     1.0  0.84000  0.85620  0.56730  1.0000
  C   C2458     1.0  0.16000  0.35620  0.93270  1.0000
  C   C2459     1.0  0.34000  0.64380  0.43270  1.0000
  C   C2460     1.0  0.66000  0.14380  0.06730  1.0000
  C   C2461     1.0  0.09000  0.31730  0.89380  1.0000
  C   C2462     1.0  0.41000  0.68270  0.39380  1.0000
  C   C2463     1.0  0.59000  0.18270  0.10620  1.0000
  C   C2464     1.0  0.91000  0.81730  0.60620  1.0000
  C   C2465     1.0  0.81730  0.60620  0.91000  1.0000
  C   C2466     1.0  0.18270  0.10620  0.59000  1.0000
  C   C2467     1.0  0.68270  0.39380  0.41000  1.0000
  C   C2468     1.0  0.31730  0.89380  0.09000  1.0000
  C   C2469     1.0  0.10620  0.59000  0.18270  1.0000
  C   C2470     1.0  0.60620  0.91000  0.81730  1.0000
  C   C2471     1.0  0.89380  0.09000  0.31730  1.0000
  C   C2472     1.0  0.39380  0.41000  0.68270  1.0000
  C   C2473     1.0  0.06730  0.34000  0.35620  1.0000
  C   C2474     1.0  0.43270  0.66000  0.85620  1.0000
  C   C2475     1.0  0.93270  0.84000  0.14380  1.0000
  C   C2476     1.0  0.56730  0.16000  0.64380  1.0000
  C   C2477     1.0  0.35620  0.06730  0.34000  1.0000
  C   C2478     1.0  0.85620  0.43270  0.66000  1.0000
  C   C2479     1.0  0.14380  0.93270  0.84000  1.0000
  C   C2480     1.0  0.64380  0.56730  0.16000  1.0000
  C   C2481     1.0  0.34000  0.35620  0.06730  1.0000
  C   C2482     1.0  0.66000  0.85620  0.43270  1.0000
  C   C2483     1.0  0.84000  0.14380  0.93270  1.0000
  C   C2484     1.0  0.16000  0.64380  0.56730  1.0000
  C   C2485     1.0  0.59000  0.81730  0.39380  1.0000
  C   C2486     1.0  0.91000  0.18270  0.89380  1.0000
  C   C2487     1.0  0.09000  0.68270  0.60620  1.0000
  C   C2488     1.0  0.41000  0.31730  0.10620  1.0000
  C   C2489     1.0  0.31730  0.10620  0.41000  1.0000
  C   C2490     1.0  0.68270  0.60620  0.09000  1.0000
  C   C2491     1.0  0.18270  0.89380  0.91000  1.0000
  C   C2492     1.0  0.81730  0.39380  0.59000  1.0000
  C   C2493     1.0  0.60620  0.09000  0.68270  1.0000
  C   C2494     1.0  0.10620  0.41000  0.31730  1.0000
  C   C2495     1.0  0.39380  0.59000  0.81730  1.0000
  C   C2496     1.0  0.89380  0.91000  0.18270  1.0000
  H   H1441     1.0  0.44310  0.16320  0.13590  1.0000
  H   H1442     1.0  0.05690  0.83680  0.63590  1.0000
  H   H1443     1.0  0.55690  0.66320  0.36410  1.0000
  H   H1444     1.0  0.94310  0.33680  0.86410  1.0000
  H   H1445     1.0  0.13590  0.44310  0.16320  1.0000
  H   H1446     1.0  0.63590  0.05690  0.83680  1.0000
  H   H1447     1.0  0.36410  0.55690  0.66320  1.0000
  H   H1448     1.0  0.86410  0.94310  0.33680  1.0000
  H   H1449     1.0  0.16320  0.13590  0.44310  1.0000
  H   H1450     1.0  0.83680  0.63590  0.05690  1.0000
  H   H1451     1.0  0.66320  0.36410  0.55690  1.0000
  H   H1452     1.0  0.33680  0.86410  0.94310  1.0000
  H   H1453     1.0  0.91320  0.69310  0.11410  1.0000
  H   H1454     1.0  0.58680  0.30690  0.61410  1.0000
  H   H1455     1.0  0.41320  0.80690  0.88590  1.0000
  H   H1456     1.0  0.08680  0.19310  0.38590  1.0000
  H   H1457     1.0  0.19310  0.38590  0.08680  1.0000
  H   H1458     1.0  0.80690  0.88590  0.41320  1.0000
  H   H1459     1.0  0.30690  0.61410  0.58680  1.0000
  H   H1460     1.0  0.69310  0.11410  0.91320  1.0000
  H   H1461     1.0  0.88590  0.41320  0.80690  1.0000
  H   H1462     1.0  0.38590  0.08680  0.19310  1.0000
  H   H1463     1.0  0.11410  0.91320  0.69310  1.0000
  H   H1464     1.0  0.61410  0.58680  0.30690  1.0000
  H   H1465     1.0  0.94310  0.66320  0.63590  1.0000
  H   H1466     1.0  0.55690  0.33680  0.13590  1.0000
  H   H1467     1.0  0.05690  0.16320  0.86410  1.0000
  H   H1468     1.0  0.44310  0.83680  0.36410  1.0000
  H   H1469     1.0  0.63590  0.94310  0.66320  1.0000
  H   H1470     1.0  0.13590  0.55690  0.33680  1.0000
  H   H1471     1.0  0.86410  0.05690  0.16320  1.0000
  H   H1472     1.0  0.36410  0.44310  0.83680  1.0000
  H   H1473     1.0  0.66320  0.63590  0.94310  1.0000
  H   H1474     1.0  0.33680  0.13590  0.55690  1.0000
  H   H1475     1.0  0.16320  0.86410  0.05690  1.0000
  H   H1476     1.0  0.83680  0.36410  0.44310  1.0000
  H   H1477     1.0  0.41320  0.19310  0.61410  1.0000
  H   H1478     1.0  0.08680  0.80690  0.11410  1.0000
  H   H1479     1.0  0.91320  0.30690  0.38590  1.0000
  H   H1480     1.0  0.58680  0.69310  0.88590  1.0000
  H   H1481     1.0  0.69310  0.88590  0.58680  1.0000
  H   H1482     1.0  0.30690  0.38590  0.91320  1.0000
  H   H1483     1.0  0.80690  0.11410  0.08680  1.0000
  H   H1484     1.0  0.19310  0.61410  0.41320  1.0000
  H   H1485     1.0  0.38590  0.91320  0.30690  1.0000
  H   H1486     1.0  0.88590  0.58680  0.69310  1.0000
  H   H1487     1.0  0.61410  0.41320  0.19310  1.0000
  H   H1488     1.0  0.11410  0.08680  0.80690  1.0000
  H   H1489     1.0  0.55690  0.83680  0.86410  1.0000
  H   H1490     1.0  0.94310  0.16320  0.36410  1.0000
  H   H1491     1.0  0.44310  0.33680  0.63590  1.0000
  H   H1492     1.0  0.05690  0.66320  0.13590  1.0000
  H   H1493     1.0  0.86410  0.55690  0.83680  1.0000
  H   H1494     1.0  0.36410  0.94310  0.16320  1.0000
  H   H1495     1.0  0.63590  0.44310  0.33680  1.0000
  H   H1496     1.0  0.13590  0.05690  0.66320  1.0000
  H   H1497     1.0  0.83680  0.86410  0.55690  1.0000
  H   H1498     1.0  0.16320  0.36410  0.94310  1.0000
  H   H1499     1.0  0.33680  0.63590  0.44310  1.0000
  H   H1500     1.0  0.66320  0.13590  0.05690  1.0000
  H   H1501     1.0  0.08680  0.30690  0.88590  1.0000
  H   H1502     1.0  0.41320  0.69310  0.38590  1.0000
  H   H1503     1.0  0.58680  0.19310  0.11410  1.0000
  H   H1504     1.0  0.91320  0.80690  0.61410  1.0000
  H   H1505     1.0  0.80690  0.61410  0.91320  1.0000
  H   H1506     1.0  0.19310  0.11410  0.58680  1.0000
  H   H1507     1.0  0.69310  0.38590  0.41320  1.0000
  H   H1508     1.0  0.30690  0.88590  0.08680  1.0000
  H   H1509     1.0  0.11410  0.58680  0.19310  1.0000
  H   H1510     1.0  0.61410  0.91320  0.80690  1.0000
  H   H1511     1.0  0.88590  0.08680  0.30690  1.0000
  H   H1512     1.0  0.38590  0.41320  0.69310  1.0000
  H   H1513     1.0  0.05690  0.33680  0.36410  1.0000
  H   H1514     1.0  0.44310  0.66320  0.86410  1.0000
  H   H1515     1.0  0.94310  0.83680  0.13590  1.0000
  H   H1516     1.0  0.55690  0.16320  0.63590  1.0000
  H   H1517     1.0  0.36410  0.05690  0.33680  1.0000
  H   H1518     1.0  0.86410  0.44310  0.66320  1.0000
  H   H1519     1.0  0.13590  0.94310  0.83680  1.0000
  H   H1520     1.0  0.63590  0.55690  0.16320  1.0000
  H   H1521     1.0  0.33680  0.36410  0.05690  1.0000
  H   H1522     1.0  0.66320  0.86410  0.44310  1.0000
  H   H1523     1.0  0.83680  0.13590  0.94310  1.0000
  H   H1524     1.0  0.16320  0.63590  0.55690  1.0000
  H   H1525     1.0  0.58680  0.80690  0.38590  1.0000
  H   H1526     1.0  0.91320  0.19310  0.88590  1.0000
  H   H1527     1.0  0.08680  0.69310  0.61410  1.0000
  H   H1528     1.0  0.41320  0.30690  0.11410  1.0000
  H   H1529     1.0  0.30690  0.11410  0.41320  1.0000
  H   H1530     1.0  0.69310  0.61410  0.08680  1.0000
  H   H1531     1.0  0.19310  0.88590  0.91320  1.0000
  H   H1532     1.0  0.80690  0.38590  0.58680  1.0000
  H   H1533     1.0  0.61410  0.08680  0.69310  1.0000
  H   H1534     1.0  0.11410  0.41320  0.30690  1.0000
  H   H1535     1.0  0.38590  0.58680  0.80690  1.0000
  H   H1536     1.0  0.88590  0.91320  0.19310  1.0000
