data_image0
_chemical_formula_structural       Sm24C144H48C48H48C144H48C144H144N48H48O240
_chemical_formula_sum              "Sm24 C480 H336 N48 O240"
_cell_length_a       26.6581
_cell_length_b       26.6581
_cell_length_c       26.6581
_cell_angle_alpha    90
_cell_angle_beta     90
_cell_angle_gamma    90

_space_group_name_H-M_alt    "P 1"
_space_group_IT_number       1

loop_
  _space_group_symop_operation_xyz
  'x, y, z'

loop_
  _atom_site_type_symbol
  _atom_site_label
  _atom_site_symmetry_multiplicity
  _atom_site_fract_x
  _atom_site_fract_y
  _atom_site_fract_z
  _atom_site_occupancy
  Sm  Sm1       1.0  0.75000  0.25000  0.25000  1.0000
  Sm  Sm2       1.0  0.75000  0.75000  0.75000  1.0000
  Sm  Sm3       1.0  0.25000  0.75000  0.25000  1.0000
  Sm  Sm4       1.0  0.25000  0.25000  0.75000  1.0000
  Sm  Sm5       1.0  0.25000  0.75000  0.75000  1.0000
  Sm  Sm6       1.0  0.25000  0.25000  0.25000  1.0000
  Sm  Sm7       1.0  0.75000  0.25000  0.75000  1.0000
  Sm  Sm8       1.0  0.75000  0.75000  0.25000  1.0000
  Sm  Sm9       1.0  0.66585  0.16585  0.33415  1.0000
  Sm  Sm10      1.0  0.83415  0.83415  0.83415  1.0000
  Sm  Sm11      1.0  0.33415  0.66585  0.16585  1.0000
  Sm  Sm12      1.0  0.16585  0.33415  0.66585  1.0000
  Sm  Sm13      1.0  0.16585  0.66585  0.83415  1.0000
  Sm  Sm14      1.0  0.33415  0.33415  0.33415  1.0000
  Sm  Sm15      1.0  0.83415  0.16585  0.66585  1.0000
  Sm  Sm16      1.0  0.66585  0.83415  0.16585  1.0000
  Sm  Sm17      1.0  0.33415  0.83415  0.66585  1.0000
  Sm  Sm18      1.0  0.16585  0.16585  0.16585  1.0000
  Sm  Sm19      1.0  0.66585  0.33415  0.83415  1.0000
  Sm  Sm20      1.0  0.83415  0.66585  0.33415  1.0000
  Sm  Sm21      1.0  0.83415  0.33415  0.16585  1.0000
  Sm  Sm22      1.0  0.66585  0.66585  0.66585  1.0000
  Sm  Sm23      1.0  0.16585  0.83415  0.33415  1.0000
  Sm  Sm24      1.0  0.33415  0.16585  0.83415  1.0000
  C   C1        1.0  0.64109  0.27045  0.26560  1.0000
  C   C2        1.0  0.85891  0.72955  0.76560  1.0000
  C   C3        1.0  0.35891  0.77045  0.23440  1.0000
  C   C4        1.0  0.14109  0.22955  0.73440  1.0000
  C   C5        1.0  0.26560  0.64109  0.27045  1.0000
  C   C6        1.0  0.76560  0.85891  0.72955  1.0000
  C   C7        1.0  0.23440  0.35891  0.77045  1.0000
  C   C8        1.0  0.73440  0.14109  0.22955  1.0000
  C   C9        1.0  0.27045  0.26560  0.64109  1.0000
  C   C10       1.0  0.72955  0.76560  0.85891  1.0000
  C   C11       1.0  0.77045  0.23440  0.35891  1.0000
  C   C12       1.0  0.22955  0.73440  0.14109  1.0000
  C   C13       1.0  0.14109  0.77045  0.76560  1.0000
  C   C14       1.0  0.35891  0.22955  0.26560  1.0000
  C   C15       1.0  0.85891  0.27045  0.73440  1.0000
  C   C16       1.0  0.64109  0.72955  0.23440  1.0000
  C   C17       1.0  0.76560  0.14109  0.77045  1.0000
  C   C18       1.0  0.26560  0.35891  0.22955  1.0000
  C   C19       1.0  0.73440  0.85891  0.27045  1.0000
  C   C20       1.0  0.23440  0.64109  0.72955  1.0000
  C   C21       1.0  0.77045  0.76560  0.14109  1.0000
  C   C22       1.0  0.22955  0.26560  0.35891  1.0000
  C   C23       1.0  0.27045  0.73440  0.85891  1.0000
  C   C24       1.0  0.72955  0.23440  0.64109  1.0000
  C   C25       1.0  0.35891  0.72955  0.73440  1.0000
  C   C26       1.0  0.14109  0.27045  0.23440  1.0000
  C   C27       1.0  0.64109  0.22955  0.76560  1.0000
  C   C28       1.0  0.85891  0.77045  0.26560  1.0000
  C   C29       1.0  0.73440  0.35891  0.72955  1.0000
  C   C30       1.0  0.23440  0.14109  0.27045  1.0000
  C   C31       1.0  0.76560  0.64109  0.22955  1.0000
  C   C32       1.0  0.26560  0.85891  0.77045  1.0000
  C   C33       1.0  0.72955  0.73440  0.35891  1.0000
  C   C34       1.0  0.27045  0.23440  0.14109  1.0000
  C   C35       1.0  0.22955  0.76560  0.64109  1.0000
  C   C36       1.0  0.77045  0.26560  0.85891  1.0000
  C   C37       1.0  0.85891  0.22955  0.23440  1.0000
  C   C38       1.0  0.64109  0.77045  0.73440  1.0000
  C   C39       1.0  0.14109  0.72955  0.26560  1.0000
  C   C40       1.0  0.35891  0.27045  0.76560  1.0000
  C   C41       1.0  0.23440  0.85891  0.22955  1.0000
  C   C42       1.0  0.73440  0.64109  0.77045  1.0000
  C   C43       1.0  0.26560  0.14109  0.72955  1.0000
  C   C44       1.0  0.76560  0.35891  0.27045  1.0000
  C   C45       1.0  0.22955  0.23440  0.85891  1.0000
  C   C46       1.0  0.77045  0.73440  0.64109  1.0000
  C   C47       1.0  0.72955  0.26560  0.14109  1.0000
  C   C48       1.0  0.27045  0.76560  0.35891  1.0000
  C   C49       1.0  0.58922  0.28896  0.27690  1.0000
  C   C50       1.0  0.91078  0.71104  0.77690  1.0000
  C   C51       1.0  0.41078  0.78896  0.22310  1.0000
  C   C52       1.0  0.08922  0.21104  0.72310  1.0000
  C   C53       1.0  0.27690  0.58922  0.28896  1.0000
  C   C54       1.0  0.77690  0.91078  0.71104  1.0000
  C   C55       1.0  0.22310  0.41078  0.78896  1.0000
  C   C56       1.0  0.72310  0.08922  0.21104  1.0000
  C   C57       1.0  0.28896  0.27690  0.58922  1.0000
  C   C58       1.0  0.71104  0.77690  0.91078  1.0000
  C   C59       1.0  0.78896  0.22310  0.41078  1.0000
  C   C60       1.0  0.21104  0.72310  0.08922  1.0000
  C   C61       1.0  0.08922  0.78896  0.77690  1.0000
  C   C62       1.0  0.41078  0.21104  0.27690  1.0000
  C   C63       1.0  0.91078  0.28896  0.72310  1.0000
  C   C64       1.0  0.58922  0.71104  0.22310  1.0000
  C   C65       1.0  0.77690  0.08922  0.78896  1.0000
  C   C66       1.0  0.27690  0.41078  0.21104  1.0000
  C   C67       1.0  0.72310  0.91078  0.28896  1.0000
  C   C68       1.0  0.22310  0.58922  0.71104  1.0000
  C   C69       1.0  0.78896  0.77690  0.08922  1.0000
  C   C70       1.0  0.21104  0.27690  0.41078  1.0000
  C   C71       1.0  0.28896  0.72310  0.91078  1.0000
  C   C72       1.0  0.71104  0.22310  0.58922  1.0000
  C   C73       1.0  0.41078  0.71104  0.72310  1.0000
  C   C74       1.0  0.08922  0.28896  0.22310  1.0000
  C   C75       1.0  0.58922  0.21104  0.77690  1.0000
  C   C76       1.0  0.91078  0.78896  0.27690  1.0000
  C   C77       1.0  0.72310  0.41078  0.71104  1.0000
  C   C78       1.0  0.22310  0.08922  0.28896  1.0000
  C   C79       1.0  0.77690  0.58922  0.21104  1.0000
  C   C80       1.0  0.27690  0.91078  0.78896  1.0000
  C   C81       1.0  0.71104  0.72310  0.41078  1.0000
  C   C82       1.0  0.28896  0.22310  0.08922  1.0000
  C   C83       1.0  0.21104  0.77690  0.58922  1.0000
  C   C84       1.0  0.78896  0.27690  0.91078  1.0000
  C   C85       1.0  0.91078  0.21104  0.22310  1.0000
  C   C86       1.0  0.58922  0.78896  0.72310  1.0000
  C   C87       1.0  0.08922  0.71104  0.27690  1.0000
  C   C88       1.0  0.41078  0.28896  0.77690  1.0000
  C   C89       1.0  0.22310  0.91078  0.21104  1.0000
  C   C90       1.0  0.72310  0.58922  0.78896  1.0000
  C   C91       1.0  0.27690  0.08922  0.71104  1.0000
  C   C92       1.0  0.77690  0.41078  0.28896  1.0000
  C   C93       1.0  0.21104  0.22310  0.91078  1.0000
  C   C94       1.0  0.78896  0.72310  0.58922  1.0000
  C   C95       1.0  0.71104  0.27690  0.08922  1.0000
  C   C96       1.0  0.28896  0.77690  0.41078  1.0000
  C   C97       1.0  0.57428  0.29320  0.32600  1.0000
  C   C98       1.0  0.92572  0.70680  0.82600  1.0000
  C   C99       1.0  0.42572  0.79320  0.17400  1.0000
  C   C100      1.0  0.07428  0.20680  0.67400  1.0000
  C   C101      1.0  0.32600  0.57428  0.29320  1.0000
  C   C102      1.0  0.82600  0.92572  0.70680  1.0000
  C   C103      1.0  0.17400  0.42572  0.79320  1.0000
  C   C104      1.0  0.67400  0.07428  0.20680  1.0000
  C   C105      1.0  0.29320  0.32600  0.57428  1.0000
  C   C106      1.0  0.70680  0.82600  0.92572  1.0000
  C   C107      1.0  0.79320  0.17400  0.42572  1.0000
  C   C108      1.0  0.20680  0.67400  0.07428  1.0000
  C   C109      1.0  0.07428  0.79320  0.82600  1.0000
  C   C110      1.0  0.42572  0.20680  0.32600  1.0000
  C   C111      1.0  0.92572  0.29320  0.67400  1.0000
  C   C112      1.0  0.57428  0.70680  0.17400  1.0000
  C   C113      1.0  0.82600  0.07428  0.79320  1.0000
  C   C114      1.0  0.32600  0.42572  0.20680  1.0000
  C   C115      1.0  0.67400  0.92572  0.29320  1.0000
  C   C116      1.0  0.17400  0.57428  0.70680  1.0000
  C   C117      1.0  0.79320  0.82600  0.07428  1.0000
  C   C118      1.0  0.20680  0.32600  0.42572  1.0000
  C   C119      1.0  0.29320  0.67400  0.92572  1.0000
  C   C120      1.0  0.70680  0.17400  0.57428  1.0000
  C   C121      1.0  0.42572  0.70680  0.67400  1.0000
  C   C122      1.0  0.07428  0.29320  0.17400  1.0000
  C   C123      1.0  0.57428  0.20680  0.82600  1.0000
  C   C124      1.0  0.92572  0.79320  0.32600  1.0000
  C   C125      1.0  0.67400  0.42572  0.70680  1.0000
  C   C126      1.0  0.17400  0.07428  0.29320  1.0000
  C   C127      1.0  0.82600  0.57428  0.20680  1.0000
  C   C128      1.0  0.32600  0.92572  0.79320  1.0000
  C   C129      1.0  0.70680  0.67400  0.42572  1.0000
  C   C130      1.0  0.29320  0.17400  0.07428  1.0000
  C   C131      1.0  0.20680  0.82600  0.57428  1.0000
  C   C132      1.0  0.79320  0.32600  0.92572  1.0000
  C   C133      1.0  0.92572  0.20680  0.17400  1.0000
  C   C134      1.0  0.57428  0.79320  0.67400  1.0000
  C   C135      1.0  0.07428  0.70680  0.32600  1.0000
  C   C136      1.0  0.42572  0.29320  0.82600  1.0000
  C   C137      1.0  0.17400  0.92572  0.20680  1.0000
  C   C138      1.0  0.67400  0.57428  0.79320  1.0000
  C   C139      1.0  0.32600  0.07428  0.70680  1.0000
  C   C140      1.0  0.82600  0.42572  0.29320  1.0000
  C   C141      1.0  0.20680  0.17400  0.92572  1.0000
  C   C142      1.0  0.79320  0.67400  0.57428  1.0000
  C   C143      1.0  0.70680  0.32600  0.07428  1.0000
  C   C144      1.0  0.29320  0.82600  0.42572  1.0000
  H   H1        1.0  0.59690  0.28560  0.35150  1.0000
  H   H2        1.0  0.90310  0.71440  0.85150  1.0000
  H   H3        1.0  0.40310  0.78560  0.14850  1.0000
  H   H4        1.0  0.09690  0.21440  0.64850  1.0000
  H   H5        1.0  0.35150  0.59690  0.28560  1.0000
  H   H6        1.0  0.85150  0.90310  0.71440  1.0000
  H   H7        1.0  0.14850  0.40310  0.78560  1.0000
  H   H8        1.0  0.64850  0.09690  0.21440  1.0000
  H   H9        1.0  0.28560  0.35150  0.59690  1.0000
  H   H10       1.0  0.71440  0.85150  0.90310  1.0000
  H   H11       1.0  0.78560  0.14850  0.40310  1.0000
  H   H12       1.0  0.21440  0.64850  0.09690  1.0000
  H   H13       1.0  0.09690  0.78560  0.85150  1.0000
  H   H14       1.0  0.40310  0.21440  0.35150  1.0000
  H   H15       1.0  0.90310  0.28560  0.64850  1.0000
  H   H16       1.0  0.59690  0.71440  0.14850  1.0000
  H   H17       1.0  0.85150  0.09690  0.78560  1.0000
  H   H18       1.0  0.35150  0.40310  0.21440  1.0000
  H   H19       1.0  0.64850  0.90310  0.28560  1.0000
  H   H20       1.0  0.14850  0.59690  0.71440  1.0000
  H   H21       1.0  0.78560  0.85150  0.09690  1.0000
  H   H22       1.0  0.21440  0.35150  0.40310  1.0000
  H   H23       1.0  0.28560  0.64850  0.90310  1.0000
  H   H24       1.0  0.71440  0.14850  0.59690  1.0000
  H   H25       1.0  0.40310  0.71440  0.64850  1.0000
  H   H26       1.0  0.09690  0.28560  0.14850  1.0000
  H   H27       1.0  0.59690  0.21440  0.85150  1.0000
  H   H28       1.0  0.90310  0.78560  0.35150  1.0000
  H   H29       1.0  0.64850  0.40310  0.71440  1.0000
  H   H30       1.0  0.14850  0.09690  0.28560  1.0000
  H   H31       1.0  0.85150  0.59690  0.21440  1.0000
  H   H32       1.0  0.35150  0.90310  0.78560  1.0000
  H   H33       1.0  0.71440  0.64850  0.40310  1.0000
  H   H34       1.0  0.28560  0.14850  0.09690  1.0000
  H   H35       1.0  0.21440  0.85150  0.59690  1.0000
  H   H36       1.0  0.78560  0.35150  0.90310  1.0000
  H   H37       1.0  0.90310  0.21440  0.14850  1.0000
  H   H38       1.0  0.59690  0.78560  0.64850  1.0000
  H   H39       1.0  0.09690  0.71440  0.35150  1.0000
  H   H40       1.0  0.40310  0.28560  0.85150  1.0000
  H   H41       1.0  0.14850  0.90310  0.21440  1.0000
  H   H42       1.0  0.64850  0.59690  0.78560  1.0000
  H   H43       1.0  0.35150  0.09690  0.71440  1.0000
  H   H44       1.0  0.85150  0.40310  0.28560  1.0000
  H   H45       1.0  0.21440  0.14850  0.90310  1.0000
  H   H46       1.0  0.78560  0.64850  0.59690  1.0000
  H   H47       1.0  0.71440  0.35150  0.09690  1.0000
  H   H48       1.0  0.28560  0.85150  0.40310  1.0000
  C   C145      1.0  0.52570  0.30880  0.33840  1.0000
  C   C146      1.0  0.97430  0.69120  0.83840  1.0000
  C   C147      1.0  0.47430  0.80880  0.16160  1.0000
  C   C148      1.0  0.02570  0.19120  0.66160  1.0000
  C   C149      1.0  0.33840  0.52570  0.30880  1.0000
  C   C150      1.0  0.83840  0.97430  0.69120  1.0000
  C   C151      1.0  0.16160  0.47430  0.80880  1.0000
  C   C152      1.0  0.66160  0.02570  0.19120  1.0000
  C   C153      1.0  0.30880  0.33840  0.52570  1.0000
  C   C154      1.0  0.69120  0.83840  0.97430  1.0000
  C   C155      1.0  0.80880  0.16160  0.47430  1.0000
  C   C156      1.0  0.19120  0.66160  0.02570  1.0000
  C   C157      1.0  0.02570  0.80880  0.83840  1.0000
  C   C158      1.0  0.47430  0.19120  0.33840  1.0000
  C   C159      1.0  0.97430  0.30880  0.66160  1.0000
  C   C160      1.0  0.52570  0.69120  0.16160  1.0000
  C   C161      1.0  0.83840  0.02570  0.80880  1.0000
  C   C162      1.0  0.33840  0.47430  0.19120  1.0000
  C   C163      1.0  0.66160  0.97430  0.30880  1.0000
  C   C164      1.0  0.16160  0.52570  0.69120  1.0000
  C   C165      1.0  0.80880  0.83840  0.02570  1.0000
  C   C166      1.0  0.19120  0.33840  0.47430  1.0000
  C   C167      1.0  0.30880  0.66160  0.97430  1.0000
  C   C168      1.0  0.69120  0.16160  0.52570  1.0000
  C   C169      1.0  0.47430  0.69120  0.66160  1.0000
  C   C170      1.0  0.02570  0.30880  0.16160  1.0000
  C   C171      1.0  0.52570  0.19120  0.83840  1.0000
  C   C172      1.0  0.97430  0.80880  0.33840  1.0000
  C   C173      1.0  0.66160  0.47430  0.69120  1.0000
  C   C174      1.0  0.16160  0.02570  0.30880  1.0000
  C   C175      1.0  0.83840  0.52570  0.19120  1.0000
  C   C176      1.0  0.33840  0.97430  0.80880  1.0000
  C   C177      1.0  0.69120  0.66160  0.47430  1.0000
  C   C178      1.0  0.30880  0.16160  0.02570  1.0000
  C   C179      1.0  0.19120  0.83840  0.52570  1.0000
  C   C180      1.0  0.80880  0.33840  0.97430  1.0000
  C   C181      1.0  0.97430  0.19120  0.16160  1.0000
  C   C182      1.0  0.52570  0.80880  0.66160  1.0000
  C   C183      1.0  0.02570  0.69120  0.33840  1.0000
  C   C184      1.0  0.47430  0.30880  0.83840  1.0000
  C   C185      1.0  0.16160  0.97430  0.19120  1.0000
  C   C186      1.0  0.66160  0.52570  0.80880  1.0000
  C   C187      1.0  0.33840  0.02570  0.69120  1.0000
  C   C188      1.0  0.83840  0.47430  0.30880  1.0000
  C   C189      1.0  0.19120  0.16160  0.97430  1.0000
  C   C190      1.0  0.80880  0.66160  0.52570  1.0000
  C   C191      1.0  0.69120  0.33840  0.02570  1.0000
  C   C192      1.0  0.30880  0.83840  0.47430  1.0000
  H   H49       1.0  0.51640  0.31290  0.37180  1.0000
  H   H50       1.0  0.98360  0.68710  0.87180  1.0000
  H   H51       1.0  0.48360  0.81290  0.12820  1.0000
  H   H52       1.0  0.01640  0.18710  0.62820  1.0000
  H   H53       1.0  0.37180  0.51640  0.31290  1.0000
  H   H54       1.0  0.87180  0.98360  0.68710  1.0000
  H   H55       1.0  0.12820  0.48360  0.81290  1.0000
  H   H56       1.0  0.62820  0.01640  0.18710  1.0000
  H   H57       1.0  0.31290  0.37180  0.51640  1.0000
  H   H58       1.0  0.68710  0.87180  0.98360  1.0000
  H   H59       1.0  0.81290  0.12820  0.48360  1.0000
  H   H60       1.0  0.18710  0.62820  0.01640  1.0000
  H   H61       1.0  0.01640  0.81290  0.87180  1.0000
  H   H62       1.0  0.48360  0.18710  0.37180  1.0000
  H   H63       1.0  0.98360  0.31290  0.62820  1.0000
  H   H64       1.0  0.51640  0.68710  0.12820  1.0000
  H   H65       1.0  0.87180  0.01640  0.81290  1.0000
  H   H66       1.0  0.37180  0.48360  0.18710  1.0000
  H   H67       1.0  0.62820  0.98360  0.31290  1.0000
  H   H68       1.0  0.12820  0.51640  0.68710  1.0000
  H   H69       1.0  0.81290  0.87180  0.01640  1.0000
  H   H70       1.0  0.18710  0.37180  0.48360  1.0000
  H   H71       1.0  0.31290  0.62820  0.98360  1.0000
  H   H72       1.0  0.68710  0.12820  0.51640  1.0000
  H   H73       1.0  0.48360  0.68710  0.62820  1.0000
  H   H74       1.0  0.01640  0.31290  0.12820  1.0000
  H   H75       1.0  0.51640  0.18710  0.87180  1.0000
  H   H76       1.0  0.98360  0.81290  0.37180  1.0000
  H   H77       1.0  0.62820  0.48360  0.68710  1.0000
  H   H78       1.0  0.12820  0.01640  0.31290  1.0000
  H   H79       1.0  0.87180  0.51640  0.18710  1.0000
  H   H80       1.0  0.37180  0.98360  0.81290  1.0000
  H   H81       1.0  0.68710  0.62820  0.48360  1.0000
  H   H82       1.0  0.31290  0.12820  0.01640  1.0000
  H   H83       1.0  0.18710  0.87180  0.51640  1.0000
  H   H84       1.0  0.81290  0.37180  0.98360  1.0000
  H   H85       1.0  0.98360  0.18710  0.12820  1.0000
  H   H86       1.0  0.51640  0.81290  0.62820  1.0000
  H   H87       1.0  0.01640  0.68710  0.37180  1.0000
  H   H88       1.0  0.48360  0.31290  0.87180  1.0000
  H   H89       1.0  0.12820  0.98360  0.18710  1.0000
  H   H90       1.0  0.62820  0.51640  0.81290  1.0000
  H   H91       1.0  0.37180  0.01640  0.68710  1.0000
  H   H92       1.0  0.87180  0.48360  0.31290  1.0000
  H   H93       1.0  0.18710  0.12820  0.98360  1.0000
  H   H94       1.0  0.81290  0.62820  0.51640  1.0000
  H   H95       1.0  0.68710  0.37180  0.01640  1.0000
  H   H96       1.0  0.31290  0.87180  0.48360  1.0000
  C   C193      1.0  0.49134  0.31801  0.29970  1.0000
  C   C194      1.0  0.00866  0.68199  0.79970  1.0000
  C   C195      1.0  0.50866  0.81801  0.20030  1.0000
  C   C196      1.0  0.99134  0.18199  0.70030  1.0000
  C   C197      1.0  0.29970  0.49134  0.31801  1.0000
  C   C198      1.0  0.79970  0.00866  0.68199  1.0000
  C   C199      1.0  0.20030  0.50866  0.81801  1.0000
  C   C200      1.0  0.70030  0.99134  0.18199  1.0000
  C   C201      1.0  0.31801  0.29970  0.49134  1.0000
  C   C202      1.0  0.68199  0.79970  0.00866  1.0000
  C   C203      1.0  0.81801  0.20030  0.50866  1.0000
  C   C204      1.0  0.18199  0.70030  0.99134  1.0000
  C   C205      1.0  0.99134  0.81801  0.79970  1.0000
  C   C206      1.0  0.50866  0.18199  0.29970  1.0000
  C   C207      1.0  0.00866  0.31801  0.70030  1.0000
  C   C208      1.0  0.49134  0.68199  0.20030  1.0000
  C   C209      1.0  0.79970  0.99134  0.81801  1.0000
  C   C210      1.0  0.29970  0.50866  0.18199  1.0000
  C   C211      1.0  0.70030  0.00866  0.31801  1.0000
  C   C212      1.0  0.20030  0.49134  0.68199  1.0000
  C   C213      1.0  0.81801  0.79970  0.99134  1.0000
  C   C214      1.0  0.18199  0.29970  0.50866  1.0000
  C   C215      1.0  0.31801  0.70030  0.00866  1.0000
  C   C216      1.0  0.68199  0.20030  0.49134  1.0000
  C   C217      1.0  0.50866  0.68199  0.70030  1.0000
  C   C218      1.0  0.99134  0.31801  0.20030  1.0000
  C   C219      1.0  0.49134  0.18199  0.79970  1.0000
  C   C220      1.0  0.00866  0.81801  0.29970  1.0000
  C   C221      1.0  0.70030  0.50866  0.68199  1.0000
  C   C222      1.0  0.20030  0.99134  0.31801  1.0000
  C   C223      1.0  0.79970  0.49134  0.18199  1.0000
  C   C224      1.0  0.29970  0.00866  0.81801  1.0000
  C   C225      1.0  0.68199  0.70030  0.50866  1.0000
  C   C226      1.0  0.31801  0.20030  0.99134  1.0000
  C   C227      1.0  0.18199  0.79970  0.49134  1.0000
  C   C228      1.0  0.81801  0.29970  0.00866  1.0000
  C   C229      1.0  0.00866  0.18199  0.20030  1.0000
  C   C230      1.0  0.49134  0.81801  0.70030  1.0000
  C   C231      1.0  0.99134  0.68199  0.29970  1.0000
  C   C232      1.0  0.50866  0.31801  0.79970  1.0000
  C   C233      1.0  0.20030  0.00866  0.18199  1.0000
  C   C234      1.0  0.70030  0.49134  0.81801  1.0000
  C   C235      1.0  0.29970  0.99134  0.68199  1.0000
  C   C236      1.0  0.79970  0.50866  0.31801  1.0000
  C   C237      1.0  0.18199  0.20030  0.00866  1.0000
  C   C238      1.0  0.81801  0.70030  0.49134  1.0000
  C   C239      1.0  0.68199  0.29970  0.99134  1.0000
  C   C240      1.0  0.31801  0.79970  0.50866  1.0000
  C   C241      1.0  0.43820  0.32869  0.31170  1.0000
  C   C242      1.0  0.06180  0.67131  0.81170  1.0000
  C   C243      1.0  0.56180  0.82869  0.18830  1.0000
  C   C244      1.0  0.93820  0.17131  0.68830  1.0000
  C   C245      1.0  0.31170  0.43820  0.32869  1.0000
  C   C246      1.0  0.81170  0.06180  0.67131  1.0000
  C   C247      1.0  0.18830  0.56180  0.82869  1.0000
  C   C248      1.0  0.68830  0.93820  0.17131  1.0000
  C   C249      1.0  0.32869  0.31170  0.43820  1.0000
  C   C250      1.0  0.67131  0.81170  0.06180  1.0000
  C   C251      1.0  0.82869  0.18830  0.56180  1.0000
  C   C252      1.0  0.17131  0.68830  0.93820  1.0000
  C   C253      1.0  0.93820  0.82869  0.81170  1.0000
  C   C254      1.0  0.56180  0.17131  0.31170  1.0000
  C   C255      1.0  0.06180  0.32869  0.68830  1.0000
  C   C256      1.0  0.43820  0.67131  0.18830  1.0000
  C   C257      1.0  0.81170  0.93820  0.82869  1.0000
  C   C258      1.0  0.31170  0.56180  0.17131  1.0000
  C   C259      1.0  0.68830  0.06180  0.32869  1.0000
  C   C260      1.0  0.18830  0.43820  0.67131  1.0000
  C   C261      1.0  0.82869  0.81170  0.93820  1.0000
  C   C262      1.0  0.17131  0.31170  0.56180  1.0000
  C   C263      1.0  0.32869  0.68830  0.06180  1.0000
  C   C264      1.0  0.67131  0.18830  0.43820  1.0000
  C   C265      1.0  0.56180  0.67131  0.68830  1.0000
  C   C266      1.0  0.93820  0.32869  0.18830  1.0000
  C   C267      1.0  0.43820  0.17131  0.81170  1.0000
  C   C268      1.0  0.06180  0.82869  0.31170  1.0000
  C   C269      1.0  0.68830  0.56180  0.67131  1.0000
  C   C270      1.0  0.18830  0.93820  0.32869  1.0000
  C   C271      1.0  0.81170  0.43820  0.17131  1.0000
  C   C272      1.0  0.31170  0.06180  0.82869  1.0000
  C   C273      1.0  0.67131  0.68830  0.56180  1.0000
  C   C274      1.0  0.32869  0.18830  0.93820  1.0000
  C   C275      1.0  0.17131  0.81170  0.43820  1.0000
  C   C276      1.0  0.82869  0.31170  0.06180  1.0000
  C   C277      1.0  0.06180  0.17131  0.18830  1.0000
  C   C278      1.0  0.43820  0.82869  0.68830  1.0000
  C   C279      1.0  0.93820  0.67131  0.31170  1.0000
  C   C280      1.0  0.56180  0.32869  0.81170  1.0000
  C   C281      1.0  0.18830  0.06180  0.17131  1.0000
  C   C282      1.0  0.68830  0.43820  0.82869  1.0000
  C   C283      1.0  0.31170  0.93820  0.67131  1.0000
  C   C284      1.0  0.81170  0.56180  0.32869  1.0000
  C   C285      1.0  0.17131  0.18830  0.06180  1.0000
  C   C286      1.0  0.82869  0.68830  0.43820  1.0000
  C   C287      1.0  0.67131  0.31170  0.93820  1.0000
  C   C288      1.0  0.32869  0.81170  0.56180  1.0000
  C   C289      1.0  0.50690  0.31410  0.24890  1.0000
  C   C290      1.0  0.99310  0.68590  0.74890  1.0000
  C   C291      1.0  0.49310  0.81410  0.25110  1.0000
  C   C292      1.0  0.00690  0.18590  0.75110  1.0000
  C   C293      1.0  0.24890  0.50690  0.31410  1.0000
  C   C294      1.0  0.74890  0.99310  0.68590  1.0000
  C   C295      1.0  0.25110  0.49310  0.81410  1.0000
  C   C296      1.0  0.75110  0.00690  0.18590  1.0000
  C   C297      1.0  0.31410  0.24890  0.50690  1.0000
  C   C298      1.0  0.68590  0.74890  0.99310  1.0000
  C   C299      1.0  0.81410  0.25110  0.49310  1.0000
  C   C300      1.0  0.18590  0.75110  0.00690  1.0000
  C   C301      1.0  0.00690  0.81410  0.74890  1.0000
  C   C302      1.0  0.49310  0.18590  0.24890  1.0000
  C   C303      1.0  0.99310  0.31410  0.75110  1.0000
  C   C304      1.0  0.50690  0.68590  0.25110  1.0000
  C   C305      1.0  0.74890  0.00690  0.81410  1.0000
  C   C306      1.0  0.24890  0.49310  0.18590  1.0000
  C   C307      1.0  0.75110  0.99310  0.31410  1.0000
  C   C308      1.0  0.25110  0.50690  0.68590  1.0000
  C   C309      1.0  0.81410  0.74890  0.00690  1.0000
  C   C310      1.0  0.18590  0.24890  0.49310  1.0000
  C   C311      1.0  0.31410  0.75110  0.99310  1.0000
  C   C312      1.0  0.68590  0.25110  0.50690  1.0000
  C   C313      1.0  0.49310  0.68590  0.75110  1.0000
  C   C314      1.0  0.00690  0.31410  0.25110  1.0000
  C   C315      1.0  0.50690  0.18590  0.74890  1.0000
  C   C316      1.0  0.99310  0.81410  0.24890  1.0000
  C   C317      1.0  0.75110  0.49310  0.68590  1.0000
  C   C318      1.0  0.25110  0.00690  0.31410  1.0000
  C   C319      1.0  0.74890  0.50690  0.18590  1.0000
  C   C320      1.0  0.24890  0.99310  0.81410  1.0000
  C   C321      1.0  0.68590  0.75110  0.49310  1.0000
  C   C322      1.0  0.31410  0.25110  0.00690  1.0000
  C   C323      1.0  0.18590  0.74890  0.50690  1.0000
  C   C324      1.0  0.81410  0.24890  0.99310  1.0000
  C   C325      1.0  0.99310  0.18590  0.25110  1.0000
  C   C326      1.0  0.50690  0.81410  0.75110  1.0000
  C   C327      1.0  0.00690  0.68590  0.24890  1.0000
  C   C328      1.0  0.49310  0.31410  0.74890  1.0000
  C   C329      1.0  0.25110  0.99310  0.18590  1.0000
  C   C330      1.0  0.75110  0.50690  0.81410  1.0000
  C   C331      1.0  0.24890  0.00690  0.68590  1.0000
  C   C332      1.0  0.74890  0.49310  0.31410  1.0000
  C   C333      1.0  0.18590  0.25110  0.99310  1.0000
  C   C334      1.0  0.81410  0.75110  0.50690  1.0000
  C   C335      1.0  0.68590  0.24890  0.00690  1.0000
  C   C336      1.0  0.31410  0.74890  0.49310  1.0000
  H   H97       1.0  0.48450  0.32100  0.22310  1.0000
  H   H98       1.0  0.01550  0.67900  0.72310  1.0000
  H   H99       1.0  0.51550  0.82100  0.27690  1.0000
  H   H100      1.0  0.98450  0.17900  0.77690  1.0000
  H   H101      1.0  0.22310  0.48450  0.32100  1.0000
  H   H102      1.0  0.72310  0.01550  0.67900  1.0000
  H   H103      1.0  0.27690  0.51550  0.82100  1.0000
  H   H104      1.0  0.77690  0.98450  0.17900  1.0000
  H   H105      1.0  0.32100  0.22310  0.48450  1.0000
  H   H106      1.0  0.67900  0.72310  0.01550  1.0000
  H   H107      1.0  0.82100  0.27690  0.51550  1.0000
  H   H108      1.0  0.17900  0.77690  0.98450  1.0000
  H   H109      1.0  0.98450  0.82100  0.72310  1.0000
  H   H110      1.0  0.51550  0.17900  0.22310  1.0000
  H   H111      1.0  0.01550  0.32100  0.77690  1.0000
  H   H112      1.0  0.48450  0.67900  0.27690  1.0000
  H   H113      1.0  0.72310  0.98450  0.82100  1.0000
  H   H114      1.0  0.22310  0.51550  0.17900  1.0000
  H   H115      1.0  0.77690  0.01550  0.32100  1.0000
  H   H116      1.0  0.27690  0.48450  0.67900  1.0000
  H   H117      1.0  0.82100  0.72310  0.98450  1.0000
  H   H118      1.0  0.17900  0.22310  0.51550  1.0000
  H   H119      1.0  0.32100  0.77690  0.01550  1.0000
  H   H120      1.0  0.67900  0.27690  0.48450  1.0000
  H   H121      1.0  0.51550  0.67900  0.77690  1.0000
  H   H122      1.0  0.98450  0.32100  0.27690  1.0000
  H   H123      1.0  0.48450  0.17900  0.72310  1.0000
  H   H124      1.0  0.01550  0.82100  0.22310  1.0000
  H   H125      1.0  0.77690  0.51550  0.67900  1.0000
  H   H126      1.0  0.27690  0.98450  0.32100  1.0000
  H   H127      1.0  0.72310  0.48450  0.17900  1.0000
  H   H128      1.0  0.22310  0.01550  0.82100  1.0000
  H   H129      1.0  0.67900  0.77690  0.51550  1.0000
  H   H130      1.0  0.32100  0.27690  0.98450  1.0000
  H   H131      1.0  0.17900  0.72310  0.48450  1.0000
  H   H132      1.0  0.82100  0.22310  0.01550  1.0000
  H   H133      1.0  0.01550  0.17900  0.27690  1.0000
  H   H134      1.0  0.48450  0.82100  0.77690  1.0000
  H   H135      1.0  0.98450  0.67900  0.22310  1.0000
  H   H136      1.0  0.51550  0.32100  0.72310  1.0000
  H   H137      1.0  0.27690  0.01550  0.17900  1.0000
  H   H138      1.0  0.77690  0.48450  0.82100  1.0000
  H   H139      1.0  0.22310  0.98450  0.67900  1.0000
  H   H140      1.0  0.72310  0.51550  0.32100  1.0000
  H   H141      1.0  0.17900  0.27690  0.01550  1.0000
  H   H142      1.0  0.82100  0.77690  0.48450  1.0000
  H   H143      1.0  0.67900  0.22310  0.98450  1.0000
  H   H144      1.0  0.32100  0.72310  0.51550  1.0000
  C   C337      1.0  0.55580  0.29990  0.23810  1.0000
  C   C338      1.0  0.94420  0.70010  0.73810  1.0000
  C   C339      1.0  0.44420  0.79990  0.26190  1.0000
  C   C340      1.0  0.05580  0.20010  0.76190  1.0000
  C   C341      1.0  0.23810  0.55580  0.29990  1.0000
  C   C342      1.0  0.73810  0.94420  0.70010  1.0000
  C   C343      1.0  0.26190  0.44420  0.79990  1.0000
  C   C344      1.0  0.76190  0.05580  0.20010  1.0000
  C   C345      1.0  0.29990  0.23810  0.55580  1.0000
  C   C346      1.0  0.70010  0.73810  0.94420  1.0000
  C   C347      1.0  0.79990  0.26190  0.44420  1.0000
  C   C348      1.0  0.20010  0.76190  0.05580  1.0000
  C   C349      1.0  0.05580  0.79990  0.73810  1.0000
  C   C350      1.0  0.44420  0.20010  0.23810  1.0000
  C   C351      1.0  0.94420  0.29990  0.76190  1.0000
  C   C352      1.0  0.55580  0.70010  0.26190  1.0000
  C   C353      1.0  0.73810  0.05580  0.79990  1.0000
  C   C354      1.0  0.23810  0.44420  0.20010  1.0000
  C   C355      1.0  0.76190  0.94420  0.29990  1.0000
  C   C356      1.0  0.26190  0.55580  0.70010  1.0000
  C   C357      1.0  0.79990  0.73810  0.05580  1.0000
  C   C358      1.0  0.20010  0.23810  0.44420  1.0000
  C   C359      1.0  0.29990  0.76190  0.94420  1.0000
  C   C360      1.0  0.70010  0.26190  0.55580  1.0000
  C   C361      1.0  0.44420  0.70010  0.76190  1.0000
  C   C362      1.0  0.05580  0.29990  0.26190  1.0000
  C   C363      1.0  0.55580  0.20010  0.73810  1.0000
  C   C364      1.0  0.94420  0.79990  0.23810  1.0000
  C   C365      1.0  0.76190  0.44420  0.70010  1.0000
  C   C366      1.0  0.26190  0.05580  0.29990  1.0000
  C   C367      1.0  0.73810  0.55580  0.20010  1.0000
  C   C368      1.0  0.23810  0.94420  0.79990  1.0000
  C   C369      1.0  0.70010  0.76190  0.44420  1.0000
  C   C370      1.0  0.29990  0.26190  0.05580  1.0000
  C   C371      1.0  0.20010  0.73810  0.55580  1.0000
  C   C372      1.0  0.79990  0.23810  0.94420  1.0000
  C   C373      1.0  0.94420  0.20010  0.26190  1.0000
  C   C374      1.0  0.55580  0.79990  0.76190  1.0000
  C   C375      1.0  0.05580  0.70010  0.23810  1.0000
  C   C376      1.0  0.44420  0.29990  0.73810  1.0000
  C   C377      1.0  0.26190  0.94420  0.20010  1.0000
  C   C378      1.0  0.76190  0.55580  0.79990  1.0000
  C   C379      1.0  0.23810  0.05580  0.70010  1.0000
  C   C380      1.0  0.73810  0.44420  0.29990  1.0000
  C   C381      1.0  0.20010  0.26190  0.94420  1.0000
  C   C382      1.0  0.79990  0.76190  0.55580  1.0000
  C   C383      1.0  0.70010  0.23810  0.05580  1.0000
  C   C384      1.0  0.29990  0.73810  0.44420  1.0000
  C   C385      1.0  0.54240  0.30350  0.14140  1.0000
  C   C386      1.0  0.95760  0.69650  0.64140  1.0000
  C   C387      1.0  0.45760  0.80350  0.35860  1.0000
  C   C388      1.0  0.04240  0.19650  0.85860  1.0000
  C   C389      1.0  0.14140  0.54240  0.30350  1.0000
  C   C390      1.0  0.64140  0.95760  0.69650  1.0000
  C   C391      1.0  0.35860  0.45760  0.80350  1.0000
  C   C392      1.0  0.85860  0.04240  0.19650  1.0000
  C   C393      1.0  0.30350  0.14140  0.54240  1.0000
  C   C394      1.0  0.69650  0.64140  0.95760  1.0000
  C   C395      1.0  0.80350  0.35860  0.45760  1.0000
  C   C396      1.0  0.19650  0.85860  0.04240  1.0000
  C   C397      1.0  0.04240  0.80350  0.64140  1.0000
  C   C398      1.0  0.45760  0.19650  0.14140  1.0000
  C   C399      1.0  0.95760  0.30350  0.85860  1.0000
  C   C400      1.0  0.54240  0.69650  0.35860  1.0000
  C   C401      1.0  0.64140  0.04240  0.80350  1.0000
  C   C402      1.0  0.14140  0.45760  0.19650  1.0000
  C   C403      1.0  0.85860  0.95760  0.30350  1.0000
  C   C404      1.0  0.35860  0.54240  0.69650  1.0000
  C   C405      1.0  0.80350  0.64140  0.04240  1.0000
  C   C406      1.0  0.19650  0.14140  0.45760  1.0000
  C   C407      1.0  0.30350  0.85860  0.95760  1.0000
  C   C408      1.0  0.69650  0.35860  0.54240  1.0000
  C   C409      1.0  0.45760  0.69650  0.85860  1.0000
  C   C410      1.0  0.04240  0.30350  0.35860  1.0000
  C   C411      1.0  0.54240  0.19650  0.64140  1.0000
  C   C412      1.0  0.95760  0.80350  0.14140  1.0000
  C   C413      1.0  0.85860  0.45760  0.69650  1.0000
  C   C414      1.0  0.35860  0.04240  0.30350  1.0000
  C   C415      1.0  0.64140  0.54240  0.19650  1.0000
  C   C416      1.0  0.14140  0.95760  0.80350  1.0000
  C   C417      1.0  0.69650  0.85860  0.45760  1.0000
  C   C418      1.0  0.30350  0.35860  0.04240  1.0000
  C   C419      1.0  0.19650  0.64140  0.54240  1.0000
  C   C420      1.0  0.80350  0.14140  0.95760  1.0000
  C   C421      1.0  0.95760  0.19650  0.35860  1.0000
  C   C422      1.0  0.54240  0.80350  0.85860  1.0000
  C   C423      1.0  0.04240  0.69650  0.14140  1.0000
  C   C424      1.0  0.45760  0.30350  0.64140  1.0000
  C   C425      1.0  0.35860  0.95760  0.19650  1.0000
  C   C426      1.0  0.85860  0.54240  0.80350  1.0000
  C   C427      1.0  0.14140  0.04240  0.69650  1.0000
  C   C428      1.0  0.64140  0.45760  0.30350  1.0000
  C   C429      1.0  0.19650  0.35860  0.95760  1.0000
  C   C430      1.0  0.80350  0.85860  0.54240  1.0000
  C   C431      1.0  0.69650  0.14140  0.04240  1.0000
  C   C432      1.0  0.30350  0.64140  0.45760  1.0000
  C   C433      1.0  0.57410  0.30100  0.09410  1.0000
  C   C434      1.0  0.92590  0.69900  0.59410  1.0000
  C   C435      1.0  0.42590  0.80100  0.40590  1.0000
  C   C436      1.0  0.07410  0.19900  0.90590  1.0000
  C   C437      1.0  0.09410  0.57410  0.30100  1.0000
  C   C438      1.0  0.59410  0.92590  0.69900  1.0000
  C   C439      1.0  0.40590  0.42590  0.80100  1.0000
  C   C440      1.0  0.90590  0.07410  0.19900  1.0000
  C   C441      1.0  0.30100  0.09410  0.57410  1.0000
  C   C442      1.0  0.69900  0.59410  0.92590  1.0000
  C   C443      1.0  0.80100  0.40590  0.42590  1.0000
  C   C444      1.0  0.19900  0.90590  0.07410  1.0000
  C   C445      1.0  0.07410  0.80100  0.59410  1.0000
  C   C446      1.0  0.42590  0.19900  0.09410  1.0000
  C   C447      1.0  0.92590  0.30100  0.90590  1.0000
  C   C448      1.0  0.57410  0.69900  0.40590  1.0000
  C   C449      1.0  0.59410  0.07410  0.80100  1.0000
  C   C450      1.0  0.09410  0.42590  0.19900  1.0000
  C   C451      1.0  0.90590  0.92590  0.30100  1.0000
  C   C452      1.0  0.40590  0.57410  0.69900  1.0000
  C   C453      1.0  0.80100  0.59410  0.07410  1.0000
  C   C454      1.0  0.19900  0.09410  0.42590  1.0000
  C   C455      1.0  0.30100  0.90590  0.92590  1.0000
  C   C456      1.0  0.69900  0.40590  0.57410  1.0000
  C   C457      1.0  0.42590  0.69900  0.90590  1.0000
  C   C458      1.0  0.07410  0.30100  0.40590  1.0000
  C   C459      1.0  0.57410  0.19900  0.59410  1.0000
  C   C460      1.0  0.92590  0.80100  0.09410  1.0000
  C   C461      1.0  0.90590  0.42590  0.69900  1.0000
  C   C462      1.0  0.40590  0.07410  0.30100  1.0000
  C   C463      1.0  0.59410  0.57410  0.19900  1.0000
  C   C464      1.0  0.09410  0.92590  0.80100  1.0000
  C   C465      1.0  0.69900  0.90590  0.42590  1.0000
  C   C466      1.0  0.30100  0.40590  0.07410  1.0000
  C   C467      1.0  0.19900  0.59410  0.57410  1.0000
  C   C468      1.0  0.80100  0.09410  0.92590  1.0000
  C   C469      1.0  0.92590  0.19900  0.40590  1.0000
  C   C470      1.0  0.57410  0.80100  0.90590  1.0000
  C   C471      1.0  0.07410  0.69900  0.09410  1.0000
  C   C472      1.0  0.42590  0.30100  0.59410  1.0000
  C   C473      1.0  0.40590  0.92590  0.19900  1.0000
  C   C474      1.0  0.90590  0.57410  0.80100  1.0000
  C   C475      1.0  0.09410  0.07410  0.69900  1.0000
  C   C476      1.0  0.59410  0.42590  0.30100  1.0000
  C   C477      1.0  0.19900  0.40590  0.92590  1.0000
  C   C478      1.0  0.80100  0.90590  0.57410  1.0000
  C   C479      1.0  0.69900  0.09410  0.07410  1.0000
  C   C480      1.0  0.30100  0.59410  0.42590  1.0000
  H   H145      1.0  0.59420  0.27110  0.09460  1.0000
  H   H146      1.0  0.90580  0.72890  0.59460  1.0000
  H   H147      1.0  0.40580  0.77110  0.40540  1.0000
  H   H148      1.0  0.09420  0.22890  0.90540  1.0000
  H   H149      1.0  0.09460  0.59420  0.27110  1.0000
  H   H150      1.0  0.59460  0.90580  0.72890  1.0000
  H   H151      1.0  0.40540  0.40580  0.77110  1.0000
  H   H152      1.0  0.90540  0.09420  0.22890  1.0000
  H   H153      1.0  0.27110  0.09460  0.59420  1.0000
  H   H154      1.0  0.72890  0.59460  0.90580  1.0000
  H   H155      1.0  0.77110  0.40540  0.40580  1.0000
  H   H156      1.0  0.22890  0.90540  0.09420  1.0000
  H   H157      1.0  0.09420  0.77110  0.59460  1.0000
  H   H158      1.0  0.40580  0.22890  0.09460  1.0000
  H   H159      1.0  0.90580  0.27110  0.90540  1.0000
  H   H160      1.0  0.59420  0.72890  0.40540  1.0000
  H   H161      1.0  0.59460  0.09420  0.77110  1.0000
  H   H162      1.0  0.09460  0.40580  0.22890  1.0000
  H   H163      1.0  0.90540  0.90580  0.27110  1.0000
  H   H164      1.0  0.40540  0.59420  0.72890  1.0000
  H   H165      1.0  0.77110  0.59460  0.09420  1.0000
  H   H166      1.0  0.22890  0.09460  0.40580  1.0000
  H   H167      1.0  0.27110  0.90540  0.90580  1.0000
  H   H168      1.0  0.72890  0.40540  0.59420  1.0000
  H   H169      1.0  0.40580  0.72890  0.90540  1.0000
  H   H170      1.0  0.09420  0.27110  0.40540  1.0000
  H   H171      1.0  0.59420  0.22890  0.59460  1.0000
  H   H172      1.0  0.90580  0.77110  0.09460  1.0000
  H   H173      1.0  0.90540  0.40580  0.72890  1.0000
  H   H174      1.0  0.40540  0.09420  0.27110  1.0000
  H   H175      1.0  0.59460  0.59420  0.22890  1.0000
  H   H176      1.0  0.09460  0.90580  0.77110  1.0000
  H   H177      1.0  0.72890  0.90540  0.40580  1.0000
  H   H178      1.0  0.27110  0.40540  0.09420  1.0000
  H   H179      1.0  0.22890  0.59460  0.59420  1.0000
  H   H180      1.0  0.77110  0.09460  0.90580  1.0000
  H   H181      1.0  0.90580  0.22890  0.40540  1.0000
  H   H182      1.0  0.59420  0.77110  0.90540  1.0000
  H   H183      1.0  0.09420  0.72890  0.09460  1.0000
  H   H184      1.0  0.40580  0.27110  0.59460  1.0000
  H   H185      1.0  0.40540  0.90580  0.22890  1.0000
  H   H186      1.0  0.90540  0.59420  0.77110  1.0000
  H   H187      1.0  0.09460  0.09420  0.72890  1.0000
  H   H188      1.0  0.59460  0.40580  0.27110  1.0000
  H   H189      1.0  0.22890  0.40540  0.90580  1.0000
  H   H190      1.0  0.77110  0.90540  0.59420  1.0000
  H   H191      1.0  0.72890  0.09460  0.09420  1.0000
  H   H192      1.0  0.27110  0.59460  0.40580  1.0000
  H   H193      1.0  0.59560  0.32990  0.09260  1.0000
  H   H194      1.0  0.90440  0.67010  0.59260  1.0000
  H   H195      1.0  0.40440  0.82990  0.40740  1.0000
  H   H196      1.0  0.09560  0.17010  0.90740  1.0000
  H   H197      1.0  0.09260  0.59560  0.32990  1.0000
  H   H198      1.0  0.59260  0.90440  0.67010  1.0000
  H   H199      1.0  0.40740  0.40440  0.82990  1.0000
  H   H200      1.0  0.90740  0.09560  0.17010  1.0000
  H   H201      1.0  0.32990  0.09260  0.59560  1.0000
  H   H202      1.0  0.67010  0.59260  0.90440  1.0000
  H   H203      1.0  0.82990  0.40740  0.40440  1.0000
  H   H204      1.0  0.17010  0.90740  0.09560  1.0000
  H   H205      1.0  0.09560  0.82990  0.59260  1.0000
  H   H206      1.0  0.40440  0.17010  0.09260  1.0000
  H   H207      1.0  0.90440  0.32990  0.90740  1.0000
  H   H208      1.0  0.59560  0.67010  0.40740  1.0000
  H   H209      1.0  0.59260  0.09560  0.82990  1.0000
  H   H210      1.0  0.09260  0.40440  0.17010  1.0000
  H   H211      1.0  0.90740  0.90440  0.32990  1.0000
  H   H212      1.0  0.40740  0.59560  0.67010  1.0000
  H   H213      1.0  0.82990  0.59260  0.09560  1.0000
  H   H214      1.0  0.17010  0.09260  0.40440  1.0000
  H   H215      1.0  0.32990  0.90740  0.90440  1.0000
  H   H216      1.0  0.67010  0.40740  0.59560  1.0000
  H   H217      1.0  0.40440  0.67010  0.90740  1.0000
  H   H218      1.0  0.09560  0.32990  0.40740  1.0000
  H   H219      1.0  0.59560  0.17010  0.59260  1.0000
  H   H220      1.0  0.90440  0.82990  0.09260  1.0000
  H   H221      1.0  0.90740  0.40440  0.67010  1.0000
  H   H222      1.0  0.40740  0.09560  0.32990  1.0000
  H   H223      1.0  0.59260  0.59560  0.17010  1.0000
  H   H224      1.0  0.09260  0.90440  0.82990  1.0000
  H   H225      1.0  0.67010  0.90740  0.40440  1.0000
  H   H226      1.0  0.32990  0.40740  0.09560  1.0000
  H   H227      1.0  0.17010  0.59260  0.59560  1.0000
  H   H228      1.0  0.82990  0.09260  0.90440  1.0000
  H   H229      1.0  0.90440  0.17010  0.40740  1.0000
  H   H230      1.0  0.59560  0.82990  0.90740  1.0000
  H   H231      1.0  0.09560  0.67010  0.09260  1.0000
  H   H232      1.0  0.40440  0.32990  0.59260  1.0000
  H   H233      1.0  0.40740  0.90440  0.17010  1.0000
  H   H234      1.0  0.90740  0.59560  0.82990  1.0000
  H   H235      1.0  0.09260  0.09560  0.67010  1.0000
  H   H236      1.0  0.59260  0.40440  0.32990  1.0000
  H   H237      1.0  0.17010  0.40740  0.90440  1.0000
  H   H238      1.0  0.82990  0.90740  0.59560  1.0000
  H   H239      1.0  0.67010  0.09260  0.09560  1.0000
  H   H240      1.0  0.32990  0.59260  0.40440  1.0000
  H   H241      1.0  0.55260  0.30060  0.06530  1.0000
  H   H242      1.0  0.94740  0.69940  0.56530  1.0000
  H   H243      1.0  0.44740  0.80060  0.43470  1.0000
  H   H244      1.0  0.05260  0.19940  0.93470  1.0000
  H   H245      1.0  0.06530  0.55260  0.30060  1.0000
  H   H246      1.0  0.56530  0.94740  0.69940  1.0000
  H   H247      1.0  0.43470  0.44740  0.80060  1.0000
  H   H248      1.0  0.93470  0.05260  0.19940  1.0000
  H   H249      1.0  0.30060  0.06530  0.55260  1.0000
  H   H250      1.0  0.69940  0.56530  0.94740  1.0000
  H   H251      1.0  0.80060  0.43470  0.44740  1.0000
  H   H252      1.0  0.19940  0.93470  0.05260  1.0000
  H   H253      1.0  0.05260  0.80060  0.56530  1.0000
  H   H254      1.0  0.44740  0.19940  0.06530  1.0000
  H   H255      1.0  0.94740  0.30060  0.93470  1.0000
  H   H256      1.0  0.55260  0.69940  0.43470  1.0000
  H   H257      1.0  0.56530  0.05260  0.80060  1.0000
  H   H258      1.0  0.06530  0.44740  0.19940  1.0000
  H   H259      1.0  0.93470  0.94740  0.30060  1.0000
  H   H260      1.0  0.43470  0.55260  0.69940  1.0000
  H   H261      1.0  0.80060  0.56530  0.05260  1.0000
  H   H262      1.0  0.19940  0.06530  0.44740  1.0000
  H   H263      1.0  0.30060  0.93470  0.94740  1.0000
  H   H264      1.0  0.69940  0.43470  0.55260  1.0000
  H   H265      1.0  0.44740  0.69940  0.93470  1.0000
  H   H266      1.0  0.05260  0.30060  0.43470  1.0000
  H   H267      1.0  0.55260  0.19940  0.56530  1.0000
  H   H268      1.0  0.94740  0.80060  0.06530  1.0000
  H   H269      1.0  0.93470  0.44740  0.69940  1.0000
  H   H270      1.0  0.43470  0.05260  0.30060  1.0000
  H   H271      1.0  0.56530  0.55260  0.19940  1.0000
  H   H272      1.0  0.06530  0.94740  0.80060  1.0000
  H   H273      1.0  0.69940  0.93470  0.44740  1.0000
  H   H274      1.0  0.30060  0.43470  0.05260  1.0000
  H   H275      1.0  0.19940  0.56530  0.55260  1.0000
  H   H276      1.0  0.80060  0.06530  0.94740  1.0000
  H   H277      1.0  0.94740  0.19940  0.43470  1.0000
  H   H278      1.0  0.55260  0.80060  0.93470  1.0000
  H   H279      1.0  0.05260  0.69940  0.06530  1.0000
  H   H280      1.0  0.44740  0.30060  0.56530  1.0000
  H   H281      1.0  0.43470  0.94740  0.19940  1.0000
  H   H282      1.0  0.93470  0.55260  0.80060  1.0000
  H   H283      1.0  0.06530  0.05260  0.69940  1.0000
  H   H284      1.0  0.56530  0.44740  0.30060  1.0000
  H   H285      1.0  0.19940  0.43470  0.94740  1.0000
  H   H286      1.0  0.80060  0.93470  0.55260  1.0000
  H   H287      1.0  0.69940  0.06530  0.05260  1.0000
  H   H288      1.0  0.30060  0.56530  0.44740  1.0000
  N   N1        1.0  0.56970  0.29760  0.18830  1.0000
  N   N2        1.0  0.93030  0.70240  0.68830  1.0000
  N   N3        1.0  0.43030  0.79760  0.31170  1.0000
  N   N4        1.0  0.06970  0.20240  0.81170  1.0000
  N   N5        1.0  0.18830  0.56970  0.29760  1.0000
  N   N6        1.0  0.68830  0.93030  0.70240  1.0000
  N   N7        1.0  0.31170  0.43030  0.79760  1.0000
  N   N8        1.0  0.81170  0.06970  0.20240  1.0000
  N   N9        1.0  0.29760  0.18830  0.56970  1.0000
  N   N10       1.0  0.70240  0.68830  0.93030  1.0000
  N   N11       1.0  0.79760  0.31170  0.43030  1.0000
  N   N12       1.0  0.20240  0.81170  0.06970  1.0000
  N   N13       1.0  0.06970  0.79760  0.68830  1.0000
  N   N14       1.0  0.43030  0.20240  0.18830  1.0000
  N   N15       1.0  0.93030  0.29760  0.81170  1.0000
  N   N16       1.0  0.56970  0.70240  0.31170  1.0000
  N   N17       1.0  0.68830  0.06970  0.79760  1.0000
  N   N18       1.0  0.18830  0.43030  0.20240  1.0000
  N   N19       1.0  0.81170  0.93030  0.29760  1.0000
  N   N20       1.0  0.31170  0.56970  0.70240  1.0000
  N   N21       1.0  0.79760  0.68830  0.06970  1.0000
  N   N22       1.0  0.20240  0.18830  0.43030  1.0000
  N   N23       1.0  0.29760  0.81170  0.93030  1.0000
  N   N24       1.0  0.70240  0.31170  0.56970  1.0000
  N   N25       1.0  0.43030  0.70240  0.81170  1.0000
  N   N26       1.0  0.06970  0.29760  0.31170  1.0000
  N   N27       1.0  0.56970  0.20240  0.68830  1.0000
  N   N28       1.0  0.93030  0.79760  0.18830  1.0000
  N   N29       1.0  0.81170  0.43030  0.70240  1.0000
  N   N30       1.0  0.31170  0.06970  0.29760  1.0000
  N   N31       1.0  0.68830  0.56970  0.20240  1.0000
  N   N32       1.0  0.18830  0.93030  0.79760  1.0000
  N   N33       1.0  0.70240  0.81170  0.43030  1.0000
  N   N34       1.0  0.29760  0.31170  0.06970  1.0000
  N   N35       1.0  0.20240  0.68830  0.56970  1.0000
  N   N36       1.0  0.79760  0.18830  0.93030  1.0000
  N   N37       1.0  0.93030  0.20240  0.31170  1.0000
  N   N38       1.0  0.56970  0.79760  0.81170  1.0000
  N   N39       1.0  0.06970  0.70240  0.18830  1.0000
  N   N40       1.0  0.43030  0.29760  0.68830  1.0000
  N   N41       1.0  0.31170  0.93030  0.20240  1.0000
  N   N42       1.0  0.81170  0.56970  0.79760  1.0000
  N   N43       1.0  0.18830  0.06970  0.70240  1.0000
  N   N44       1.0  0.68830  0.43030  0.29760  1.0000
  N   N45       1.0  0.20240  0.31170  0.93030  1.0000
  N   N46       1.0  0.79760  0.81170  0.56970  1.0000
  N   N47       1.0  0.70240  0.18830  0.06970  1.0000
  N   N48       1.0  0.29760  0.68830  0.43030  1.0000
  H   H289      1.0  0.60110  0.29150  0.18410  1.0000
  H   H290      1.0  0.89890  0.70850  0.68410  1.0000
  H   H291      1.0  0.39890  0.79150  0.31590  1.0000
  H   H292      1.0  0.10110  0.20850  0.81590  1.0000
  H   H293      1.0  0.18410  0.60110  0.29150  1.0000
  H   H294      1.0  0.68410  0.89890  0.70850  1.0000
  H   H295      1.0  0.31590  0.39890  0.79150  1.0000
  H   H296      1.0  0.81590  0.10110  0.20850  1.0000
  H   H297      1.0  0.29150  0.18410  0.60110  1.0000
  H   H298      1.0  0.70850  0.68410  0.89890  1.0000
  H   H299      1.0  0.79150  0.31590  0.39890  1.0000
  H   H300      1.0  0.20850  0.81590  0.10110  1.0000
  H   H301      1.0  0.10110  0.79150  0.68410  1.0000
  H   H302      1.0  0.39890  0.20850  0.18410  1.0000
  H   H303      1.0  0.89890  0.29150  0.81590  1.0000
  H   H304      1.0  0.60110  0.70850  0.31590  1.0000
  H   H305      1.0  0.68410  0.10110  0.79150  1.0000
  H   H306      1.0  0.18410  0.39890  0.20850  1.0000
  H   H307      1.0  0.81590  0.89890  0.29150  1.0000
  H   H308      1.0  0.31590  0.60110  0.70850  1.0000
  H   H309      1.0  0.79150  0.68410  0.10110  1.0000
  H   H310      1.0  0.20850  0.18410  0.39890  1.0000
  H   H311      1.0  0.29150  0.81590  0.89890  1.0000
  H   H312      1.0  0.70850  0.31590  0.60110  1.0000
  H   H313      1.0  0.39890  0.70850  0.81590  1.0000
  H   H314      1.0  0.10110  0.29150  0.31590  1.0000
  H   H315      1.0  0.60110  0.20850  0.68410  1.0000
  H   H316      1.0  0.89890  0.79150  0.18410  1.0000
  H   H317      1.0  0.81590  0.39890  0.70850  1.0000
  H   H318      1.0  0.31590  0.10110  0.29150  1.0000
  H   H319      1.0  0.68410  0.60110  0.20850  1.0000
  H   H320      1.0  0.18410  0.89890  0.79150  1.0000
  H   H321      1.0  0.70850  0.81590  0.39890  1.0000
  H   H322      1.0  0.29150  0.31590  0.10110  1.0000
  H   H323      1.0  0.20850  0.68410  0.60110  1.0000
  H   H324      1.0  0.79150  0.18410  0.89890  1.0000
  H   H325      1.0  0.89890  0.20850  0.31590  1.0000
  H   H326      1.0  0.60110  0.79150  0.81590  1.0000
  H   H327      1.0  0.10110  0.70850  0.18410  1.0000
  H   H328      1.0  0.39890  0.29150  0.68410  1.0000
  H   H329      1.0  0.31590  0.89890  0.20850  1.0000
  H   H330      1.0  0.81590  0.60110  0.79150  1.0000
  H   H331      1.0  0.18410  0.10110  0.70850  1.0000
  H   H332      1.0  0.68410  0.39890  0.29150  1.0000
  H   H333      1.0  0.20850  0.31590  0.89890  1.0000
  H   H334      1.0  0.79150  0.81590  0.60110  1.0000
  H   H335      1.0  0.70850  0.18410  0.10110  1.0000
  H   H336      1.0  0.29150  0.68410  0.39890  1.0000
  O   O1        1.0  0.65945  0.27441  0.22279  1.0000
  O   O2        1.0  0.84055  0.72559  0.72279  1.0000
  O   O3        1.0  0.34055  0.77441  0.27721  1.0000
  O   O4        1.0  0.15945  0.22559  0.77721  1.0000
  O   O5        1.0  0.22279  0.65945  0.27441  1.0000
  O   O6        1.0  0.72279  0.84055  0.72559  1.0000
  O   O7        1.0  0.27721  0.34055  0.77441  1.0000
  O   O8        1.0  0.77721  0.15945  0.22559  1.0000
  O   O9        1.0  0.27441  0.22279  0.65945  1.0000
  O   O10       1.0  0.72559  0.72279  0.84055  1.0000
  O   O11       1.0  0.77441  0.27721  0.34055  1.0000
  O   O12       1.0  0.22559  0.77721  0.15945  1.0000
  O   O13       1.0  0.15945  0.77441  0.72279  1.0000
  O   O14       1.0  0.34055  0.22559  0.22279  1.0000
  O   O15       1.0  0.84055  0.27441  0.77721  1.0000
  O   O16       1.0  0.65945  0.72559  0.27721  1.0000
  O   O17       1.0  0.72279  0.15945  0.77441  1.0000
  O   O18       1.0  0.22279  0.34055  0.22559  1.0000
  O   O19       1.0  0.77721  0.84055  0.27441  1.0000
  O   O20       1.0  0.27721  0.65945  0.72559  1.0000
  O   O21       1.0  0.77441  0.72279  0.15945  1.0000
  O   O22       1.0  0.22559  0.22279  0.34055  1.0000
  O   O23       1.0  0.27441  0.77721  0.84055  1.0000
  O   O24       1.0  0.72559  0.27721  0.65945  1.0000
  O   O25       1.0  0.34055  0.72559  0.77721  1.0000
  O   O26       1.0  0.15945  0.27441  0.27721  1.0000
  O   O27       1.0  0.65945  0.22559  0.72279  1.0000
  O   O28       1.0  0.84055  0.77441  0.22279  1.0000
  O   O29       1.0  0.77721  0.34055  0.72559  1.0000
  O   O30       1.0  0.27721  0.15945  0.27441  1.0000
  O   O31       1.0  0.72279  0.65945  0.22559  1.0000
  O   O32       1.0  0.22279  0.84055  0.77441  1.0000
  O   O33       1.0  0.72559  0.77721  0.34055  1.0000
  O   O34       1.0  0.27441  0.27721  0.15945  1.0000
  O   O35       1.0  0.22559  0.72279  0.65945  1.0000
  O   O36       1.0  0.77441  0.22279  0.84055  1.0000
  O   O37       1.0  0.84055  0.22559  0.27721  1.0000
  O   O38       1.0  0.65945  0.77441  0.77721  1.0000
  O   O39       1.0  0.15945  0.72559  0.22279  1.0000
  O   O40       1.0  0.34055  0.27441  0.72279  1.0000
  O   O41       1.0  0.27721  0.84055  0.22559  1.0000
  O   O42       1.0  0.77721  0.65945  0.77441  1.0000
  O   O43       1.0  0.22279  0.15945  0.72559  1.0000
  O   O44       1.0  0.72279  0.34055  0.27441  1.0000
  O   O45       1.0  0.22559  0.27721  0.84055  1.0000
  O   O46       1.0  0.77441  0.77721  0.65945  1.0000
  O   O47       1.0  0.72559  0.22279  0.15945  1.0000
  O   O48       1.0  0.27441  0.72279  0.34055  1.0000
  O   O49       1.0  0.66657  0.25113  0.30102  1.0000
  O   O50       1.0  0.83343  0.74887  0.80102  1.0000
  O   O51       1.0  0.33343  0.75113  0.19898  1.0000
  O   O52       1.0  0.16657  0.24887  0.69898  1.0000
  O   O53       1.0  0.30102  0.66657  0.25113  1.0000
  O   O54       1.0  0.80102  0.83343  0.74887  1.0000
  O   O55       1.0  0.19898  0.33343  0.75113  1.0000
  O   O56       1.0  0.69898  0.16657  0.24887  1.0000
  O   O57       1.0  0.25113  0.30102  0.66657  1.0000
  O   O58       1.0  0.74887  0.80102  0.83343  1.0000
  O   O59       1.0  0.75113  0.19898  0.33343  1.0000
  O   O60       1.0  0.24887  0.69898  0.16657  1.0000
  O   O61       1.0  0.16657  0.75113  0.80102  1.0000
  O   O62       1.0  0.33343  0.24887  0.30102  1.0000
  O   O63       1.0  0.83343  0.25113  0.69898  1.0000
  O   O64       1.0  0.66657  0.74887  0.19898  1.0000
  O   O65       1.0  0.80102  0.16657  0.75113  1.0000
  O   O66       1.0  0.30102  0.33343  0.24887  1.0000
  O   O67       1.0  0.69898  0.83343  0.25113  1.0000
  O   O68       1.0  0.19898  0.66657  0.74887  1.0000
  O   O69       1.0  0.75113  0.80102  0.16657  1.0000
  O   O70       1.0  0.24887  0.30102  0.33343  1.0000
  O   O71       1.0  0.25113  0.69898  0.83343  1.0000
  O   O72       1.0  0.74887  0.19898  0.66657  1.0000
  O   O73       1.0  0.33343  0.74887  0.69898  1.0000
  O   O74       1.0  0.16657  0.25113  0.19898  1.0000
  O   O75       1.0  0.66657  0.24887  0.80102  1.0000
  O   O76       1.0  0.83343  0.75113  0.30102  1.0000
  O   O77       1.0  0.69898  0.33343  0.74887  1.0000
  O   O78       1.0  0.19898  0.16657  0.25113  1.0000
  O   O79       1.0  0.80102  0.66657  0.24887  1.0000
  O   O80       1.0  0.30102  0.83343  0.75113  1.0000
  O   O81       1.0  0.74887  0.69898  0.33343  1.0000
  O   O82       1.0  0.25113  0.19898  0.16657  1.0000
  O   O83       1.0  0.24887  0.80102  0.66657  1.0000
  O   O84       1.0  0.75113  0.30102  0.83343  1.0000
  O   O85       1.0  0.83343  0.24887  0.19898  1.0000
  O   O86       1.0  0.66657  0.75113  0.69898  1.0000
  O   O87       1.0  0.16657  0.74887  0.30102  1.0000
  O   O88       1.0  0.33343  0.25113  0.80102  1.0000
  O   O89       1.0  0.19898  0.83343  0.24887  1.0000
  O   O90       1.0  0.69898  0.66657  0.75113  1.0000
  O   O91       1.0  0.30102  0.16657  0.74887  1.0000
  O   O92       1.0  0.80102  0.33343  0.25113  1.0000
  O   O93       1.0  0.24887  0.19898  0.83343  1.0000
  O   O94       1.0  0.75113  0.69898  0.66657  1.0000
  O   O95       1.0  0.74887  0.30102  0.16657  1.0000
  O   O96       1.0  0.25113  0.80102  0.33343  1.0000
  O   O97       1.0  0.40641  0.33445  0.27672  1.0000
  O   O98       1.0  0.09359  0.66555  0.77672  1.0000
  O   O99       1.0  0.59359  0.83445  0.22328  1.0000
  O   O100      1.0  0.90641  0.16555  0.72328  1.0000
  O   O101      1.0  0.27672  0.40641  0.33445  1.0000
  O   O102      1.0  0.77672  0.09359  0.66555  1.0000
  O   O103      1.0  0.22328  0.59359  0.83445  1.0000
  O   O104      1.0  0.72328  0.90641  0.16555  1.0000
  O   O105      1.0  0.33445  0.27672  0.40641  1.0000
  O   O106      1.0  0.66555  0.77672  0.09359  1.0000
  O   O107      1.0  0.83445  0.22328  0.59359  1.0000
  O   O108      1.0  0.16555  0.72328  0.90641  1.0000
  O   O109      1.0  0.90641  0.83445  0.77672  1.0000
  O   O110      1.0  0.59359  0.16555  0.27672  1.0000
  O   O111      1.0  0.09359  0.33445  0.72328  1.0000
  O   O112      1.0  0.40641  0.66555  0.22328  1.0000
  O   O113      1.0  0.77672  0.90641  0.83445  1.0000
  O   O114      1.0  0.27672  0.59359  0.16555  1.0000
  O   O115      1.0  0.72328  0.09359  0.33445  1.0000
  O   O116      1.0  0.22328  0.40641  0.66555  1.0000
  O   O117      1.0  0.83445  0.77672  0.90641  1.0000
  O   O118      1.0  0.16555  0.27672  0.59359  1.0000
  O   O119      1.0  0.33445  0.72328  0.09359  1.0000
  O   O120      1.0  0.66555  0.22328  0.40641  1.0000
  O   O121      1.0  0.59359  0.66555  0.72328  1.0000
  O   O122      1.0  0.90641  0.33445  0.22328  1.0000
  O   O123      1.0  0.40641  0.16555  0.77672  1.0000
  O   O124      1.0  0.09359  0.83445  0.27672  1.0000
  O   O125      1.0  0.72328  0.59359  0.66555  1.0000
  O   O126      1.0  0.22328  0.90641  0.33445  1.0000
  O   O127      1.0  0.77672  0.40641  0.16555  1.0000
  O   O128      1.0  0.27672  0.09359  0.83445  1.0000
  O   O129      1.0  0.66555  0.72328  0.59359  1.0000
  O   O130      1.0  0.33445  0.22328  0.90641  1.0000
  O   O131      1.0  0.16555  0.77672  0.40641  1.0000
  O   O132      1.0  0.83445  0.27672  0.09359  1.0000
  O   O133      1.0  0.09359  0.16555  0.22328  1.0000
  O   O134      1.0  0.40641  0.83445  0.72328  1.0000
  O   O135      1.0  0.90641  0.66555  0.27672  1.0000
  O   O136      1.0  0.59359  0.33445  0.77672  1.0000
  O   O137      1.0  0.22328  0.09359  0.16555  1.0000
  O   O138      1.0  0.72328  0.40641  0.83445  1.0000
  O   O139      1.0  0.27672  0.90641  0.66555  1.0000
  O   O140      1.0  0.77672  0.59359  0.33445  1.0000
  O   O141      1.0  0.16555  0.22328  0.09359  1.0000
  O   O142      1.0  0.83445  0.72328  0.40641  1.0000
  O   O143      1.0  0.66555  0.27672  0.90641  1.0000
  O   O144      1.0  0.33445  0.77672  0.59359  1.0000
  O   O145      1.0  0.42371  0.33032  0.35734  1.0000
  O   O146      1.0  0.07629  0.66968  0.85734  1.0000
  O   O147      1.0  0.57629  0.83032  0.14266  1.0000
  O   O148      1.0  0.92371  0.16968  0.64266  1.0000
  O   O149      1.0  0.35734  0.42371  0.33032  1.0000
  O   O150      1.0  0.85734  0.07629  0.66968  1.0000
  O   O151      1.0  0.14266  0.57629  0.83032  1.0000
  O   O152      1.0  0.64266  0.92371  0.16968  1.0000
  O   O153      1.0  0.33032  0.35734  0.42371  1.0000
  O   O154      1.0  0.66968  0.85734  0.07629  1.0000
  O   O155      1.0  0.83032  0.14266  0.57629  1.0000
  O   O156      1.0  0.16968  0.64266  0.92371  1.0000
  O   O157      1.0  0.92371  0.83032  0.85734  1.0000
  O   O158      1.0  0.57629  0.16968  0.35734  1.0000
  O   O159      1.0  0.07629  0.33032  0.64266  1.0000
  O   O160      1.0  0.42371  0.66968  0.14266  1.0000
  O   O161      1.0  0.85734  0.92371  0.83032  1.0000
  O   O162      1.0  0.35734  0.57629  0.16968  1.0000
  O   O163      1.0  0.64266  0.07629  0.33032  1.0000
  O   O164      1.0  0.14266  0.42371  0.66968  1.0000
  O   O165      1.0  0.83032  0.85734  0.92371  1.0000
  O   O166      1.0  0.16968  0.35734  0.57629  1.0000
  O   O167      1.0  0.33032  0.64266  0.07629  1.0000
  O   O168      1.0  0.66968  0.14266  0.42371  1.0000
  O   O169      1.0  0.57629  0.66968  0.64266  1.0000
  O   O170      1.0  0.92371  0.33032  0.14266  1.0000
  O   O171      1.0  0.42371  0.16968  0.85734  1.0000
  O   O172      1.0  0.07629  0.83032  0.35734  1.0000
  O   O173      1.0  0.64266  0.57629  0.66968  1.0000
  O   O174      1.0  0.14266  0.92371  0.33032  1.0000
  O   O175      1.0  0.85734  0.42371  0.16968  1.0000
  O   O176      1.0  0.35734  0.07629  0.83032  1.0000
  O   O177      1.0  0.66968  0.64266  0.57629  1.0000
  O   O178      1.0  0.33032  0.14266  0.92371  1.0000
  O   O179      1.0  0.16968  0.85734  0.42371  1.0000
  O   O180      1.0  0.83032  0.35734  0.07629  1.0000
  O   O181      1.0  0.07629  0.16968  0.14266  1.0000
  O   O182      1.0  0.42371  0.83032  0.64266  1.0000
  O   O183      1.0  0.92371  0.66968  0.35734  1.0000
  O   O184      1.0  0.57629  0.33032  0.85734  1.0000
  O   O185      1.0  0.14266  0.07629  0.16968  1.0000
  O   O186      1.0  0.64266  0.42371  0.83032  1.0000
  O   O187      1.0  0.35734  0.92371  0.66968  1.0000
  O   O188      1.0  0.85734  0.57629  0.33032  1.0000
  O   O189      1.0  0.16968  0.14266  0.07629  1.0000
  O   O190      1.0  0.83032  0.64266  0.42371  1.0000
  O   O191      1.0  0.66968  0.35734  0.92371  1.0000
  O   O192      1.0  0.33032  0.85734  0.57629  1.0000
  O   O193      1.0  0.50280  0.32240  0.14540  1.0000
  O   O194      1.0  0.99720  0.67760  0.64540  1.0000
  O   O195      1.0  0.49720  0.82240  0.35460  1.0000
  O   O196      1.0  0.00280  0.17760  0.85460  1.0000
  O   O197      1.0  0.14540  0.50280  0.32240  1.0000
  O   O198      1.0  0.64540  0.99720  0.67760  1.0000
  O   O199      1.0  0.35460  0.49720  0.82240  1.0000
  O   O200      1.0  0.85460  0.00280  0.17760  1.0000
  O   O201      1.0  0.32240  0.14540  0.50280  1.0000
  O   O202      1.0  0.67760  0.64540  0.99720  1.0000
  O   O203      1.0  0.82240  0.35460  0.49720  1.0000
  O   O204      1.0  0.17760  0.85460  0.00280  1.0000
  O   O205      1.0  0.00280  0.82240  0.64540  1.0000
  O   O206      1.0  0.49720  0.17760  0.14540  1.0000
  O   O207      1.0  0.99720  0.32240  0.85460  1.0000
  O   O208      1.0  0.50280  0.67760  0.35460  1.0000
  O   O209      1.0  0.64540  0.00280  0.82240  1.0000
  O   O210      1.0  0.14540  0.49720  0.17760  1.0000
  O   O211      1.0  0.85460  0.99720  0.32240  1.0000
  O   O212      1.0  0.35460  0.50280  0.67760  1.0000
  O   O213      1.0  0.82240  0.64540  0.00280  1.0000
  O   O214      1.0  0.17760  0.14540  0.49720  1.0000
  O   O215      1.0  0.32240  0.85460  0.99720  1.0000
  O   O216      1.0  0.67760  0.35460  0.50280  1.0000
  O   O217      1.0  0.49720  0.67760  0.85460  1.0000
  O   O218      1.0  0.00280  0.32240  0.35460  1.0000
  O   O219      1.0  0.50280  0.17760  0.64540  1.0000
  O   O220      1.0  0.99720  0.82240  0.14540  1.0000
  O   O221      1.0  0.85460  0.49720  0.67760  1.0000
  O   O222      1.0  0.35460  0.00280  0.32240  1.0000
  O   O223      1.0  0.64540  0.50280  0.17760  1.0000
  O   O224      1.0  0.14540  0.99720  0.82240  1.0000
  O   O225      1.0  0.67760  0.85460  0.49720  1.0000
  O   O226      1.0  0.32240  0.35460  0.00280  1.0000
  O   O227      1.0  0.17760  0.64540  0.50280  1.0000
  O   O228      1.0  0.82240  0.14540  0.99720  1.0000
  O   O229      1.0  0.99720  0.17760  0.35460  1.0000
  O   O230      1.0  0.50280  0.82240  0.85460  1.0000
  O   O231      1.0  0.00280  0.67760  0.14540  1.0000
  O   O232      1.0  0.49720  0.32240  0.64540  1.0000
  O   O233      1.0  0.35460  0.99720  0.17760  1.0000
  O   O234      1.0  0.85460  0.50280  0.82240  1.0000
  O   O235      1.0  0.14540  0.00280  0.67760  1.0000
  O   O236      1.0  0.64540  0.49720  0.32240  1.0000
  O   O237      1.0  0.17760  0.35460  0.99720  1.0000
  O   O238      1.0  0.82240  0.85460  0.50280  1.0000
  O   O239      1.0  0.67760  0.14540  0.00280  1.0000
  O   O240      1.0  0.32240  0.64540  0.49720  1.0000
