data_image0
_chemical_formula_structural       C8H8C4Cu2N32
_chemical_formula_sum              "C12 H8 Cu2 N32"
_cell_length_a       9.865
_cell_length_b       9.841
_cell_length_c       8.302
_cell_angle_alpha    90
_cell_angle_beta     109.868
_cell_angle_gamma    90

_space_group_name_H-M_alt    "P 1"
_space_group_IT_number       1

loop_
  _space_group_symop_operation_xyz
  'x, y, z'

loop_
  _atom_site_type_symbol
  _atom_site_label
  _atom_site_symmetry_multiplicity
  _atom_site_fract_x
  _atom_site_fract_y
  _atom_site_fract_z
  _atom_site_occupancy
  C   C1        1.0  0.05720  0.74960  0.32150  1.0000
  C   C2        1.0  0.94280  0.24960  0.17850  1.0000
  C   C3        1.0  0.94280  0.25040  0.67850  1.0000
  C   C4        1.0  0.05720  0.75040  0.82150  1.0000
  C   C5        1.0  0.19550  0.69220  0.31200  1.0000
  C   C6        1.0  0.80450  0.19220  0.18800  1.0000
  C   C7        1.0  0.80450  0.30780  0.68800  1.0000
  C   C8        1.0  0.19550  0.80780  0.81200  1.0000
  H   H1        1.0  0.17450  0.63030  0.21570  1.0000
  H   H2        1.0  0.82550  0.13030  0.28430  1.0000
  H   H3        1.0  0.82550  0.36970  0.78430  1.0000
  H   H4        1.0  0.17450  0.86970  0.71570  1.0000
  H   H5        1.0  0.25500  0.76520  0.29440  1.0000
  H   H6        1.0  0.74500  0.26520  0.20560  1.0000
  H   H7        1.0  0.74500  0.23480  0.70560  1.0000
  H   H8        1.0  0.25500  0.73480  0.79440  1.0000
  C   C9        1.0  0.27530  0.61800  0.47450  1.0000
  C   C10       1.0  0.72470  0.11800  0.02550  1.0000
  C   C11       1.0  0.72470  0.38200  0.52550  1.0000
  C   C12       1.0  0.27530  0.88200  0.97450  1.0000
  Cu  Cu1       1.0  0.00000  0.50000  0.50000  1.0000
  Cu  Cu2       1.0  0.00000  0.00000  0.00000  1.0000
  N   N1        1.0  0.97220  0.68210  0.38930  1.0000
  N   N2        1.0  0.02780  0.18210  0.11070  1.0000
  N   N3        1.0  0.02780  0.31790  0.61070  1.0000
  N   N4        1.0  0.97220  0.81790  0.88930  1.0000
  N   N5        1.0  0.86390  0.76800  0.38080  1.0000
  N   N6        1.0  0.13610  0.26800  0.11920  1.0000
  N   N7        1.0  0.13610  0.23200  0.61920  1.0000
  N   N8        1.0  0.86390  0.73200  0.88080  1.0000
  N   N9        1.0  0.00480  0.87230  0.26880  1.0000
  N   N10       1.0  0.99520  0.37230  0.23120  1.0000
  N   N11       1.0  0.99520  0.12770  0.73120  1.0000
  N   N12       1.0  0.00480  0.62770  0.76880  1.0000
  N   N13       1.0  0.21330  0.53180  0.55290  1.0000
  N   N14       1.0  0.78670  0.03180  0.94710  1.0000
  N   N15       1.0  0.78670  0.46820  0.44710  1.0000
  N   N16       1.0  0.21330  0.96820  0.05290  1.0000
  N   N17       1.0  0.31940  0.49090  0.69450  1.0000
  N   N18       1.0  0.68060  0.99090  0.80550  1.0000
  N   N19       1.0  0.68060  0.50910  0.30550  1.0000
  N   N20       1.0  0.31940  0.00910  0.19450  1.0000
  N   N21       1.0  0.41470  0.63190  0.56190  1.0000
  N   N22       1.0  0.58530  0.13190  0.93810  1.0000
  N   N23       1.0  0.58530  0.36810  0.43810  1.0000
  N   N24       1.0  0.41470  0.86810  0.06190  1.0000
  N   N25       1.0  0.88310  0.88050  0.30850  1.0000
  N   N26       1.0  0.11690  0.38050  0.19150  1.0000
  N   N27       1.0  0.11690  0.11950  0.69150  1.0000
  N   N28       1.0  0.88310  0.61950  0.80850  1.0000
  N   N29       1.0  0.43940  0.55000  0.69990  1.0000
  N   N30       1.0  0.56060  0.05000  0.80010  1.0000
  N   N31       1.0  0.56060  0.45000  0.30010  1.0000
  N   N32       1.0  0.43940  0.95000  0.19990  1.0000
