data_image0
_chemical_formula_structural       C12H4C12H4C16O36H8O4H8Pr4
_chemical_formula_sum              "C40 H24 O40 Pr4"
_cell_length_a       11.023
_cell_length_b       11.109
_cell_length_c       11.456
_cell_angle_alpha    90
_cell_angle_beta     110.065
_cell_angle_gamma    90

_space_group_name_H-M_alt    "P 1"
_space_group_IT_number       1

loop_
  _space_group_symop_operation_xyz
  'x, y, z'

loop_
  _atom_site_type_symbol
  _atom_site_label
  _atom_site_symmetry_multiplicity
  _atom_site_fract_x
  _atom_site_fract_y
  _atom_site_fract_z
  _atom_site_occupancy
  C   C1        1.0  0.02280  0.57540  0.24750  1.0000
  C   C2        1.0  0.47720  0.07540  0.25250  1.0000
  C   C3        1.0  0.97720  0.42460  0.75250  1.0000
  C   C4        1.0  0.52280  0.92460  0.74750  1.0000
  C   C5        1.0  0.92540  0.50950  0.28890  1.0000
  C   C6        1.0  0.57460  0.00950  0.21110  1.0000
  C   C7        1.0  0.07460  0.49050  0.71110  1.0000
  C   C8        1.0  0.42540  0.99050  0.78890  1.0000
  C   C9        1.0  0.89410  0.55730  0.38680  1.0000
  C   C10       1.0  0.60590  0.05730  0.11320  1.0000
  C   C11       1.0  0.10590  0.44270  0.61320  1.0000
  C   C12       1.0  0.39410  0.94270  0.88680  1.0000
  H   H1        1.0  0.93870  0.62490  0.42740  1.0000
  H   H2        1.0  0.56130  0.12490  0.07260  1.0000
  H   H3        1.0  0.06130  0.37510  0.57260  1.0000
  H   H4        1.0  0.43870  0.87510  0.92740  1.0000
  C   C13       1.0  0.79940  0.50890  0.42660  1.0000
  C   C14       1.0  0.70060  0.00890  0.07340  1.0000
  C   C15       1.0  0.20060  0.49110  0.57340  1.0000
  C   C16       1.0  0.29940  0.99110  0.92660  1.0000
  C   C17       1.0  0.73590  0.40380  0.36960  1.0000
  C   C18       1.0  0.76410  0.90380  0.13040  1.0000
  C   C19       1.0  0.26410  0.59620  0.63040  1.0000
  C   C20       1.0  0.23590  0.09620  0.86960  1.0000
  C   C21       1.0  0.77270  0.35090  0.27610  1.0000
  C   C22       1.0  0.72730  0.85090  0.22390  1.0000
  C   C23       1.0  0.22730  0.64910  0.72390  1.0000
  C   C24       1.0  0.27270  0.14910  0.77610  1.0000
  H   H5        1.0  0.73650  0.27740  0.24310  1.0000
  H   H6        1.0  0.76350  0.77740  0.25690  1.0000
  H   H7        1.0  0.26350  0.72260  0.75690  1.0000
  H   H8        1.0  0.23650  0.22260  0.74310  1.0000
  C   C25       1.0  0.86160  0.40470  0.23080  1.0000
  C   C26       1.0  0.63840  0.90470  0.26920  1.0000
  C   C27       1.0  0.13840  0.59530  0.76920  1.0000
  C   C28       1.0  0.36160  0.09530  0.73080  1.0000
  C   C29       1.0  0.61760  0.35240  0.39020  1.0000
  C   C30       1.0  0.88240  0.85240  0.10980  1.0000
  C   C31       1.0  0.38240  0.64760  0.60980  1.0000
  C   C32       1.0  0.11760  0.14760  0.89020  1.0000
  C   C33       1.0  0.87430  0.35420  0.11320  1.0000
  C   C34       1.0  0.62570  0.85420  0.38680  1.0000
  C   C35       1.0  0.12570  0.64580  0.88680  1.0000
  C   C36       1.0  0.37430  0.14580  0.61320  1.0000
  C   C37       1.0  0.76530  0.57470  0.52550  1.0000
  C   C38       1.0  0.73470  0.07470  0.97450  1.0000
  C   C39       1.0  0.23470  0.42530  0.47450  1.0000
  C   C40       1.0  0.26530  0.92530  0.02550  1.0000
  O   O1        1.0  0.05270  0.53600  0.15840  1.0000
  O   O2        1.0  0.44730  0.03600  0.34160  1.0000
  O   O3        1.0  0.94730  0.46400  0.84160  1.0000
  O   O4        1.0  0.55270  0.96400  0.65840  1.0000
  O   O5        1.0  0.06780  0.67200  0.30250  1.0000
  O   O6        1.0  0.43220  0.17200  0.19750  1.0000
  O   O7        1.0  0.93220  0.32800  0.69750  1.0000
  O   O8        1.0  0.56780  0.82800  0.80250  1.0000
  O   O9        1.0  0.62300  0.26120  0.45470  1.0000
  O   O10       1.0  0.87700  0.76120  0.04530  1.0000
  O   O11       1.0  0.37700  0.73880  0.54530  1.0000
  O   O12       1.0  0.12300  0.23880  0.95470  1.0000
  O   O13       1.0  0.51240  0.40100  0.32850  1.0000
  O   O14       1.0  0.98760  0.90100  0.17150  1.0000
  O   O15       1.0  0.48760  0.59900  0.67150  1.0000
  O   O16       1.0  0.01240  0.09900  0.82850  1.0000
  O   O17       1.0  0.67520  0.53620  0.56000  1.0000
  O   O18       1.0  0.82480  0.03620  0.94000  1.0000
  O   O19       1.0  0.32480  0.46380  0.44000  1.0000
  O   O20       1.0  0.17520  0.96380  0.06000  1.0000
  O   O21       1.0  0.82380  0.67230  0.56690  1.0000
  O   O22       1.0  0.67620  0.17230  0.93310  1.0000
  O   O23       1.0  0.17620  0.32770  0.43310  1.0000
  O   O24       1.0  0.32380  0.82770  0.06690  1.0000
  O   O25       1.0  0.80430  0.40260  0.01350  1.0000
  O   O26       1.0  0.69570  0.90260  0.48650  1.0000
  O   O27       1.0  0.19570  0.59740  0.98650  1.0000
  O   O28       1.0  0.30430  0.09740  0.51350  1.0000
  O   O29       1.0  0.94210  0.26350  0.11430  1.0000
  O   O30       1.0  0.55790  0.76350  0.38570  1.0000
  O   O31       1.0  0.05790  0.73650  0.88570  1.0000
  O   O32       1.0  0.44210  0.23650  0.61430  1.0000
  O   O33       1.0  0.25950  0.86510  0.32800  1.0000
  O   O34       1.0  0.24050  0.36510  0.17200  1.0000
  O   O35       1.0  0.74050  0.13490  0.67200  1.0000
  O   O36       1.0  0.75950  0.63490  0.82800  1.0000
  H   H9        1.0  0.31890  0.91200  0.31470  1.0000
  H   H10       1.0  0.18110  0.41200  0.18530  1.0000
  H   H11       1.0  0.68110  0.08800  0.68530  1.0000
  H   H12       1.0  0.81890  0.58800  0.81470  1.0000
  H   H13       1.0  0.29780  0.81350  0.38900  1.0000
  H   H14       1.0  0.20220  0.31350  0.11100  1.0000
  H   H15       1.0  0.70220  0.18650  0.61100  1.0000
  H   H16       1.0  0.79780  0.68650  0.88900  1.0000
  O   O37       1.0  0.33820  0.63230  0.26100  1.0000
  O   O38       1.0  0.16180  0.13230  0.23900  1.0000
  O   O39       1.0  0.66180  0.36770  0.73900  1.0000
  O   O40       1.0  0.83820  0.86770  0.76100  1.0000
  H   H17       1.0  0.31810  0.58650  0.31540  1.0000
  H   H18       1.0  0.18190  0.08650  0.18460  1.0000
  H   H19       1.0  0.68190  0.41350  0.68460  1.0000
  H   H20       1.0  0.81810  0.91350  0.81540  1.0000
  H   H21       1.0  0.40060  0.68350  0.30150  1.0000
  H   H22       1.0  0.09940  0.18350  0.19850  1.0000
  H   H23       1.0  0.59940  0.31650  0.69850  1.0000
  H   H24       1.0  0.90060  0.81650  0.80150  1.0000
  Pr  Pr1       1.0  0.14078  0.74938  0.13189  1.0000
  Pr  Pr2       1.0  0.35922  0.24938  0.36811  1.0000
  Pr  Pr3       1.0  0.85922  0.25062  0.86811  1.0000
  Pr  Pr4       1.0  0.64078  0.75063  0.63189  1.0000
