data_image0
_chemical_formula_structural       V4N4P4C4H8C4H8C8H8C4O32
_chemical_formula_sum              "V4 N4 P4 C20 H24 O32"
_cell_length_a       10.821
_cell_length_b       11.576
_cell_length_c       20.641
_cell_angle_alpha    90
_cell_angle_beta     101.96
_cell_angle_gamma    90

_space_group_name_H-M_alt    "P 1"
_space_group_IT_number       1

loop_
  _space_group_symop_operation_xyz
  'x, y, z'

loop_
  _atom_site_type_symbol
  _atom_site_label
  _atom_site_symmetry_multiplicity
  _atom_site_fract_x
  _atom_site_fract_y
  _atom_site_fract_z
  _atom_site_occupancy
  V   V1        1.0  0.79832  0.62244  0.99131  1.0000
  V   V2        1.0  0.20168  0.62244  0.50869  1.0000
  V   V3        1.0  0.20168  0.37756  0.00869  1.0000
  V   V4        1.0  0.79832  0.37756  0.49131  1.0000
  N   N1        1.0  0.98063  0.74208  0.02441  1.0000
  N   N2        1.0  0.01937  0.74208  0.47559  1.0000
  N   N3        1.0  0.01937  0.25792  0.97559  1.0000
  N   N4        1.0  0.98063  0.25792  0.52441  1.0000
  P   P1        1.0  0.04555  0.54209  0.09073  1.0000
  P   P2        1.0  0.95445  0.54209  0.40927  1.0000
  P   P3        1.0  0.95445  0.45791  0.90927  1.0000
  P   P4        1.0  0.04555  0.45791  0.59073  1.0000
  C   C1        1.0  0.09370  0.66950  0.04963  1.0000
  C   C2        1.0  0.90630  0.66950  0.45037  1.0000
  C   C3        1.0  0.90630  0.33050  0.95037  1.0000
  C   C4        1.0  0.09370  0.33050  0.54963  1.0000
  H   H1        1.0  0.15680  0.71440  0.08140  1.0000
  H   H2        1.0  0.84320  0.71440  0.41860  1.0000
  H   H3        1.0  0.84320  0.28560  0.91860  1.0000
  H   H4        1.0  0.15680  0.28560  0.58140  1.0000
  H   H5        1.0  0.13270  0.64540  0.01240  1.0000
  H   H6        1.0  0.86730  0.64540  0.48760  1.0000
  H   H7        1.0  0.86730  0.35460  0.98760  1.0000
  H   H8        1.0  0.13270  0.35460  0.51240  1.0000
  C   C5        1.0  0.98580  0.80390  0.96262  1.0000
  C   C6        1.0  0.01420  0.80390  0.53738  1.0000
  C   C7        1.0  0.01420  0.19610  0.03738  1.0000
  C   C8        1.0  0.98580  0.19610  0.46262  1.0000
  H   H9        1.0  0.02560  0.75420  0.93360  1.0000
  H   H10       1.0  0.97440  0.75420  0.56640  1.0000
  H   H11       1.0  0.97440  0.24580  0.06640  1.0000
  H   H12       1.0  0.02560  0.24580  0.43360  1.0000
  H   H13       1.0  0.03710  0.87490  0.97270  1.0000
  H   H14       1.0  0.96290  0.87490  0.52730  1.0000
  H   H15       1.0  0.96290  0.12510  0.02730  1.0000
  H   H16       1.0  0.03710  0.12510  0.47270  1.0000
  C   C9        1.0  0.85200  0.83490  0.92758  1.0000
  C   C10       1.0  0.14800  0.83490  0.57242  1.0000
  C   C11       1.0  0.14800  0.16510  0.07242  1.0000
  C   C12       1.0  0.85200  0.16510  0.42758  1.0000
  C   C13       1.0  0.95170  0.82240  0.07477  1.0000
  C   C14       1.0  0.04830  0.82240  0.42523  1.0000
  C   C15       1.0  0.04830  0.17760  0.92523  1.0000
  C   C16       1.0  0.95170  0.17760  0.57477  1.0000
  H   H17       1.0  0.94090  0.90100  0.05550  1.0000
  H   H18       1.0  0.05910  0.90100  0.44450  1.0000
  H   H19       1.0  0.05910  0.09900  0.94450  1.0000
  H   H20       1.0  0.94090  0.09900  0.55550  1.0000
  H   H21       1.0  0.02470  0.82450  0.11270  1.0000
  H   H22       1.0  0.97530  0.82450  0.38730  1.0000
  H   H23       1.0  0.97530  0.17550  0.88730  1.0000
  H   H24       1.0  0.02470  0.17550  0.61270  1.0000
  C   C17       1.0  0.83510  0.79120  0.10007  1.0000
  C   C18       1.0  0.16490  0.79120  0.39993  1.0000
  C   C19       1.0  0.16490  0.20880  0.89993  1.0000
  C   C20       1.0  0.83510  0.20880  0.60007  1.0000
  O   O1        1.0  0.66491  0.55785  0.97600  1.0000
  O   O2        1.0  0.33509  0.55785  0.52400  1.0000
  O   O3        1.0  0.33509  0.44215  0.02400  1.0000
  O   O4        1.0  0.66491  0.44215  0.47600  1.0000
  O   O5        1.0  0.91018  0.51975  0.05367  1.0000
  O   O6        1.0  0.08982  0.51975  0.44633  1.0000
  O   O7        1.0  0.08982  0.48025  0.94633  1.0000
  O   O8        1.0  0.91018  0.48025  0.55367  1.0000
  O   O9        1.0  0.13035  0.43933  0.08348  1.0000
  O   O10       1.0  0.86965  0.43933  0.41652  1.0000
  O   O11       1.0  0.86965  0.56067  0.91652  1.0000
  O   O12       1.0  0.13035  0.56067  0.58348  1.0000
  O   O13       1.0  0.05396  0.56993  0.16341  1.0000
  O   O14       1.0  0.94604  0.56993  0.33659  1.0000
  O   O15       1.0  0.94604  0.43007  0.83659  1.0000
  O   O16       1.0  0.05396  0.43007  0.66341  1.0000
  O   O17       1.0  0.76339  0.77128  0.93891  1.0000
  O   O18       1.0  0.23661  0.77128  0.56109  1.0000
  O   O19       1.0  0.23661  0.22872  0.06109  1.0000
  O   O20       1.0  0.76339  0.22872  0.43891  1.0000
  O   O21       1.0  0.83720  0.91850  0.88967  1.0000
  O   O22       1.0  0.16280  0.91850  0.61033  1.0000
  O   O23       1.0  0.16280  0.08150  0.11033  1.0000
  O   O24       1.0  0.83720  0.08150  0.38967  1.0000
  O   O25       1.0  0.76569  0.70936  0.07183  1.0000
  O   O26       1.0  0.23431  0.70936  0.42817  1.0000
  O   O27       1.0  0.23431  0.29064  0.92817  1.0000
  O   O28       1.0  0.76569  0.29064  0.57183  1.0000
  O   O29       1.0  0.81240  0.84920  0.14733  1.0000
  O   O30       1.0  0.18760  0.84920  0.35267  1.0000
  O   O31       1.0  0.18760  0.15080  0.85267  1.0000
  O   O32       1.0  0.81240  0.15080  0.64733  1.0000
