data_image0
_chemical_formula_structural       Mn4O24C8H4C24H4C4H4
_chemical_formula_sum              "Mn4 O24 C36 H12"
_cell_length_a       9.3251
_cell_length_b       25.2593
_cell_length_c       9.9285
_cell_angle_alpha    90
_cell_angle_beta     91.103
_cell_angle_gamma    90

_space_group_name_H-M_alt    "P 1"
_space_group_IT_number       1

loop_
  _space_group_symop_operation_xyz
  'x, y, z'

loop_
  _atom_site_type_symbol
  _atom_site_label
  _atom_site_symmetry_multiplicity
  _atom_site_fract_x
  _atom_site_fract_y
  _atom_site_fract_z
  _atom_site_occupancy
  Mn  Mn1       1.0  0.06163  0.15984  0.02346  1.0000
  Mn  Mn2       1.0  0.43837  0.65984  0.47654  1.0000
  Mn  Mn3       1.0  0.93837  0.84016  0.97654  1.0000
  Mn  Mn4       1.0  0.56163  0.34016  0.52346  1.0000
  O   O1        1.0  0.87760  0.21420  0.02310  1.0000
  O   O2        1.0  0.62240  0.71420  0.47690  1.0000
  O   O3        1.0  0.12240  0.78580  0.97690  1.0000
  O   O4        1.0  0.37760  0.28580  0.52310  1.0000
  O   O5        1.0  0.90280  0.09795  0.05360  1.0000
  O   O6        1.0  0.59720  0.59795  0.44640  1.0000
  O   O7        1.0  0.09720  0.90205  0.94640  1.0000
  O   O8        1.0  0.40280  0.40205  0.55360  1.0000
  O   O9        1.0  0.59540  0.32136  0.73520  1.0000
  O   O10       1.0  0.90460  0.82136  0.76480  1.0000
  O   O11       1.0  0.40460  0.67864  0.26480  1.0000
  O   O12       1.0  0.09540  0.17864  0.23520  1.0000
  O   O13       1.0  0.16560  0.08599  0.96600  1.0000
  O   O14       1.0  0.33440  0.58599  0.53400  1.0000
  O   O15       1.0  0.83440  0.91401  0.03400  1.0000
  O   O16       1.0  0.66560  0.41401  0.46600  1.0000
  O   O17       1.0  0.77260  0.30246  0.53850  1.0000
  O   O18       1.0  0.72740  0.80246  0.96150  1.0000
  O   O19       1.0  0.22740  0.69754  0.46150  1.0000
  O   O20       1.0  0.27260  0.19754  0.03850  1.0000
  O   O21       1.0  0.04720  0.19267  0.82170  1.0000
  O   O22       1.0  0.45280  0.69267  0.67830  1.0000
  O   O23       1.0  0.95280  0.80733  0.17830  1.0000
  O   O24       1.0  0.54720  0.30733  0.32170  1.0000
  C   C1        1.0  0.70080  0.29258  0.76500  1.0000
  C   C2        1.0  0.79920  0.79258  0.73500  1.0000
  C   C3        1.0  0.29920  0.70742  0.23500  1.0000
  C   C4        1.0  0.20080  0.20742  0.26500  1.0000
  C   C5        1.0  0.92620  0.25063  0.67310  1.0000
  C   C6        1.0  0.57380  0.75063  0.82690  1.0000
  C   C7        1.0  0.07380  0.74937  0.32690  1.0000
  C   C8        1.0  0.42620  0.24937  0.17310  1.0000
  H   H1        1.0  0.99480  0.24670  0.60430  1.0000
  H   H2        1.0  0.50520  0.74670  0.89570  1.0000
  H   H3        1.0  0.00520  0.75330  0.39570  1.0000
  H   H4        1.0  0.49480  0.25330  0.10430  1.0000
  C   C9        1.0  0.94160  0.05116  0.02890  1.0000
  C   C10       1.0  0.55840  0.55116  0.47110  1.0000
  C   C11       1.0  0.05840  0.94884  0.97110  1.0000
  C   C12       1.0  0.44160  0.44884  0.52890  1.0000
  C   C13       1.0  0.84550  0.23647  0.91290  1.0000
  C   C14       1.0  0.65450  0.73647  0.58710  1.0000
  C   C15       1.0  0.15450  0.76353  0.08710  1.0000
  C   C16       1.0  0.34550  0.26353  0.41290  1.0000
  C   C17       1.0  0.94730  0.22508  0.79630  1.0000
  C   C18       1.0  0.55270  0.72508  0.70370  1.0000
  C   C19       1.0  0.05270  0.77492  0.20370  1.0000
  C   C20       1.0  0.44730  0.27492  0.29630  1.0000
  C   C21       1.0  0.09390  0.04428  0.97970  1.0000
  C   C22       1.0  0.40610  0.54428  0.52030  1.0000
  C   C23       1.0  0.90610  0.95572  0.02030  1.0000
  C   C24       1.0  0.59390  0.45572  0.47970  1.0000
  C   C25       1.0  0.80450  0.28198  0.65010  1.0000
  C   C26       1.0  0.69550  0.78198  0.84990  1.0000
  C   C27       1.0  0.19550  0.71802  0.34990  1.0000
  C   C28       1.0  0.30450  0.21802  0.15010  1.0000
  C   C29       1.0  0.73050  0.27091  0.89080  1.0000
  C   C30       1.0  0.76950  0.77091  0.60920  1.0000
  C   C31       1.0  0.26950  0.72909  0.10920  1.0000
  C   C32       1.0  0.23050  0.22909  0.39080  1.0000
  H   H5        1.0  0.67090  0.27980  0.96400  1.0000
  H   H6        1.0  0.82910  0.77980  0.53600  1.0000
  H   H7        1.0  0.32910  0.72020  0.03600  1.0000
  H   H8        1.0  0.17090  0.22020  0.46400  1.0000
  C   C33       1.0  0.85360  0.00673  0.04610  1.0000
  C   C34       1.0  0.64640  0.50673  0.45390  1.0000
  C   C35       1.0  0.14640  0.99327  0.95390  1.0000
  C   C36       1.0  0.35360  0.49327  0.54610  1.0000
  H   H9        1.0  0.75800  0.01120  0.07540  1.0000
  H   H10       1.0  0.74200  0.51120  0.42460  1.0000
  H   H11       1.0  0.24200  0.98880  0.92460  1.0000
  H   H12       1.0  0.25800  0.48880  0.57540  1.0000
