data_image0
_chemical_formula_structural       Cd4O24C4H4C8H4C4H4C20
_chemical_formula_sum              "Cd4 O24 C36 H12"
_cell_length_a       9.3065
_cell_length_b       25.9378
_cell_length_c       9.9446
_cell_angle_alpha    90
_cell_angle_beta     90.278
_cell_angle_gamma    90

_space_group_name_H-M_alt    "P 1"
_space_group_IT_number       1

loop_
  _space_group_symop_operation_xyz
  'x, y, z'

loop_
  _atom_site_type_symbol
  _atom_site_label
  _atom_site_symmetry_multiplicity
  _atom_site_fract_x
  _atom_site_fract_y
  _atom_site_fract_z
  _atom_site_occupancy
  Cd  Cd1       1.0  0.42957  0.15819  0.02125  1.0000
  Cd  Cd2       1.0  0.07043  0.65819  0.47875  1.0000
  Cd  Cd3       1.0  0.57043  0.84181  0.97875  1.0000
  Cd  Cd4       1.0  0.92957  0.34181  0.52125  1.0000
  O   O1        1.0  0.39550  0.17930  0.24040  1.0000
  O   O2        1.0  0.10450  0.67930  0.25960  1.0000
  O   O3        1.0  0.60450  0.82070  0.75960  1.0000
  O   O4        1.0  0.89550  0.32070  0.74040  1.0000
  O   O5        1.0  0.59670  0.09580  0.05250  1.0000
  O   O6        1.0  0.90330  0.59580  0.44750  1.0000
  O   O7        1.0  0.40330  0.90420  0.94750  1.0000
  O   O8        1.0  0.09670  0.40420  0.55250  1.0000
  O   O9        1.0  0.94300  0.30570  0.31410  1.0000
  O   O10       1.0  0.55700  0.80570  0.18590  1.0000
  O   O11       1.0  0.05700  0.69430  0.68590  1.0000
  O   O12       1.0  0.44300  0.19430  0.81410  1.0000
  O   O13       1.0  0.12000  0.28580  0.52080  1.0000
  O   O14       1.0  0.38000  0.78580  0.97920  1.0000
  O   O15       1.0  0.88000  0.71420  0.47920  1.0000
  O   O16       1.0  0.62000  0.21420  0.02080  1.0000
  O   O17       1.0  0.32910  0.08190  0.96210  1.0000
  O   O18       1.0  0.17090  0.58190  0.53790  1.0000
  O   O19       1.0  0.67090  0.91810  0.03790  1.0000
  O   O20       1.0  0.82910  0.41810  0.46210  1.0000
  O   O21       1.0  0.21060  0.19650  0.03900  1.0000
  O   O22       1.0  0.28940  0.69650  0.46100  1.0000
  O   O23       1.0  0.78940  0.80350  0.96100  1.0000
  O   O24       1.0  0.71060  0.30350  0.53900  1.0000
  C   C1        1.0  0.06460  0.24870  0.17180  1.0000
  C   C2        1.0  0.43540  0.74870  0.32820  1.0000
  C   C3        1.0  0.93540  0.75130  0.82820  1.0000
  C   C4        1.0  0.56460  0.25130  0.67180  1.0000
  H   H1        1.0  0.99610  0.25280  0.10150  1.0000
  H   H2        1.0  0.50390  0.75280  0.39850  1.0000
  H   H3        1.0  0.00390  0.74720  0.89850  1.0000
  H   H4        1.0  0.49610  0.24720  0.60150  1.0000
  C   C5        1.0  0.40360  0.04500  0.97140  1.0000
  C   C6        1.0  0.09640  0.54500  0.52860  1.0000
  C   C7        1.0  0.59640  0.95500  0.02860  1.0000
  C   C8        1.0  0.90360  0.45500  0.47140  1.0000
  C   C9        1.0  0.35400  0.99280  0.95460  1.0000
  C   C10       1.0  0.14600  0.49280  0.54540  1.0000
  C   C11       1.0  0.64600  0.00720  0.04540  1.0000
  C   C12       1.0  0.85400  0.50720  0.45460  1.0000
  H   H5        1.0  0.25600  0.98740  0.93150  1.0000
  H   H6        1.0  0.24400  0.48740  0.56850  1.0000
  H   H7        1.0  0.74400  0.01260  0.06850  1.0000
  H   H8        1.0  0.75600  0.51260  0.43150  1.0000
  C   C13       1.0  0.26000  0.22980  0.39150  1.0000
  C   C14       1.0  0.24000  0.72980  0.10850  1.0000
  C   C15       1.0  0.74000  0.77020  0.60850  1.0000
  C   C16       1.0  0.76000  0.27020  0.89150  1.0000
  H   H9        1.0  0.31980  0.22110  0.46580  1.0000
  H   H10       1.0  0.18020  0.72110  0.03420  1.0000
  H   H11       1.0  0.68020  0.77890  0.53420  1.0000
  H   H12       1.0  0.81980  0.27890  0.96580  1.0000
  C   C17       1.0  0.28810  0.20780  0.26520  1.0000
  C   C18       1.0  0.21190  0.70780  0.23480  1.0000
  C   C19       1.0  0.71190  0.79220  0.73480  1.0000
  C   C20       1.0  0.78810  0.29220  0.76520  1.0000
  C   C21       1.0  0.18390  0.21690  0.14960  1.0000
  C   C22       1.0  0.31610  0.71690  0.35040  1.0000
  C   C23       1.0  0.81610  0.78310  0.85040  1.0000
  C   C24       1.0  0.68390  0.28310  0.64960  1.0000
  C   C25       1.0  0.55810  0.05000  0.02950  1.0000
  C   C26       1.0  0.94190  0.55000  0.47050  1.0000
  C   C27       1.0  0.44190  0.95000  0.97050  1.0000
  C   C28       1.0  0.05810  0.45000  0.52950  1.0000
  C   C29       1.0  0.14590  0.26410  0.41000  1.0000
  C   C30       1.0  0.35410  0.76410  0.09000  1.0000
  C   C31       1.0  0.85410  0.73590  0.59000  1.0000
  C   C32       1.0  0.64590  0.23590  0.91000  1.0000
  C   C33       1.0  0.04240  0.27450  0.29310  1.0000
  C   C34       1.0  0.45760  0.77450  0.20690  1.0000
  C   C35       1.0  0.95760  0.72550  0.70690  1.0000
  C   C36       1.0  0.54240  0.22550  0.79310  1.0000
