data_image0
_chemical_formula_structural       Cd6C6H2C4H2C4H2C6H6C2H6C2H6C6H2C4H2C4H2C4H6C2H6C2H6C6H2C4H2C4H2C6H6C2H6C2H6C6H2C4H2C4H2C6H6C2H6C2H6O32C2
_chemical_formula_sum              "Cd6 C96 H96 O32"
_cell_length_a       9.8523
_cell_length_b       19.5244
_cell_length_c       19.6699
_cell_angle_alpha    89.715
_cell_angle_beta     83.058
_cell_angle_gamma    87.776

_space_group_name_H-M_alt    "P 1"
_space_group_IT_number       1

loop_
  _space_group_symop_operation_xyz
  'x, y, z'

loop_
  _atom_site_type_symbol
  _atom_site_label
  _atom_site_symmetry_multiplicity
  _atom_site_fract_x
  _atom_site_fract_y
  _atom_site_fract_z
  _atom_site_occupancy
  Cd  Cd1       1.0  0.99924  0.15416  0.07684  1.0000
  Cd  Cd2       1.0  0.00076  0.84584  0.92316  1.0000
  Cd  Cd3       1.0  0.06366  0.57392  0.34431  1.0000
  Cd  Cd4       1.0  0.93634  0.42608  0.65569  1.0000
  Cd  Cd5       1.0  0.00000  0.00000  0.00000  1.0000
  Cd  Cd6       1.0  0.00000  0.50000  0.50000  1.0000
  C   C1        1.0  0.98390  0.22230  0.19600  1.0000
  C   C2        1.0  0.01610  0.77770  0.80400  1.0000
  C   C3        1.0  0.98570  0.25870  0.26380  1.0000
  C   C4        1.0  0.01430  0.74130  0.73620  1.0000
  C   C5        1.0  0.00550  0.32930  0.26630  1.0000
  C   C6        1.0  0.99450  0.67070  0.73370  1.0000
  H   H1        1.0  0.01590  0.35530  0.22630  1.0000
  H   H2        1.0  0.98410  0.64470  0.77370  1.0000
  C   C7        1.0  0.00940  0.35990  0.32990  1.0000
  C   C8        1.0  0.99060  0.64010  0.67010  1.0000
  C   C9        1.0  0.99710  0.32010  0.39020  1.0000
  C   C10       1.0  0.00290  0.67990  0.60980  1.0000
  H   H3        1.0  0.00010  0.34110  0.43240  1.0000
  H   H4        1.0  0.99990  0.65890  0.56760  1.0000
  C   C11       1.0  0.98070  0.25080  0.38740  1.0000
  C   C12       1.0  0.01930  0.74920  0.61260  1.0000
  C   C13       1.0  0.97070  0.22040  0.32370  1.0000
  C   C14       1.0  0.02930  0.77960  0.67630  1.0000
  H   H5        1.0  0.95380  0.17400  0.32160  1.0000
  H   H6        1.0  0.04620  0.82600  0.67840  1.0000
  C   C15       1.0  0.03340  0.43440  0.33260  1.0000
  C   C16       1.0  0.96660  0.56560  0.66740  1.0000
  C   C17       1.0  0.97440  0.20760  0.45240  1.0000
  C   C18       1.0  0.02560  0.79240  0.54760  1.0000
  C   C19       1.0  0.98400  0.13210  0.44260  1.0000
  C   C20       1.0  0.01600  0.86790  0.55740  1.0000
  H   H7        1.0  0.06640  0.11970  0.41340  1.0000
  H   H8        1.0  0.93360  0.88030  0.58660  1.0000
  H   H9        1.0  0.90630  0.11790  0.42180  1.0000
  H   H10       1.0  0.09370  0.88210  0.57820  1.0000
  H   H11       1.0  0.98510  0.10990  0.48620  1.0000
  H   H12       1.0  0.01490  0.89010  0.51380  1.0000
  C   C21       1.0  0.09200  0.22210  0.49160  1.0000
  C   C22       1.0  0.90800  0.77790  0.50840  1.0000
  H   H13       1.0  0.09180  0.27030  0.50120  1.0000
  H   H14       1.0  0.90820  0.72970  0.49880  1.0000
  H   H15       1.0  0.17660  0.20840  0.46480  1.0000
  H   H16       1.0  0.82340  0.79160  0.53520  1.0000
  H   H17       1.0  0.08290  0.19700  0.53390  1.0000
  H   H18       1.0  0.91710  0.80300  0.46610  1.0000
  C   C23       1.0  0.84600  0.22740  0.49700  1.0000
  C   C24       1.0  0.15400  0.77260  0.50300  1.0000
  H   H19       1.0  0.84070  0.27630  0.50300  1.0000
  H   H20       1.0  0.15930  0.72370  0.49700  1.0000
  H   H21       1.0  0.84670  0.20550  0.54080  1.0000
  H   H22       1.0  0.15330  0.79450  0.45920  1.0000
  H   H23       1.0  0.76890  0.21330  0.47600  1.0000
  H   H24       1.0  0.23110  0.78670  0.52400  1.0000
  C   C25       1.0  0.75240  0.08470  0.08370  1.0000
  C   C26       1.0  0.24760  0.91530  0.91630  1.0000
  C   C27       1.0  0.62610  0.04480  0.08940  1.0000
  C   C28       1.0  0.37390  0.95520  0.91060  1.0000
  C   C29       1.0  0.50000  0.07330  0.07890  1.0000
  C   C30       1.0  0.50000  0.92670  0.92110  1.0000
  H   H25       1.0  0.49210  0.11950  0.06760  1.0000
  H   H26       1.0  0.50790  0.88050  0.93240  1.0000
  C   C31       1.0  0.38720  0.03480  0.08490  1.0000
  C   C32       1.0  0.61280  0.96520  0.91510  1.0000
  C   C33       1.0  0.40130  0.96590  0.10350  1.0000
  C   C34       1.0  0.59870  0.03410  0.89650  1.0000
  H   H27       1.0  0.32410  0.93950  0.10620  1.0000
  H   H28       1.0  0.67590  0.06050  0.89380  1.0000
  C   C35       1.0  0.52070  0.93490  0.11790  1.0000
  C   C36       1.0  0.47930  0.06510  0.88210  1.0000
  C   C37       1.0  0.63750  0.97490  0.10820  1.0000
  C   C38       1.0  0.36250  0.02510  0.89180  1.0000
  H   H29       1.0  0.72270  0.95520  0.11410  1.0000
  H   H30       1.0  0.27730  0.04480  0.88590  1.0000
  C   C39       1.0  0.24880  0.06280  0.07360  1.0000
  C   C40       1.0  0.75120  0.93720  0.92640  1.0000
  C   C41       1.0  0.40700  0.83210  0.17030  1.0000
  C   C42       1.0  0.59300  0.16790  0.82970  1.0000
  H   H31       1.0  0.33530  0.84400  0.14280  1.0000
  H   H32       1.0  0.66470  0.15600  0.85720  1.0000
  H   H33       1.0  0.38390  0.85110  0.21540  1.0000
  H   H34       1.0  0.61610  0.14890  0.78460  1.0000
  H   H35       1.0  0.41700  0.78320  0.17340  1.0000
  H   H36       1.0  0.58300  0.21680  0.82660  1.0000
  C   C43       1.0  0.55800  0.81910  0.07190  1.0000
  C   C44       1.0  0.44200  0.18090  0.92810  1.0000
  H   H37       1.0  0.64160  0.83270  0.04600  1.0000
  H   H38       1.0  0.35840  0.16730  0.95400  1.0000
  H   H39       1.0  0.48310  0.82830  0.04580  1.0000
  H   H40       1.0  0.51690  0.17170  0.95420  1.0000
  H   H41       1.0  0.56450  0.77100  0.08180  1.0000
  H   H42       1.0  0.43550  0.22900  0.91820  1.0000
  C   C45       1.0  0.66800  0.83330  0.15830  1.0000
  C   C46       1.0  0.33200  0.16670  0.84170  1.0000
  H   H43       1.0  0.74110  0.85080  0.12680  1.0000
  H   H44       1.0  0.25890  0.14920  0.87320  1.0000
  H   H45       1.0  0.67250  0.78410  0.15650  1.0000
  H   H46       1.0  0.32750  0.21590  0.84350  1.0000
  H   H47       1.0  0.67830  0.84800  0.20380  1.0000
  H   H48       1.0  0.32170  0.15200  0.79620  1.0000
  C   C47       1.0  0.79480  0.58270  0.41200  1.0000
  C   C48       1.0  0.20520  0.41730  0.58800  1.0000
  C   C49       1.0  0.65710  0.58910  0.45340  1.0000
  C   C50       1.0  0.34290  0.41090  0.54660  1.0000
  C   C51       1.0  0.54050  0.57770  0.42400  1.0000
  C   C52       1.0  0.45950  0.42230  0.57600  1.0000
  H   H49       1.0  0.54700  0.56580  0.37800  1.0000
  H   H50       1.0  0.45300  0.43420  0.62200  1.0000
  C   C53       1.0  0.41210  0.58380  0.46280  1.0000
  C   C54       1.0  0.58790  0.41620  0.53720  1.0000
  C   C55       1.0  0.40480  0.60400  0.53240  1.0000
  C   C56       1.0  0.59520  0.39600  0.46760  1.0000
  H   H51       1.0  0.31970  0.60740  0.55860  1.0000
  H   H52       1.0  0.68030  0.39260  0.44140  1.0000
  C   C57       1.0  0.51860  0.61850  0.56210  1.0000
  C   C58       1.0  0.48140  0.38150  0.43790  1.0000
  C   C59       1.0  0.65110  0.60800  0.52140  1.0000
  C   C60       1.0  0.34890  0.39200  0.47860  1.0000
  H   H53       1.0  0.73120  0.61410  0.54090  1.0000
  H   H54       1.0  0.26880  0.38590  0.45910  1.0000
  C   C61       1.0  0.28020  0.57120  0.43550  1.0000
  C   C62       1.0  0.71980  0.42880  0.56450  1.0000
  C   C63       1.0  0.50200  0.64140  0.63790  1.0000
  C   C64       1.0  0.49800  0.35860  0.36210  1.0000
  C   C65       1.0  0.63300  0.64460  0.66840  1.0000
  C   C66       1.0  0.36700  0.35540  0.33160  1.0000
  H   H55       1.0  0.69320  0.60710  0.65150  1.0000
  H   H56       1.0  0.30680  0.39290  0.34850  1.0000
  H   H57       1.0  0.61450  0.64160  0.71740  1.0000
  H   H58       1.0  0.38550  0.35840  0.28260  1.0000
  H   H59       1.0  0.67490  0.68710  0.65600  1.0000
  H   H60       1.0  0.32510  0.31290  0.34400  1.0000
  C   C67       1.0  0.42200  0.58640  0.67730  1.0000
  C   C68       1.0  0.57800  0.41360  0.32270  1.0000
  H   H61       1.0  0.34150  0.57810  0.65630  1.0000
  H   H62       1.0  0.65850  0.42190  0.34370  1.0000
  H   H63       1.0  0.39680  0.60120  0.72370  1.0000
  H   H64       1.0  0.60320  0.39880  0.27630  1.0000
  H   H65       1.0  0.47810  0.54490  0.67700  1.0000
  H   H66       1.0  0.52190  0.45510  0.32300  1.0000
  C   C69       1.0  0.40000  0.69940  0.65130  1.0000
  C   C70       1.0  0.60000  0.30060  0.34870  1.0000
  H   H67       1.0  0.31460  0.68690  0.63740  1.0000
  H   H68       1.0  0.68540  0.31310  0.36260  1.0000
  H   H69       1.0  0.43250  0.73890  0.62580  1.0000
  H   H70       1.0  0.56750  0.26110  0.37420  1.0000
  H   H71       1.0  0.38820  0.71000  0.69930  1.0000
  H   H72       1.0  0.61180  0.29000  0.30070  1.0000
  C   C71       1.0  0.06680  0.69340  0.27400  1.0000
  C   C72       1.0  0.93320  0.30660  0.72600  1.0000
  C   C73       1.0  0.04860  0.75950  0.23810  1.0000
  C   C74       1.0  0.95140  0.24050  0.76190  1.0000
  C   C75       1.0  0.03410  0.81960  0.27570  1.0000
  C   C76       1.0  0.96590  0.18040  0.72430  1.0000
  H   H73       1.0  0.03080  0.81650  0.32300  1.0000
  H   H74       1.0  0.96920  0.18350  0.67700  1.0000
  C   C77       1.0  0.02420  0.88510  0.24640  1.0000
  C   C78       1.0  0.97580  0.11490  0.75360  1.0000
  C   C79       1.0  0.04250  0.76420  0.16800  1.0000
  C   C80       1.0  0.95750  0.23580  0.83200  1.0000
  H   H75       1.0  0.05080  0.72480  0.14110  1.0000
  H   H76       1.0  0.94920  0.27520  0.85890  1.0000
  C   C81       1.0  0.02410  0.82700  0.13880  1.0000
  C   C82       1.0  0.97590  0.17300  0.86120  1.0000
  C   C83       1.0  0.01610  0.88590  0.17500  1.0000
  C   C84       1.0  0.98390  0.11410  0.82500  1.0000
  H   H77       1.0  0.00520  0.92750  0.15270  1.0000
  H   H78       1.0  0.99480  0.07250  0.84730  1.0000
  C   C85       1.0  0.00760  0.83230  0.06250  1.0000
  C   C86       1.0  0.99240  0.16770  0.93750  1.0000
  C   C87       1.0  0.01110  0.95010  0.28840  1.0000
  C   C88       1.0  0.98890  0.04990  0.71160  1.0000
  C   C89       1.0  0.11900  0.00020  0.25930  1.0000
  C   C90       1.0  0.88100  0.99980  0.74070  1.0000
  H   H79       1.0  0.11600  0.00500  0.21090  1.0000
  H   H80       1.0  0.88400  0.99500  0.78910  1.0000
  H   H81       1.0  0.20770  0.98290  0.26760  1.0000
  H   H82       1.0  0.79230  0.01710  0.73240  1.0000
  H   H83       1.0  0.09980  0.04400  0.28100  1.0000
  H   H84       1.0  0.90020  0.95600  0.71900  1.0000
  C   C91       1.0  0.88900  0.99350  0.27790  1.0000
  C   C92       1.0  0.11100  0.00650  0.72210  1.0000
  H   H85       1.0  0.88490  0.99950  0.22970  1.0000
  H   H86       1.0  0.11510  0.00050  0.77030  1.0000
  H   H87       1.0  0.89490  0.03740  0.29890  1.0000
  H   H88       1.0  0.10510  0.96260  0.70110  1.0000
  H   H89       1.0  0.80830  0.97180  0.29820  1.0000
  H   H90       1.0  0.19170  0.02820  0.70180  1.0000
  C   C93       1.0  0.01200  0.94430  0.36010  1.0000
  C   C94       1.0  0.98800  0.05570  0.63990  1.0000
  H   H91       1.0  0.09190  0.91820  0.36950  1.0000
  H   H92       1.0  0.90810  0.08180  0.63050  1.0000
  H   H93       1.0  0.93150  0.92160  0.37960  1.0000
  H   H94       1.0  0.06850  0.07840  0.62040  1.0000
  H   H95       1.0  0.01210  0.98920  0.37970  1.0000
  H   H96       1.0  0.98790  0.01080  0.62030  1.0000
  O   O1        1.0  0.97210  0.16020  0.19650  1.0000
  O   O2        1.0  0.02790  0.83980  0.80350  1.0000
  O   O3        1.0  0.99700  0.25640  0.14110  1.0000
  O   O4        1.0  0.00300  0.74360  0.85890  1.0000
  O   O5        1.0  0.04800  0.45840  0.39230  1.0000
  O   O6        1.0  0.95200  0.54160  0.60770  1.0000
  O   O7        1.0  0.04550  0.47130  0.28120  1.0000
  O   O8        1.0  0.95450  0.52870  0.71880  1.0000
  O   O9        1.0  0.73910  0.14940  0.07470  1.0000
  O   O10       1.0  0.26090  0.85060  0.92530  1.0000
  O   O11       1.0  0.86910  0.05440  0.08850  1.0000
  O   O12       1.0  0.13090  0.94560  0.91150  1.0000
  O   O13       1.0  0.16160  0.01940  0.06490  1.0000
  O   O14       1.0  0.83840  0.98060  0.93510  1.0000
  O   O15       1.0  0.22470  0.12720  0.07280  1.0000
  O   O16       1.0  0.77530  0.87280  0.92720  1.0000
  O   O17       1.0  0.79850  0.57730  0.34980  1.0000
  O   O18       1.0  0.20150  0.42270  0.65020  1.0000
  O   O19       1.0  0.90070  0.58640  0.44360  1.0000
  O   O20       1.0  0.09930  0.41360  0.55640  1.0000
  O   O21       1.0  0.17980  0.56550  0.47850  1.0000
  O   O22       1.0  0.82020  0.43450  0.52150  1.0000
  O   O23       1.0  0.27610  0.56960  0.37040  1.0000
  O   O24       1.0  0.72390  0.43040  0.62960  1.0000
  O   O25       1.0  0.05990  0.63700  0.24090  1.0000
  O   O26       1.0  0.94010  0.36300  0.75910  1.0000
  O   O27       1.0  0.07390  0.69350  0.33680  1.0000
  O   O28       1.0  0.92610  0.30650  0.66320  1.0000
  O   O29       1.0  0.02170  0.77900  0.02570  1.0000
  O   O30       1.0  0.97830  0.22100  0.97430  1.0000
  O   O31       1.0  0.98260  0.89070  0.03770  1.0000
  O   O32       1.0  0.01740  0.10930  0.96230  1.0000
  C   C95       1.0  0.53420  0.85960  0.13910  1.0000
  C   C96       1.0  0.46580  0.14040  0.86090  1.0000
