data_image0
_chemical_formula_structural       Mn4C12H12C36H24C12N12H12O48H24
_chemical_formula_sum              "Mn4 C60 H72 N12 O48"
_cell_length_a       13.5355
_cell_length_b       13.5355
_cell_length_c       15.0984
_cell_angle_alpha    90
_cell_angle_beta     90
_cell_angle_gamma    120

_space_group_name_H-M_alt    "P 1"
_space_group_IT_number       1

loop_
  _space_group_symop_operation_xyz
  'x, y, z'

loop_
  _atom_site_type_symbol
  _atom_site_label
  _atom_site_symmetry_multiplicity
  _atom_site_fract_x
  _atom_site_fract_y
  _atom_site_fract_z
  _atom_site_occupancy
  Mn  Mn1       1.0  0.66670  0.33330  0.57848  1.0000
  Mn  Mn2       1.0  0.66670  0.33340  0.92152  1.0000
  Mn  Mn3       1.0  0.33330  0.66670  0.42152  1.0000
  Mn  Mn4       1.0  0.33330  0.66660  0.07848  1.0000
  C   C1        1.0  0.08020  0.11530  0.37640  1.0000
  C   C2        1.0  0.88470  0.96490  0.37640  1.0000
  C   C3        1.0  0.03510  0.91980  0.37640  1.0000
  C   C4        1.0  0.08020  0.96490  0.12360  1.0000
  C   C5        1.0  0.03510  0.11530  0.12360  1.0000
  C   C6        1.0  0.88470  0.91980  0.12360  1.0000
  C   C7        1.0  0.91980  0.88470  0.62360  1.0000
  C   C8        1.0  0.11530  0.03510  0.62360  1.0000
  C   C9        1.0  0.96490  0.08020  0.62360  1.0000
  C   C10       1.0  0.91980  0.03510  0.87640  1.0000
  C   C11       1.0  0.96490  0.88470  0.87640  1.0000
  C   C12       1.0  0.11530  0.08020  0.87640  1.0000
  H   H1        1.0  0.13430  0.19260  0.37610  1.0000
  H   H2        1.0  0.80740  0.94170  0.37610  1.0000
  H   H3        1.0  0.05830  0.86570  0.37610  1.0000
  H   H4        1.0  0.13430  0.94170  0.12390  1.0000
  H   H5        1.0  0.05830  0.19260  0.12390  1.0000
  H   H6        1.0  0.80740  0.86570  0.12390  1.0000
  H   H7        1.0  0.86570  0.80740  0.62390  1.0000
  H   H8        1.0  0.19260  0.05830  0.62390  1.0000
  H   H9        1.0  0.94170  0.13430  0.62390  1.0000
  H   H10       1.0  0.86570  0.05830  0.87610  1.0000
  H   H11       1.0  0.94170  0.80740  0.87610  1.0000
  H   H12       1.0  0.19260  0.13430  0.87610  1.0000
  C   C13       1.0  0.96580  0.08120  0.37662  1.0000
  C   C14       1.0  0.91880  0.88460  0.37662  1.0000
  C   C15       1.0  0.11540  0.03420  0.37662  1.0000
  C   C16       1.0  0.96580  0.88460  0.12338  1.0000
  C   C17       1.0  0.11540  0.08120  0.12338  1.0000
  C   C18       1.0  0.91880  0.03420  0.12338  1.0000
  C   C19       1.0  0.03420  0.91880  0.62338  1.0000
  C   C20       1.0  0.08120  0.11540  0.62338  1.0000
  C   C21       1.0  0.88460  0.96580  0.62338  1.0000
  C   C22       1.0  0.03420  0.11540  0.87662  1.0000
  C   C23       1.0  0.88460  0.91880  0.87662  1.0000
  C   C24       1.0  0.08120  0.96580  0.87662  1.0000
  C   C25       1.0  0.92120  0.16290  0.38076  1.0000
  C   C26       1.0  0.83710  0.75830  0.38076  1.0000
  C   C27       1.0  0.24170  0.07880  0.38076  1.0000
  C   C28       1.0  0.92120  0.75830  0.11924  1.0000
  C   C29       1.0  0.24170  0.16290  0.11924  1.0000
  C   C30       1.0  0.83710  0.07880  0.11924  1.0000
  C   C31       1.0  0.07880  0.83710  0.61924  1.0000
  C   C32       1.0  0.16290  0.24170  0.61924  1.0000
  C   C33       1.0  0.75830  0.92120  0.61924  1.0000
  C   C34       1.0  0.07880  0.24170  0.88076  1.0000
  C   C35       1.0  0.75830  0.83710  0.88076  1.0000
  C   C36       1.0  0.16290  0.92120  0.88076  1.0000
  C   C37       1.0  0.95370  0.34690  0.42720  1.0000
  C   C38       1.0  0.65310  0.60680  0.42720  1.0000
  C   C39       1.0  0.39320  0.04630  0.42720  1.0000
  C   C40       1.0  0.95370  0.60680  0.07280  1.0000
  C   C41       1.0  0.39320  0.34690  0.07280  1.0000
  C   C42       1.0  0.65310  0.04630  0.07280  1.0000
  C   C43       1.0  0.04630  0.65310  0.57280  1.0000
  C   C44       1.0  0.34690  0.39320  0.57280  1.0000
  C   C45       1.0  0.60680  0.95370  0.57280  1.0000
  C   C46       1.0  0.04630  0.39320  0.92720  1.0000
  C   C47       1.0  0.60680  0.65310  0.92720  1.0000
  C   C48       1.0  0.34690  0.95370  0.92720  1.0000
  H   H13       1.0  0.92430  0.35690  0.37140  1.0000
  H   H14       1.0  0.64310  0.56740  0.37140  1.0000
  H   H15       1.0  0.43260  0.07570  0.37140  1.0000
  H   H16       1.0  0.92430  0.56740  0.12860  1.0000
  H   H17       1.0  0.43260  0.35690  0.12860  1.0000
  H   H18       1.0  0.64310  0.07570  0.12860  1.0000
  H   H19       1.0  0.07570  0.64310  0.62860  1.0000
  H   H20       1.0  0.35690  0.43260  0.62860  1.0000
  H   H21       1.0  0.56740  0.92430  0.62860  1.0000
  H   H22       1.0  0.07570  0.43260  0.87140  1.0000
  H   H23       1.0  0.56740  0.64310  0.87140  1.0000
  H   H24       1.0  0.35690  0.92430  0.87140  1.0000
  H   H25       1.0  0.01900  0.41980  0.44330  1.0000
  H   H26       1.0  0.58020  0.59920  0.44330  1.0000
  H   H27       1.0  0.40080  0.98100  0.44330  1.0000
  H   H28       1.0  0.01900  0.59920  0.05670  1.0000
  H   H29       1.0  0.40080  0.41980  0.05670  1.0000
  H   H30       1.0  0.58020  0.98100  0.05670  1.0000
  H   H31       1.0  0.98100  0.58020  0.55670  1.0000
  H   H32       1.0  0.41980  0.40080  0.55670  1.0000
  H   H33       1.0  0.59920  0.01900  0.55670  1.0000
  H   H34       1.0  0.98100  0.40080  0.94330  1.0000
  H   H35       1.0  0.59920  0.58020  0.94330  1.0000
  H   H36       1.0  0.41980  0.01900  0.94330  1.0000
  C   C49       1.0  0.86370  0.31361  0.49677  1.0000
  C   C50       1.0  0.68639  0.55009  0.49677  1.0000
  C   C51       1.0  0.44991  0.13630  0.49677  1.0000
  C   C52       1.0  0.86370  0.55009  0.00323  1.0000
  C   C53       1.0  0.44991  0.31361  0.00323  1.0000
  C   C54       1.0  0.68639  0.13630  0.00323  1.0000
  C   C55       1.0  0.13630  0.68639  0.50323  1.0000
  C   C56       1.0  0.31361  0.44991  0.50323  1.0000
  C   C57       1.0  0.55009  0.86370  0.50323  1.0000
  C   C58       1.0  0.13630  0.44991  0.99677  1.0000
  C   C59       1.0  0.55009  0.68639  0.99677  1.0000
  C   C60       1.0  0.31361  0.86370  0.99677  1.0000
  N   N1        1.0  0.99210  0.26421  0.41440  1.0000
  N   N2        1.0  0.73579  0.72789  0.41440  1.0000
  N   N3        1.0  0.27211  0.00790  0.41440  1.0000
  N   N4        1.0  0.99210  0.72789  0.08560  1.0000
  N   N5        1.0  0.27211  0.26421  0.08560  1.0000
  N   N6        1.0  0.73579  0.00790  0.08560  1.0000
  N   N7        1.0  0.00790  0.73579  0.58560  1.0000
  N   N8        1.0  0.26421  0.27211  0.58560  1.0000
  N   N9        1.0  0.72789  0.99210  0.58560  1.0000
  N   N10       1.0  0.00790  0.27211  0.91440  1.0000
  N   N11       1.0  0.72789  0.73579  0.91440  1.0000
  N   N12       1.0  0.26421  0.99210  0.91440  1.0000
  H   H37       1.0  0.06360  0.28230  0.42940  1.0000
  H   H38       1.0  0.71770  0.78130  0.42940  1.0000
  H   H39       1.0  0.21870  0.93640  0.42940  1.0000
  H   H40       1.0  0.06360  0.78130  0.07060  1.0000
  H   H41       1.0  0.21870  0.28230  0.07060  1.0000
  H   H42       1.0  0.71770  0.93640  0.07060  1.0000
  H   H43       1.0  0.93640  0.71770  0.57060  1.0000
  H   H44       1.0  0.28230  0.21870  0.57060  1.0000
  H   H45       1.0  0.78130  0.06360  0.57060  1.0000
  H   H46       1.0  0.93640  0.21870  0.92940  1.0000
  H   H47       1.0  0.78130  0.71770  0.92940  1.0000
  H   H48       1.0  0.28230  0.06360  0.92940  1.0000
  O   O1        1.0  0.81298  0.37043  0.49711  1.0000
  O   O2        1.0  0.62957  0.44255  0.49711  1.0000
  O   O3        1.0  0.55745  0.18702  0.49711  1.0000
  O   O4        1.0  0.81298  0.44255  0.00289  1.0000
  O   O5        1.0  0.55745  0.37043  0.00289  1.0000
  O   O6        1.0  0.62957  0.18702  0.00289  1.0000
  O   O7        1.0  0.18702  0.62957  0.50289  1.0000
  O   O8        1.0  0.37043  0.55745  0.50289  1.0000
  O   O9        1.0  0.44255  0.81298  0.50289  1.0000
  O   O10       1.0  0.18702  0.55745  0.99711  1.0000
  O   O11       1.0  0.44255  0.62957  0.99711  1.0000
  O   O12       1.0  0.37043  0.81298  0.99711  1.0000
  O   O13       1.0  0.84470  0.23584  0.55026  1.0000
  O   O14       1.0  0.76416  0.60886  0.55026  1.0000
  O   O15       1.0  0.39114  0.15530  0.55026  1.0000
  O   O16       1.0  0.84470  0.60886  0.94974  1.0000
  O   O17       1.0  0.39114  0.23584  0.94974  1.0000
  O   O18       1.0  0.76416  0.15530  0.94974  1.0000
  O   O19       1.0  0.15530  0.76416  0.44974  1.0000
  O   O20       1.0  0.23584  0.39114  0.44974  1.0000
  O   O21       1.0  0.60886  0.84470  0.44974  1.0000
  O   O22       1.0  0.15530  0.39114  0.05026  1.0000
  O   O23       1.0  0.60886  0.76416  0.05026  1.0000
  O   O24       1.0  0.23584  0.84470  0.05026  1.0000
  O   O25       1.0  0.82375  0.13331  0.35652  1.0000
  O   O26       1.0  0.86669  0.69044  0.35652  1.0000
  O   O27       1.0  0.30956  0.17625  0.35652  1.0000
  O   O28       1.0  0.82375  0.69044  0.14348  1.0000
  O   O29       1.0  0.30956  0.13331  0.14348  1.0000
  O   O30       1.0  0.86669  0.17625  0.14348  1.0000
  O   O31       1.0  0.17625  0.86669  0.64348  1.0000
  O   O32       1.0  0.13331  0.30956  0.64348  1.0000
  O   O33       1.0  0.69044  0.82375  0.64348  1.0000
  O   O34       1.0  0.17625  0.30956  0.85652  1.0000
  O   O35       1.0  0.69044  0.86669  0.85652  1.0000
  O   O36       1.0  0.13331  0.82375  0.85652  1.0000
  O   O37       1.0  0.52476  0.30457  0.66774  1.0000
  O   O38       1.0  0.69543  0.22019  0.66774  1.0000
  O   O39       1.0  0.77981  0.47524  0.66774  1.0000
  O   O40       1.0  0.52476  0.22019  0.83226  1.0000
  O   O41       1.0  0.77981  0.30457  0.83226  1.0000
  O   O42       1.0  0.69543  0.47524  0.83226  1.0000
  O   O43       1.0  0.47524  0.69543  0.33226  1.0000
  O   O44       1.0  0.30457  0.77981  0.33226  1.0000
  O   O45       1.0  0.22019  0.52476  0.33226  1.0000
  O   O46       1.0  0.47524  0.77981  0.16774  1.0000
  O   O47       1.0  0.22019  0.69543  0.16774  1.0000
  O   O48       1.0  0.30457  0.52476  0.16774  1.0000
  H   H49       1.0  0.46590  0.23910  0.65810  1.0000
  H   H50       1.0  0.76090  0.22680  0.65810  1.0000
  H   H51       1.0  0.77320  0.53410  0.65810  1.0000
  H   H52       1.0  0.46590  0.22680  0.84190  1.0000
  H   H53       1.0  0.77320  0.23910  0.84190  1.0000
  H   H54       1.0  0.76090  0.53410  0.84190  1.0000
  H   H55       1.0  0.53410  0.76090  0.34190  1.0000
  H   H56       1.0  0.23910  0.77320  0.34190  1.0000
  H   H57       1.0  0.22680  0.46590  0.34190  1.0000
  H   H58       1.0  0.53410  0.77320  0.15810  1.0000
  H   H59       1.0  0.22680  0.76090  0.15810  1.0000
  H   H60       1.0  0.23910  0.46590  0.15810  1.0000
  H   H61       1.0  0.50810  0.35700  0.65790  1.0000
  H   H62       1.0  0.64300  0.15110  0.65790  1.0000
  H   H63       1.0  0.84890  0.49190  0.65790  1.0000
  H   H64       1.0  0.50810  0.15110  0.84210  1.0000
  H   H65       1.0  0.84890  0.35700  0.84210  1.0000
  H   H66       1.0  0.64300  0.49190  0.84210  1.0000
  H   H67       1.0  0.49190  0.64300  0.34210  1.0000
  H   H68       1.0  0.35700  0.84890  0.34210  1.0000
  H   H69       1.0  0.15110  0.50810  0.34210  1.0000
  H   H70       1.0  0.49190  0.84890  0.15790  1.0000
  H   H71       1.0  0.15110  0.64300  0.15790  1.0000
  H   H72       1.0  0.35700  0.50810  0.15790  1.0000
