data_image0
_chemical_formula_structural       Zn4C12H12C36H24C12N12H12O48H24
_chemical_formula_sum              "Zn4 C60 H72 N12 O48"
_cell_length_a       13.416
_cell_length_b       13.416
_cell_length_c       14.883
_cell_angle_alpha    90
_cell_angle_beta     90
_cell_angle_gamma    120

_space_group_name_H-M_alt    "P 1"
_space_group_IT_number       1

loop_
  _space_group_symop_operation_xyz
  'x, y, z'

loop_
  _atom_site_type_symbol
  _atom_site_label
  _atom_site_symmetry_multiplicity
  _atom_site_fract_x
  _atom_site_fract_y
  _atom_site_fract_z
  _atom_site_occupancy
  Zn  Zn1       1.0  0.66670  0.33330  0.57909  1.0000
  Zn  Zn2       1.0  0.66660  0.33330  0.92091  1.0000
  Zn  Zn3       1.0  0.33330  0.66670  0.42091  1.0000
  Zn  Zn4       1.0  0.33340  0.66670  0.07909  1.0000
  C   C1        1.0  0.08010  0.11610  0.37520  1.0000
  C   C2        1.0  0.88390  0.96400  0.37520  1.0000
  C   C3        1.0  0.03600  0.91990  0.37520  1.0000
  C   C4        1.0  0.03600  0.11610  0.12480  1.0000
  C   C5        1.0  0.08010  0.96400  0.12480  1.0000
  C   C6        1.0  0.88390  0.91990  0.12480  1.0000
  C   C7        1.0  0.91990  0.88390  0.62480  1.0000
  C   C8        1.0  0.11610  0.03600  0.62480  1.0000
  C   C9        1.0  0.96400  0.08010  0.62480  1.0000
  C   C10       1.0  0.96400  0.88390  0.87520  1.0000
  C   C11       1.0  0.91990  0.03600  0.87520  1.0000
  C   C12       1.0  0.11610  0.08010  0.87520  1.0000
  H   H1        1.0  0.13410  0.19420  0.37500  1.0000
  H   H2        1.0  0.80580  0.93990  0.37500  1.0000
  H   H3        1.0  0.06010  0.86590  0.37500  1.0000
  H   H4        1.0  0.06010  0.19420  0.12500  1.0000
  H   H5        1.0  0.13410  0.93990  0.12500  1.0000
  H   H6        1.0  0.80580  0.86590  0.12500  1.0000
  H   H7        1.0  0.86590  0.80580  0.62500  1.0000
  H   H8        1.0  0.19420  0.06010  0.62500  1.0000
  H   H9        1.0  0.93990  0.13410  0.62500  1.0000
  H   H10       1.0  0.93990  0.80580  0.87500  1.0000
  H   H11       1.0  0.86590  0.06010  0.87500  1.0000
  H   H12       1.0  0.19420  0.13410  0.87500  1.0000
  C   C13       1.0  0.96410  0.08030  0.37530  1.0000
  C   C14       1.0  0.91970  0.88380  0.37530  1.0000
  C   C15       1.0  0.11620  0.03590  0.37530  1.0000
  C   C16       1.0  0.11620  0.08030  0.12470  1.0000
  C   C17       1.0  0.96410  0.88380  0.12470  1.0000
  C   C18       1.0  0.91970  0.03590  0.12470  1.0000
  C   C19       1.0  0.03590  0.91970  0.62470  1.0000
  C   C20       1.0  0.08030  0.11620  0.62470  1.0000
  C   C21       1.0  0.88380  0.96410  0.62470  1.0000
  C   C22       1.0  0.88380  0.91970  0.87530  1.0000
  C   C23       1.0  0.03590  0.11620  0.87530  1.0000
  C   C24       1.0  0.08030  0.96410  0.87530  1.0000
  C   C25       1.0  0.91960  0.16230  0.38060  1.0000
  C   C26       1.0  0.83770  0.75730  0.38060  1.0000
  C   C27       1.0  0.24270  0.08040  0.38060  1.0000
  C   C28       1.0  0.24270  0.16230  0.11940  1.0000
  C   C29       1.0  0.91960  0.75730  0.11940  1.0000
  C   C30       1.0  0.83770  0.08040  0.11940  1.0000
  C   C31       1.0  0.08040  0.83770  0.61940  1.0000
  C   C32       1.0  0.16230  0.24270  0.61940  1.0000
  C   C33       1.0  0.75730  0.91960  0.61940  1.0000
  C   C34       1.0  0.75730  0.83770  0.88060  1.0000
  C   C35       1.0  0.08040  0.24270  0.88060  1.0000
  C   C36       1.0  0.16230  0.91960  0.88060  1.0000
  C   C37       1.0  0.95190  0.34820  0.42780  1.0000
  C   C38       1.0  0.65180  0.60370  0.42780  1.0000
  C   C39       1.0  0.39630  0.04810  0.42780  1.0000
  C   C40       1.0  0.39630  0.34820  0.07220  1.0000
  C   C41       1.0  0.95190  0.60370  0.07220  1.0000
  C   C42       1.0  0.65180  0.04810  0.07220  1.0000
  C   C43       1.0  0.04810  0.65180  0.57220  1.0000
  C   C44       1.0  0.34820  0.39630  0.57220  1.0000
  C   C45       1.0  0.60370  0.95190  0.57220  1.0000
  C   C46       1.0  0.60370  0.65180  0.92780  1.0000
  C   C47       1.0  0.04810  0.39630  0.92780  1.0000
  C   C48       1.0  0.34820  0.95190  0.92780  1.0000
  H   H13       1.0  0.92240  0.35880  0.37120  1.0000
  H   H14       1.0  0.64120  0.56360  0.37120  1.0000
  H   H15       1.0  0.43640  0.07760  0.37120  1.0000
  H   H16       1.0  0.43640  0.35880  0.12880  1.0000
  H   H17       1.0  0.92240  0.56360  0.12880  1.0000
  H   H18       1.0  0.64120  0.07760  0.12880  1.0000
  H   H19       1.0  0.07760  0.64120  0.62880  1.0000
  H   H20       1.0  0.35880  0.43640  0.62880  1.0000
  H   H21       1.0  0.56360  0.92240  0.62880  1.0000
  H   H22       1.0  0.56360  0.64120  0.87120  1.0000
  H   H23       1.0  0.07760  0.43640  0.87120  1.0000
  H   H24       1.0  0.35880  0.92240  0.87120  1.0000
  H   H25       1.0  0.01730  0.42180  0.44460  1.0000
  H   H26       1.0  0.57820  0.59550  0.44460  1.0000
  H   H27       1.0  0.40450  0.98270  0.44460  1.0000
  H   H28       1.0  0.40450  0.42180  0.05540  1.0000
  H   H29       1.0  0.01730  0.59550  0.05540  1.0000
  H   H30       1.0  0.57820  0.98270  0.05540  1.0000
  H   H31       1.0  0.98270  0.57820  0.55540  1.0000
  H   H32       1.0  0.42180  0.40450  0.55540  1.0000
  H   H33       1.0  0.59550  0.01730  0.55540  1.0000
  H   H34       1.0  0.59550  0.57820  0.94460  1.0000
  H   H35       1.0  0.98270  0.40450  0.94460  1.0000
  H   H36       1.0  0.42180  0.01730  0.94460  1.0000
  C   C49       1.0  0.85980  0.31250  0.49840  1.0000
  C   C50       1.0  0.68750  0.54730  0.49840  1.0000
  C   C51       1.0  0.45270  0.14020  0.49840  1.0000
  C   C52       1.0  0.45270  0.31250  0.00160  1.0000
  C   C53       1.0  0.85980  0.54730  0.00160  1.0000
  C   C54       1.0  0.68750  0.14020  0.00160  1.0000
  C   C55       1.0  0.14020  0.68750  0.50160  1.0000
  C   C56       1.0  0.31250  0.45270  0.50160  1.0000
  C   C57       1.0  0.54730  0.85980  0.50160  1.0000
  C   C58       1.0  0.54730  0.68750  0.99840  1.0000
  C   C59       1.0  0.14020  0.45270  0.99840  1.0000
  C   C60       1.0  0.31250  0.85980  0.99840  1.0000
  N   N1        1.0  0.98980  0.26540  0.41420  1.0000
  N   N2        1.0  0.73460  0.72440  0.41420  1.0000
  N   N3        1.0  0.27560  0.01020  0.41420  1.0000
  N   N4        1.0  0.27560  0.26540  0.08580  1.0000
  N   N5        1.0  0.98980  0.72440  0.08580  1.0000
  N   N6        1.0  0.73460  0.01020  0.08580  1.0000
  N   N7        1.0  0.01020  0.73460  0.58580  1.0000
  N   N8        1.0  0.26540  0.27560  0.58580  1.0000
  N   N9        1.0  0.72440  0.98980  0.58580  1.0000
  N   N10       1.0  0.72440  0.73460  0.91420  1.0000
  N   N11       1.0  0.01020  0.27560  0.91420  1.0000
  N   N12       1.0  0.26540  0.98980  0.91420  1.0000
  H   H37       1.0  0.06240  0.28450  0.42880  1.0000
  H   H38       1.0  0.71550  0.77790  0.42880  1.0000
  H   H39       1.0  0.22210  0.93760  0.42880  1.0000
  H   H40       1.0  0.22210  0.28450  0.07120  1.0000
  H   H41       1.0  0.06240  0.77790  0.07120  1.0000
  H   H42       1.0  0.71550  0.93760  0.07120  1.0000
  H   H43       1.0  0.93760  0.71550  0.57120  1.0000
  H   H44       1.0  0.28450  0.22210  0.57120  1.0000
  H   H45       1.0  0.77790  0.06240  0.57120  1.0000
  H   H46       1.0  0.77790  0.71550  0.92880  1.0000
  H   H47       1.0  0.93760  0.22210  0.92880  1.0000
  H   H48       1.0  0.28450  0.06240  0.92880  1.0000
  O   O1        1.0  0.80699  0.36832  0.49803  1.0000
  O   O2        1.0  0.63168  0.43867  0.49803  1.0000
  O   O3        1.0  0.56133  0.19301  0.49803  1.0000
  O   O4        1.0  0.56133  0.36832  0.00197  1.0000
  O   O5        1.0  0.80699  0.43867  0.00197  1.0000
  O   O6        1.0  0.63168  0.19301  0.00197  1.0000
  O   O7        1.0  0.19301  0.63168  0.50197  1.0000
  O   O8        1.0  0.36832  0.56133  0.50197  1.0000
  O   O9        1.0  0.43867  0.80699  0.50197  1.0000
  O   O10       1.0  0.43867  0.63168  0.99803  1.0000
  O   O11       1.0  0.19301  0.56133  0.99803  1.0000
  O   O12       1.0  0.36832  0.80699  0.99803  1.0000
  O   O13       1.0  0.84240  0.23510  0.55190  1.0000
  O   O14       1.0  0.76490  0.60730  0.55190  1.0000
  O   O15       1.0  0.39270  0.15760  0.55190  1.0000
  O   O16       1.0  0.39270  0.23510  0.94810  1.0000
  O   O17       1.0  0.84240  0.60730  0.94810  1.0000
  O   O18       1.0  0.76490  0.15760  0.94810  1.0000
  O   O19       1.0  0.15760  0.76490  0.44810  1.0000
  O   O20       1.0  0.23510  0.39270  0.44810  1.0000
  O   O21       1.0  0.60730  0.84240  0.44810  1.0000
  O   O22       1.0  0.60730  0.76490  0.05190  1.0000
  O   O23       1.0  0.15760  0.39270  0.05190  1.0000
  O   O24       1.0  0.23510  0.84240  0.05190  1.0000
  O   O25       1.0  0.82090  0.13330  0.35603  1.0000
  O   O26       1.0  0.86670  0.68760  0.35603  1.0000
  O   O27       1.0  0.31240  0.17910  0.35603  1.0000
  O   O28       1.0  0.31240  0.13330  0.14397  1.0000
  O   O29       1.0  0.82090  0.68760  0.14397  1.0000
  O   O30       1.0  0.86670  0.17910  0.14397  1.0000
  O   O31       1.0  0.17910  0.86670  0.64397  1.0000
  O   O32       1.0  0.13330  0.31240  0.64397  1.0000
  O   O33       1.0  0.68760  0.82090  0.64397  1.0000
  O   O34       1.0  0.68760  0.86670  0.85603  1.0000
  O   O35       1.0  0.17910  0.31240  0.85603  1.0000
  O   O36       1.0  0.13330  0.82090  0.85603  1.0000
  O   O37       1.0  0.53110  0.30890  0.66605  1.0000
  O   O38       1.0  0.69110  0.22220  0.66605  1.0000
  O   O39       1.0  0.77780  0.46890  0.66605  1.0000
  O   O40       1.0  0.77780  0.30890  0.83395  1.0000
  O   O41       1.0  0.53110  0.22220  0.83395  1.0000
  O   O42       1.0  0.69110  0.46890  0.83395  1.0000
  O   O43       1.0  0.46890  0.69110  0.33395  1.0000
  O   O44       1.0  0.30890  0.77780  0.33395  1.0000
  O   O45       1.0  0.22220  0.53110  0.33395  1.0000
  O   O46       1.0  0.22220  0.69110  0.16605  1.0000
  O   O47       1.0  0.46890  0.77780  0.16605  1.0000
  O   O48       1.0  0.30890  0.53110  0.16605  1.0000
  H   H49       1.0  0.47220  0.24340  0.65650  1.0000
  H   H50       1.0  0.75660  0.22880  0.65650  1.0000
  H   H51       1.0  0.77120  0.52780  0.65650  1.0000
  H   H52       1.0  0.77120  0.24340  0.84350  1.0000
  H   H53       1.0  0.47220  0.22880  0.84350  1.0000
  H   H54       1.0  0.75660  0.52780  0.84350  1.0000
  H   H55       1.0  0.52780  0.75660  0.34350  1.0000
  H   H56       1.0  0.24340  0.77120  0.34350  1.0000
  H   H57       1.0  0.22880  0.47220  0.34350  1.0000
  H   H58       1.0  0.22880  0.75660  0.15650  1.0000
  H   H59       1.0  0.52780  0.77120  0.15650  1.0000
  H   H60       1.0  0.24340  0.47220  0.15650  1.0000
  H   H61       1.0  0.51440  0.36130  0.65630  1.0000
  H   H62       1.0  0.63870  0.15310  0.65630  1.0000
  H   H63       1.0  0.84690  0.48560  0.65630  1.0000
  H   H64       1.0  0.84690  0.36130  0.84370  1.0000
  H   H65       1.0  0.51440  0.15310  0.84370  1.0000
  H   H66       1.0  0.63870  0.48560  0.84370  1.0000
  H   H67       1.0  0.48560  0.63870  0.34370  1.0000
  H   H68       1.0  0.36130  0.84690  0.34370  1.0000
  H   H69       1.0  0.15310  0.51440  0.34370  1.0000
  H   H70       1.0  0.15310  0.63870  0.15630  1.0000
  H   H71       1.0  0.48560  0.84690  0.15630  1.0000
  H   H72       1.0  0.36130  0.51440  0.15630  1.0000
