data_image0
_chemical_formula_structural       Co4C12H12C36H24C12N12H12O48H24
_chemical_formula_sum              "Co4 C60 H72 N12 O48"
_cell_length_a       13.4793
_cell_length_b       13.4793
_cell_length_c       14.936
_cell_angle_alpha    90
_cell_angle_beta     90
_cell_angle_gamma    120

_space_group_name_H-M_alt    "P 1"
_space_group_IT_number       1

loop_
  _space_group_symop_operation_xyz
  'x, y, z'

loop_
  _atom_site_type_symbol
  _atom_site_label
  _atom_site_symmetry_multiplicity
  _atom_site_fract_x
  _atom_site_fract_y
  _atom_site_fract_z
  _atom_site_occupancy
  Co  Co1       1.0  0.66670  0.33330  0.57909  1.0000
  Co  Co2       1.0  0.66670  0.33340  0.92091  1.0000
  Co  Co3       1.0  0.33330  0.66670  0.42091  1.0000
  Co  Co4       1.0  0.33330  0.66660  0.07909  1.0000
  C   C1        1.0  0.08010  0.11650  0.37490  1.0000
  C   C2        1.0  0.88350  0.96360  0.37490  1.0000
  C   C3        1.0  0.03640  0.91990  0.37490  1.0000
  C   C4        1.0  0.08010  0.96360  0.12510  1.0000
  C   C5        1.0  0.03640  0.11650  0.12510  1.0000
  C   C6        1.0  0.88350  0.91990  0.12510  1.0000
  C   C7        1.0  0.91990  0.88350  0.62510  1.0000
  C   C8        1.0  0.11650  0.03640  0.62510  1.0000
  C   C9        1.0  0.96360  0.08010  0.62510  1.0000
  C   C10       1.0  0.91990  0.03640  0.87490  1.0000
  C   C11       1.0  0.96360  0.88350  0.87490  1.0000
  C   C12       1.0  0.11650  0.08010  0.87490  1.0000
  H   H1        1.0  0.13370  0.19430  0.37420  1.0000
  H   H2        1.0  0.80570  0.93940  0.37420  1.0000
  H   H3        1.0  0.06060  0.86630  0.37420  1.0000
  H   H4        1.0  0.13370  0.93940  0.12580  1.0000
  H   H5        1.0  0.06060  0.19430  0.12580  1.0000
  H   H6        1.0  0.80570  0.86630  0.12580  1.0000
  H   H7        1.0  0.86630  0.80570  0.62580  1.0000
  H   H8        1.0  0.19430  0.06060  0.62580  1.0000
  H   H9        1.0  0.93940  0.13370  0.62580  1.0000
  H   H10       1.0  0.86630  0.06060  0.87420  1.0000
  H   H11       1.0  0.93940  0.80570  0.87420  1.0000
  H   H12       1.0  0.19430  0.13370  0.87420  1.0000
  C   C13       1.0  0.96410  0.08020  0.37550  1.0000
  C   C14       1.0  0.91980  0.88390  0.37550  1.0000
  C   C15       1.0  0.11610  0.03590  0.37550  1.0000
  C   C16       1.0  0.96410  0.88390  0.12450  1.0000
  C   C17       1.0  0.11610  0.08020  0.12450  1.0000
  C   C18       1.0  0.91980  0.03590  0.12450  1.0000
  C   C19       1.0  0.03590  0.91980  0.62450  1.0000
  C   C20       1.0  0.08020  0.11610  0.62450  1.0000
  C   C21       1.0  0.88390  0.96410  0.62450  1.0000
  C   C22       1.0  0.03590  0.11610  0.87550  1.0000
  C   C23       1.0  0.88390  0.91980  0.87550  1.0000
  C   C24       1.0  0.08020  0.96410  0.87550  1.0000
  C   C25       1.0  0.91950  0.16220  0.38090  1.0000
  C   C26       1.0  0.83780  0.75730  0.38090  1.0000
  C   C27       1.0  0.24270  0.08050  0.38090  1.0000
  C   C28       1.0  0.91950  0.75730  0.11910  1.0000
  C   C29       1.0  0.24270  0.16220  0.11910  1.0000
  C   C30       1.0  0.83780  0.08050  0.11910  1.0000
  C   C31       1.0  0.08050  0.83780  0.61910  1.0000
  C   C32       1.0  0.16220  0.24270  0.61910  1.0000
  C   C33       1.0  0.75730  0.91950  0.61910  1.0000
  C   C34       1.0  0.08050  0.24270  0.88090  1.0000
  C   C35       1.0  0.75730  0.83780  0.88090  1.0000
  C   C36       1.0  0.16220  0.91950  0.88090  1.0000
  C   C37       1.0  0.95190  0.34820  0.42760  1.0000
  C   C38       1.0  0.65180  0.60370  0.42760  1.0000
  C   C39       1.0  0.39630  0.04810  0.42760  1.0000
  C   C40       1.0  0.95190  0.60370  0.07240  1.0000
  C   C41       1.0  0.39630  0.34820  0.07240  1.0000
  C   C42       1.0  0.65180  0.04810  0.07240  1.0000
  C   C43       1.0  0.04810  0.65180  0.57240  1.0000
  C   C44       1.0  0.34820  0.39630  0.57240  1.0000
  C   C45       1.0  0.60370  0.95190  0.57240  1.0000
  C   C46       1.0  0.04810  0.39630  0.92760  1.0000
  C   C47       1.0  0.60370  0.65180  0.92760  1.0000
  C   C48       1.0  0.34820  0.95190  0.92760  1.0000
  H   H13       1.0  0.92270  0.35870  0.37120  1.0000
  H   H14       1.0  0.64130  0.56400  0.37120  1.0000
  H   H15       1.0  0.43600  0.07730  0.37120  1.0000
  H   H16       1.0  0.92270  0.56400  0.12880  1.0000
  H   H17       1.0  0.43600  0.35870  0.12880  1.0000
  H   H18       1.0  0.64130  0.07730  0.12880  1.0000
  H   H19       1.0  0.07730  0.64130  0.62880  1.0000
  H   H20       1.0  0.35870  0.43600  0.62880  1.0000
  H   H21       1.0  0.56400  0.92270  0.62880  1.0000
  H   H22       1.0  0.07730  0.43600  0.87120  1.0000
  H   H23       1.0  0.56400  0.64130  0.87120  1.0000
  H   H24       1.0  0.35870  0.92270  0.87120  1.0000
  H   H25       1.0  0.01700  0.42130  0.44450  1.0000
  H   H26       1.0  0.57870  0.59570  0.44450  1.0000
  H   H27       1.0  0.40430  0.98300  0.44450  1.0000
  H   H28       1.0  0.01700  0.59570  0.05550  1.0000
  H   H29       1.0  0.40430  0.42130  0.05550  1.0000
  H   H30       1.0  0.57870  0.98300  0.05550  1.0000
  H   H31       1.0  0.98300  0.57870  0.55550  1.0000
  H   H32       1.0  0.42130  0.40430  0.55550  1.0000
  H   H33       1.0  0.59570  0.01700  0.55550  1.0000
  H   H34       1.0  0.98300  0.40430  0.94450  1.0000
  H   H35       1.0  0.59570  0.57870  0.94450  1.0000
  H   H36       1.0  0.42130  0.01700  0.94450  1.0000
  C   C49       1.0  0.85960  0.31240  0.49840  1.0000
  C   C50       1.0  0.68760  0.54720  0.49840  1.0000
  C   C51       1.0  0.45280  0.14040  0.49840  1.0000
  C   C52       1.0  0.85960  0.54720  0.00160  1.0000
  C   C53       1.0  0.45280  0.31240  0.00160  1.0000
  C   C54       1.0  0.68760  0.14040  0.00160  1.0000
  C   C55       1.0  0.14040  0.68760  0.50160  1.0000
  C   C56       1.0  0.31240  0.45280  0.50160  1.0000
  C   C57       1.0  0.54720  0.85960  0.50160  1.0000
  C   C58       1.0  0.14040  0.45280  0.99840  1.0000
  C   C59       1.0  0.54720  0.68760  0.99840  1.0000
  C   C60       1.0  0.31240  0.85960  0.99840  1.0000
  N   N1        1.0  0.99090  0.26500  0.41460  1.0000
  N   N2        1.0  0.73500  0.72590  0.41460  1.0000
  N   N3        1.0  0.27410  0.00910  0.41460  1.0000
  N   N4        1.0  0.99090  0.72590  0.08540  1.0000
  N   N5        1.0  0.27410  0.26500  0.08540  1.0000
  N   N6        1.0  0.73500  0.00910  0.08540  1.0000
  N   N7        1.0  0.00910  0.73500  0.58540  1.0000
  N   N8        1.0  0.26500  0.27410  0.58540  1.0000
  N   N9        1.0  0.72590  0.99090  0.58540  1.0000
  N   N10       1.0  0.00910  0.27410  0.91460  1.0000
  N   N11       1.0  0.72590  0.73500  0.91460  1.0000
  N   N12       1.0  0.26500  0.99090  0.91460  1.0000
  H   H37       1.0  0.06280  0.28360  0.42950  1.0000
  H   H38       1.0  0.71640  0.77920  0.42950  1.0000
  H   H39       1.0  0.22080  0.93720  0.42950  1.0000
  H   H40       1.0  0.06280  0.77920  0.07050  1.0000
  H   H41       1.0  0.22080  0.28360  0.07050  1.0000
  H   H42       1.0  0.71640  0.93720  0.07050  1.0000
  H   H43       1.0  0.93720  0.71640  0.57050  1.0000
  H   H44       1.0  0.28360  0.22080  0.57050  1.0000
  H   H45       1.0  0.77920  0.06280  0.57050  1.0000
  H   H46       1.0  0.93720  0.22080  0.92950  1.0000
  H   H47       1.0  0.77920  0.71640  0.92950  1.0000
  H   H48       1.0  0.28360  0.06280  0.92950  1.0000
  O   O1        1.0  0.80750  0.36890  0.49802  1.0000
  O   O2        1.0  0.63110  0.43860  0.49802  1.0000
  O   O3        1.0  0.56140  0.19250  0.49802  1.0000
  O   O4        1.0  0.80750  0.43860  0.00198  1.0000
  O   O5        1.0  0.56140  0.36890  0.00198  1.0000
  O   O6        1.0  0.63110  0.19250  0.00198  1.0000
  O   O7        1.0  0.19250  0.63110  0.50198  1.0000
  O   O8        1.0  0.36890  0.56140  0.50198  1.0000
  O   O9        1.0  0.43860  0.80750  0.50198  1.0000
  O   O10       1.0  0.19250  0.56140  0.99802  1.0000
  O   O11       1.0  0.43860  0.63110  0.99802  1.0000
  O   O12       1.0  0.36890  0.80750  0.99802  1.0000
  O   O13       1.0  0.84180  0.23500  0.55190  1.0000
  O   O14       1.0  0.76500  0.60680  0.55190  1.0000
  O   O15       1.0  0.39320  0.15820  0.55190  1.0000
  O   O16       1.0  0.84180  0.60680  0.94810  1.0000
  O   O17       1.0  0.39320  0.23500  0.94810  1.0000
  O   O18       1.0  0.76500  0.15820  0.94810  1.0000
  O   O19       1.0  0.15820  0.76500  0.44810  1.0000
  O   O20       1.0  0.23500  0.39320  0.44810  1.0000
  O   O21       1.0  0.60680  0.84180  0.44810  1.0000
  O   O22       1.0  0.15820  0.39320  0.05190  1.0000
  O   O23       1.0  0.60680  0.76500  0.05190  1.0000
  O   O24       1.0  0.23500  0.84180  0.05190  1.0000
  O   O25       1.0  0.82080  0.13310  0.35600  1.0000
  O   O26       1.0  0.86690  0.68770  0.35600  1.0000
  O   O27       1.0  0.31230  0.17920  0.35600  1.0000
  O   O28       1.0  0.82080  0.68770  0.14400  1.0000
  O   O29       1.0  0.31230  0.13310  0.14400  1.0000
  O   O30       1.0  0.86690  0.17920  0.14400  1.0000
  O   O31       1.0  0.17920  0.86690  0.64400  1.0000
  O   O32       1.0  0.13310  0.31230  0.64400  1.0000
  O   O33       1.0  0.68770  0.82080  0.64400  1.0000
  O   O34       1.0  0.17920  0.31230  0.85600  1.0000
  O   O35       1.0  0.68770  0.86690  0.85600  1.0000
  O   O36       1.0  0.13310  0.82080  0.85600  1.0000
  O   O37       1.0  0.53130  0.30910  0.66620  1.0000
  O   O38       1.0  0.69090  0.22220  0.66620  1.0000
  O   O39       1.0  0.77780  0.46870  0.66620  1.0000
  O   O40       1.0  0.53130  0.22220  0.83380  1.0000
  O   O41       1.0  0.77780  0.30910  0.83380  1.0000
  O   O42       1.0  0.69090  0.46870  0.83380  1.0000
  O   O43       1.0  0.46870  0.69090  0.33380  1.0000
  O   O44       1.0  0.30910  0.77780  0.33380  1.0000
  O   O45       1.0  0.22220  0.53130  0.33380  1.0000
  O   O46       1.0  0.46870  0.77780  0.16620  1.0000
  O   O47       1.0  0.22220  0.69090  0.16620  1.0000
  O   O48       1.0  0.30910  0.53130  0.16620  1.0000
  H   H49       1.0  0.47240  0.24360  0.65660  1.0000
  H   H50       1.0  0.75640  0.22880  0.65660  1.0000
  H   H51       1.0  0.77120  0.52760  0.65660  1.0000
  H   H52       1.0  0.47240  0.22880  0.84340  1.0000
  H   H53       1.0  0.77120  0.24360  0.84340  1.0000
  H   H54       1.0  0.75640  0.52760  0.84340  1.0000
  H   H55       1.0  0.52760  0.75640  0.34340  1.0000
  H   H56       1.0  0.24360  0.77120  0.34340  1.0000
  H   H57       1.0  0.22880  0.47240  0.34340  1.0000
  H   H58       1.0  0.52760  0.77120  0.15660  1.0000
  H   H59       1.0  0.22880  0.75640  0.15660  1.0000
  H   H60       1.0  0.24360  0.47240  0.15660  1.0000
  H   H61       1.0  0.51460  0.36150  0.65640  1.0000
  H   H62       1.0  0.63850  0.15310  0.65640  1.0000
  H   H63       1.0  0.84690  0.48540  0.65640  1.0000
  H   H64       1.0  0.51460  0.15310  0.84360  1.0000
  H   H65       1.0  0.84690  0.36150  0.84360  1.0000
  H   H66       1.0  0.63850  0.48540  0.84360  1.0000
  H   H67       1.0  0.48540  0.63850  0.34360  1.0000
  H   H68       1.0  0.36150  0.84690  0.34360  1.0000
  H   H69       1.0  0.15310  0.51460  0.34360  1.0000
  H   H70       1.0  0.48540  0.84690  0.15640  1.0000
  H   H71       1.0  0.15310  0.63850  0.15640  1.0000
  H   H72       1.0  0.36150  0.51460  0.15640  1.0000
