data_image0
_chemical_formula_structural       Cd16C24H8C16H8C16H8C24H8C16H8C8H8C32H8C16H8C8H8C16H8C16H8C16H8C16N16O96
_chemical_formula_sum              "Cd16 C224 H96 N16 O96"
_cell_length_a       26.4534
_cell_length_b       24.3372
_cell_length_c       17.6488
_cell_angle_alpha    90
_cell_angle_beta     109.622
_cell_angle_gamma    90

_space_group_name_H-M_alt    "P 1"
_space_group_IT_number       1

loop_
  _space_group_symop_operation_xyz
  'x, y, z'

loop_
  _atom_site_type_symbol
  _atom_site_label
  _atom_site_symmetry_multiplicity
  _atom_site_fract_x
  _atom_site_fract_y
  _atom_site_fract_z
  _atom_site_occupancy
  Cd  Cd1       1.0  0.24309  0.33654  0.74401  1.0000
  Cd  Cd2       1.0  0.75691  0.33654  0.75599  1.0000
  Cd  Cd3       1.0  0.74309  0.83654  0.74401  1.0000
  Cd  Cd4       1.0  0.25691  0.83654  0.75599  1.0000
  Cd  Cd5       1.0  0.75691  0.66346  0.25599  1.0000
  Cd  Cd6       1.0  0.24309  0.66346  0.24401  1.0000
  Cd  Cd7       1.0  0.25691  0.16346  0.25599  1.0000
  Cd  Cd8       1.0  0.74309  0.16346  0.24401  1.0000
  Cd  Cd9       1.0  0.00000  0.54193  0.75000  1.0000
  Cd  Cd10      1.0  0.50000  0.04193  0.75000  1.0000
  Cd  Cd11      1.0  0.00000  0.45807  0.25000  1.0000
  Cd  Cd12      1.0  0.50000  0.95807  0.25000  1.0000
  Cd  Cd13      1.0  0.50000  0.37214  0.25000  1.0000
  Cd  Cd14      1.0  0.00000  0.87214  0.25000  1.0000
  Cd  Cd15      1.0  0.50000  0.62786  0.75000  1.0000
  Cd  Cd16      1.0  0.00000  0.12786  0.75000  1.0000
  C   C1        1.0  0.32990  0.27710  0.82800  1.0000
  C   C2        1.0  0.67010  0.27710  0.67200  1.0000
  C   C3        1.0  0.82990  0.77710  0.82800  1.0000
  C   C4        1.0  0.17010  0.77710  0.67200  1.0000
  C   C5        1.0  0.67010  0.72290  0.17200  1.0000
  C   C6        1.0  0.32990  0.72290  0.32800  1.0000
  C   C7        1.0  0.17010  0.22290  0.17200  1.0000
  C   C8        1.0  0.82990  0.22290  0.32800  1.0000
  C   C9        1.0  0.38190  0.24500  0.86920  1.0000
  C   C10       1.0  0.61810  0.24500  0.63080  1.0000
  C   C11       1.0  0.88190  0.74500  0.86920  1.0000
  C   C12       1.0  0.11810  0.74500  0.63080  1.0000
  C   C13       1.0  0.61810  0.75500  0.13080  1.0000
  C   C14       1.0  0.38190  0.75500  0.36920  1.0000
  C   C15       1.0  0.11810  0.25500  0.13080  1.0000
  C   C16       1.0  0.88190  0.25500  0.36920  1.0000
  C   C17       1.0  0.41620  0.26050  0.94160  1.0000
  C   C18       1.0  0.58380  0.26050  0.55840  1.0000
  C   C19       1.0  0.91620  0.76050  0.94160  1.0000
  C   C20       1.0  0.08380  0.76050  0.55840  1.0000
  C   C21       1.0  0.58380  0.73950  0.05840  1.0000
  C   C22       1.0  0.41620  0.73950  0.44160  1.0000
  C   C23       1.0  0.08380  0.23950  0.05840  1.0000
  C   C24       1.0  0.91620  0.23950  0.44160  1.0000
  H   H1        1.0  0.40693  0.29059  0.96874  1.0000
  H   H2        1.0  0.59307  0.29059  0.53126  1.0000
  H   H3        1.0  0.90693  0.79059  0.96874  1.0000
  H   H4        1.0  0.09307  0.79059  0.53126  1.0000
  H   H5        1.0  0.59307  0.70941  0.03126  1.0000
  H   H6        1.0  0.40693  0.70941  0.46874  1.0000
  H   H7        1.0  0.09307  0.20941  0.03126  1.0000
  H   H8        1.0  0.90693  0.20941  0.46874  1.0000
  C   C25       1.0  0.46540  0.23320  0.97790  1.0000
  C   C26       1.0  0.53460  0.23320  0.52210  1.0000
  C   C27       1.0  0.96540  0.73320  0.97790  1.0000
  C   C28       1.0  0.03460  0.73320  0.52210  1.0000
  C   C29       1.0  0.53460  0.76680  0.02210  1.0000
  C   C30       1.0  0.46540  0.76680  0.47790  1.0000
  C   C31       1.0  0.03460  0.26680  0.02210  1.0000
  C   C32       1.0  0.96540  0.26680  0.47790  1.0000
  C   C33       1.0  0.47720  0.19070  0.93600  1.0000
  C   C34       1.0  0.52280  0.19070  0.56400  1.0000
  C   C35       1.0  0.97720  0.69070  0.93600  1.0000
  C   C36       1.0  0.02280  0.69070  0.56400  1.0000
  C   C37       1.0  0.52280  0.80930  0.06400  1.0000
  C   C38       1.0  0.47720  0.80930  0.43600  1.0000
  C   C39       1.0  0.02280  0.30930  0.06400  1.0000
  C   C40       1.0  0.97720  0.30930  0.43600  1.0000
  H   H9        1.0  0.51078  0.17252  0.95771  1.0000
  H   H10       1.0  0.48922  0.17252  0.54229  1.0000
  H   H11       1.0  0.01078  0.67252  0.95771  1.0000
  H   H12       1.0  0.98922  0.67252  0.54229  1.0000
  H   H13       1.0  0.48922  0.82748  0.04229  1.0000
  H   H14       1.0  0.51078  0.82748  0.45771  1.0000
  H   H15       1.0  0.98922  0.32748  0.04229  1.0000
  H   H16       1.0  0.01078  0.32748  0.45771  1.0000
  C   C41       1.0  0.44140  0.17340  0.86230  1.0000
  C   C42       1.0  0.55860  0.17340  0.63770  1.0000
  C   C43       1.0  0.94140  0.67340  0.86230  1.0000
  C   C44       1.0  0.05860  0.67340  0.63770  1.0000
  C   C45       1.0  0.55860  0.82660  0.13770  1.0000
  C   C46       1.0  0.44140  0.82660  0.36230  1.0000
  C   C47       1.0  0.05860  0.32660  0.13770  1.0000
  C   C48       1.0  0.94140  0.32660  0.36230  1.0000
  C   C49       1.0  0.39470  0.20250  0.82890  1.0000
  C   C50       1.0  0.60530  0.20250  0.67110  1.0000
  C   C51       1.0  0.89470  0.70250  0.82890  1.0000
  C   C52       1.0  0.10530  0.70250  0.67110  1.0000
  C   C53       1.0  0.60530  0.79750  0.17110  1.0000
  C   C54       1.0  0.39470  0.79750  0.32890  1.0000
  C   C55       1.0  0.10530  0.29750  0.17110  1.0000
  C   C56       1.0  0.89470  0.29750  0.32890  1.0000
  H   H17       1.0  0.37104  0.19283  0.77689  1.0000
  H   H18       1.0  0.62896  0.19283  0.72311  1.0000
  H   H19       1.0  0.87104  0.69283  0.77689  1.0000
  H   H20       1.0  0.12896  0.69283  0.72311  1.0000
  H   H21       1.0  0.62896  0.80717  0.22311  1.0000
  H   H22       1.0  0.37104  0.80717  0.27689  1.0000
  H   H23       1.0  0.12896  0.30717  0.22311  1.0000
  H   H24       1.0  0.87104  0.30717  0.27689  1.0000
  C   C57       1.0  0.45560  0.12520  0.81930  1.0000
  C   C58       1.0  0.54440  0.12520  0.68070  1.0000
  C   C59       1.0  0.95560  0.62520  0.81930  1.0000
  C   C60       1.0  0.04440  0.62520  0.68070  1.0000
  C   C61       1.0  0.54440  0.87480  0.18070  1.0000
  C   C62       1.0  0.45560  0.87480  0.31930  1.0000
  C   C63       1.0  0.04440  0.37480  0.18070  1.0000
  C   C64       1.0  0.95560  0.37480  0.31930  1.0000
  C   C65       1.0  0.50540  0.25030  0.05540  1.0000
  C   C66       1.0  0.49460  0.25030  0.44460  1.0000
  C   C67       1.0  0.00540  0.75030  0.05540  1.0000
  C   C68       1.0  0.99460  0.75030  0.44460  1.0000
  C   C69       1.0  0.49460  0.74970  0.94460  1.0000
  C   C70       1.0  0.50540  0.74970  0.55540  1.0000
  C   C71       1.0  0.99460  0.24970  0.94460  1.0000
  C   C72       1.0  0.00540  0.24970  0.55540  1.0000
  C   C73       1.0  0.55650  0.22910  0.08420  1.0000
  C   C74       1.0  0.44350  0.22910  0.41580  1.0000
  C   C75       1.0  0.05650  0.72910  0.08420  1.0000
  C   C76       1.0  0.94350  0.72910  0.41580  1.0000
  C   C77       1.0  0.44350  0.77090  0.91580  1.0000
  C   C78       1.0  0.55650  0.77090  0.58420  1.0000
  C   C79       1.0  0.94350  0.27090  0.91580  1.0000
  C   C80       1.0  0.05650  0.27090  0.58420  1.0000
  H   H25       1.0  0.56746  0.20278  0.05310  1.0000
  H   H26       1.0  0.43254  0.20278  0.44690  1.0000
  H   H27       1.0  0.06746  0.70278  0.05310  1.0000
  H   H28       1.0  0.93254  0.70278  0.44690  1.0000
  H   H29       1.0  0.43254  0.79722  0.94690  1.0000
  H   H30       1.0  0.56746  0.79722  0.55310  1.0000
  H   H31       1.0  0.93254  0.29722  0.94690  1.0000
  H   H32       1.0  0.06746  0.29722  0.55310  1.0000
  C   C81       1.0  0.59270  0.24580  0.15900  1.0000
  C   C82       1.0  0.40730  0.24580  0.34100  1.0000
  C   C83       1.0  0.09270  0.74580  0.15900  1.0000
  C   C84       1.0  0.90730  0.74580  0.34100  1.0000
  C   C85       1.0  0.40730  0.75420  0.84100  1.0000
  C   C86       1.0  0.59270  0.75420  0.65900  1.0000
  C   C87       1.0  0.90730  0.25420  0.84100  1.0000
  C   C88       1.0  0.09270  0.25420  0.65900  1.0000
  C   C89       1.0  0.57520  0.28490  0.20330  1.0000
  C   C90       1.0  0.42480  0.28490  0.29670  1.0000
  C   C91       1.0  0.07520  0.78490  0.20330  1.0000
  C   C92       1.0  0.92480  0.78490  0.29670  1.0000
  C   C93       1.0  0.42480  0.71510  0.79670  1.0000
  C   C94       1.0  0.57520  0.71510  0.70330  1.0000
  C   C95       1.0  0.92480  0.21510  0.79670  1.0000
  C   C96       1.0  0.07520  0.21510  0.70330  1.0000
  H   H33       1.0  0.59891  0.29557  0.25469  1.0000
  H   H34       1.0  0.40109  0.29557  0.24531  1.0000
  H   H35       1.0  0.09891  0.79557  0.25469  1.0000
  H   H36       1.0  0.90109  0.79557  0.24531  1.0000
  H   H37       1.0  0.40109  0.70443  0.74531  1.0000
  H   H38       1.0  0.59891  0.70443  0.75469  1.0000
  H   H39       1.0  0.90109  0.20443  0.74531  1.0000
  H   H40       1.0  0.09891  0.20443  0.75469  1.0000
  C   C97       1.0  0.49140  0.28990  0.10420  1.0000
  C   C98       1.0  0.50860  0.28990  0.39580  1.0000
  C   C99       1.0  0.99140  0.78990  0.10420  1.0000
  C   C100      1.0  0.00860  0.78990  0.39580  1.0000
  C   C101      1.0  0.50860  0.71010  0.89580  1.0000
  C   C102      1.0  0.49140  0.71010  0.60420  1.0000
  C   C103      1.0  0.00860  0.21010  0.89580  1.0000
  C   C104      1.0  0.99140  0.21010  0.60420  1.0000
  H   H41       1.0  0.45607  0.30448  0.08585  1.0000
  H   H42       1.0  0.54393  0.30448  0.41415  1.0000
  H   H43       1.0  0.95607  0.80448  0.08585  1.0000
  H   H44       1.0  0.04393  0.80448  0.41415  1.0000
  H   H45       1.0  0.54393  0.69552  0.91415  1.0000
  H   H46       1.0  0.45607  0.69552  0.58585  1.0000
  H   H47       1.0  0.04393  0.19552  0.91415  1.0000
  H   H48       1.0  0.95607  0.19552  0.58585  1.0000
  C   C105      1.0  0.64730  0.22280  0.19400  1.0000
  C   C106      1.0  0.35270  0.22280  0.30600  1.0000
  C   C107      1.0  0.14730  0.72280  0.19400  1.0000
  C   C108      1.0  0.85270  0.72280  0.30600  1.0000
  C   C109      1.0  0.35270  0.77720  0.80600  1.0000
  C   C110      1.0  0.64730  0.77720  0.69400  1.0000
  C   C111      1.0  0.85270  0.27720  0.80600  1.0000
  C   C112      1.0  0.14730  0.27720  0.69400  1.0000
  C   C113      1.0  0.09140  0.48150  0.80680  1.0000
  C   C114      1.0  0.90860  0.48150  0.69320  1.0000
  C   C115      1.0  0.59140  0.98150  0.80680  1.0000
  C   C116      1.0  0.40860  0.98150  0.69320  1.0000
  C   C117      1.0  0.90860  0.51850  0.19320  1.0000
  C   C118      1.0  0.09140  0.51850  0.30680  1.0000
  C   C119      1.0  0.40860  0.01850  0.19320  1.0000
  C   C120      1.0  0.59140  0.01850  0.30680  1.0000
  C   C121      1.0  0.14550  0.45520  0.83750  1.0000
  C   C122      1.0  0.85450  0.45520  0.66250  1.0000
  C   C123      1.0  0.64550  0.95520  0.83750  1.0000
  C   C124      1.0  0.35450  0.95520  0.66250  1.0000
  C   C125      1.0  0.85450  0.54480  0.16250  1.0000
  C   C126      1.0  0.14550  0.54480  0.33750  1.0000
  C   C127      1.0  0.35450  0.04480  0.16250  1.0000
  C   C128      1.0  0.64550  0.04480  0.33750  1.0000
  C   C129      1.0  0.18060  0.46930  0.91470  1.0000
  C   C130      1.0  0.81940  0.46930  0.58530  1.0000
  C   C131      1.0  0.68060  0.96930  0.91470  1.0000
  C   C132      1.0  0.31940  0.96930  0.58530  1.0000
  C   C133      1.0  0.81940  0.53070  0.08530  1.0000
  C   C134      1.0  0.18060  0.53070  0.41470  1.0000
  C   C135      1.0  0.31940  0.03070  0.08530  1.0000
  C   C136      1.0  0.68060  0.03070  0.41470  1.0000
  H   H49       1.0  0.16863  0.49288  0.94820  1.0000
  H   H50       1.0  0.83137  0.49288  0.55180  1.0000
  H   H51       1.0  0.66863  0.99288  0.94820  1.0000
  H   H52       1.0  0.33137  0.99288  0.55180  1.0000
  H   H53       1.0  0.83137  0.50712  0.05180  1.0000
  H   H54       1.0  0.16863  0.50712  0.44820  1.0000
  H   H55       1.0  0.33137  0.00712  0.05180  1.0000
  H   H56       1.0  0.66863  0.00712  0.44820  1.0000
  C   C137      1.0  0.23280  0.44880  0.94200  1.0000
  C   C138      1.0  0.76720  0.44880  0.55800  1.0000
  C   C139      1.0  0.73280  0.94880  0.94200  1.0000
  C   C140      1.0  0.26720  0.94880  0.55800  1.0000
  C   C141      1.0  0.76720  0.55120  0.05800  1.0000
  C   C142      1.0  0.23280  0.55120  0.44200  1.0000
  C   C143      1.0  0.26720  0.05120  0.05800  1.0000
  C   C144      1.0  0.73280  0.05120  0.44200  1.0000
  C   C145      1.0  0.24640  0.41350  0.89300  1.0000
  C   C146      1.0  0.75360  0.41350  0.60700  1.0000
  C   C147      1.0  0.74640  0.91350  0.89300  1.0000
  C   C148      1.0  0.25360  0.91350  0.60700  1.0000
  C   C149      1.0  0.75360  0.58650  0.10700  1.0000
  C   C150      1.0  0.24640  0.58650  0.39300  1.0000
  C   C151      1.0  0.25360  0.08650  0.10700  1.0000
  C   C152      1.0  0.74640  0.08650  0.39300  1.0000
  H   H57       1.0  0.28209  0.39972  0.91096  1.0000
  H   H58       1.0  0.71791  0.39972  0.58904  1.0000
  H   H59       1.0  0.78209  0.89972  0.91096  1.0000
  H   H60       1.0  0.21791  0.89972  0.58904  1.0000
  H   H61       1.0  0.71791  0.60028  0.08904  1.0000
  H   H62       1.0  0.28209  0.60028  0.41096  1.0000
  H   H63       1.0  0.21791  0.10028  0.08904  1.0000
  H   H64       1.0  0.78209  0.10028  0.41096  1.0000
  C   C153      1.0  0.16380  0.41910  0.79240  1.0000
  C   C154      1.0  0.83620  0.41910  0.70760  1.0000
  C   C155      1.0  0.66380  0.91910  0.79240  1.0000
  C   C156      1.0  0.33620  0.91910  0.70760  1.0000
  C   C157      1.0  0.83620  0.58090  0.20760  1.0000
  C   C158      1.0  0.16380  0.58090  0.29240  1.0000
  C   C159      1.0  0.33620  0.08090  0.20760  1.0000
  C   C160      1.0  0.66380  0.08090  0.29240  1.0000
  H   H65       1.0  0.14094  0.40982  0.73973  1.0000
  H   H66       1.0  0.85906  0.40982  0.76027  1.0000
  H   H67       1.0  0.64094  0.90982  0.73973  1.0000
  H   H68       1.0  0.35906  0.90982  0.76027  1.0000
  H   H69       1.0  0.85906  0.59018  0.26027  1.0000
  H   H70       1.0  0.14094  0.59018  0.23973  1.0000
  H   H71       1.0  0.35906  0.09018  0.26027  1.0000
  H   H72       1.0  0.64094  0.09018  0.23973  1.0000
  C   C161      1.0  0.27090  0.46420  0.02310  1.0000
  C   C162      1.0  0.72910  0.46420  0.47690  1.0000
  C   C163      1.0  0.77090  0.96420  0.02310  1.0000
  C   C164      1.0  0.22910  0.96420  0.47690  1.0000
  C   C165      1.0  0.72910  0.53580  0.97690  1.0000
  C   C166      1.0  0.27090  0.53580  0.52310  1.0000
  C   C167      1.0  0.22910  0.03580  0.97690  1.0000
  C   C168      1.0  0.77090  0.03580  0.52310  1.0000
  C   C169      1.0  0.31700  0.43480  0.06170  1.0000
  C   C170      1.0  0.68300  0.43480  0.43830  1.0000
  C   C171      1.0  0.81700  0.93480  0.06170  1.0000
  C   C172      1.0  0.18300  0.93480  0.43830  1.0000
  C   C173      1.0  0.68300  0.56520  0.93830  1.0000
  C   C174      1.0  0.31700  0.56520  0.56170  1.0000
  C   C175      1.0  0.18300  0.06520  0.93830  1.0000
  C   C176      1.0  0.81700  0.06520  0.56170  1.0000
  H   H73       1.0  0.32483  0.40308  0.03638  1.0000
  H   H74       1.0  0.67517  0.40308  0.46362  1.0000
  H   H75       1.0  0.82483  0.90308  0.03638  1.0000
  H   H76       1.0  0.17517  0.90308  0.46362  1.0000
  H   H77       1.0  0.67517  0.59692  0.96362  1.0000
  H   H78       1.0  0.32483  0.59692  0.53638  1.0000
  H   H79       1.0  0.17517  0.09692  0.96362  1.0000
  H   H80       1.0  0.82483  0.09692  0.53638  1.0000
  C   C177      1.0  0.35250  0.45040  0.13710  1.0000
  C   C178      1.0  0.64750  0.45040  0.36290  1.0000
  C   C179      1.0  0.85250  0.95040  0.13710  1.0000
  C   C180      1.0  0.14750  0.95040  0.36290  1.0000
  C   C181      1.0  0.64750  0.54960  0.86290  1.0000
  C   C182      1.0  0.35250  0.54960  0.63710  1.0000
  C   C183      1.0  0.14750  0.04960  0.86290  1.0000
  C   C184      1.0  0.85250  0.04960  0.63710  1.0000
  C   C185      1.0  0.34050  0.49610  0.17560  1.0000
  C   C186      1.0  0.65950  0.49610  0.32440  1.0000
  C   C187      1.0  0.84050  0.99610  0.17560  1.0000
  C   C188      1.0  0.15950  0.99610  0.32440  1.0000
  C   C189      1.0  0.65950  0.50390  0.82440  1.0000
  C   C190      1.0  0.34050  0.50390  0.67560  1.0000
  C   C191      1.0  0.15950  0.00390  0.82440  1.0000
  C   C192      1.0  0.84050  0.00390  0.67560  1.0000
  H   H81       1.0  0.36414  0.50652  0.22728  1.0000
  H   H82       1.0  0.63586  0.50652  0.27272  1.0000
  H   H83       1.0  0.86414  0.00652  0.22728  1.0000
  H   H84       1.0  0.13586  0.00652  0.27272  1.0000
  H   H85       1.0  0.63586  0.49348  0.77272  1.0000
  H   H86       1.0  0.36414  0.49348  0.72728  1.0000
  H   H87       1.0  0.13586  0.99348  0.77272  1.0000
  H   H88       1.0  0.86414  0.99348  0.72728  1.0000
  C   C193      1.0  0.29490  0.52620  0.13940  1.0000
  C   C194      1.0  0.70510  0.52620  0.36060  1.0000
  C   C195      1.0  0.79490  0.02620  0.13940  1.0000
  C   C196      1.0  0.20510  0.02620  0.36060  1.0000
  C   C197      1.0  0.70510  0.47380  0.86060  1.0000
  C   C198      1.0  0.29490  0.47380  0.63940  1.0000
  C   C199      1.0  0.20510  0.97380  0.86060  1.0000
  C   C200      1.0  0.79490  0.97380  0.63940  1.0000
  C   C201      1.0  0.26090  0.51130  0.06330  1.0000
  C   C202      1.0  0.73910  0.51130  0.43670  1.0000
  C   C203      1.0  0.76090  0.01130  0.06330  1.0000
  C   C204      1.0  0.23910  0.01130  0.43670  1.0000
  C   C205      1.0  0.73910  0.48870  0.93670  1.0000
  C   C206      1.0  0.26090  0.48870  0.56330  1.0000
  C   C207      1.0  0.23910  0.98870  0.93670  1.0000
  C   C208      1.0  0.76090  0.98870  0.56330  1.0000
  H   H89       1.0  0.23014  0.53320  0.03763  1.0000
  H   H90       1.0  0.76986  0.53320  0.46237  1.0000
  H   H91       1.0  0.73014  0.03320  0.03763  1.0000
  H   H92       1.0  0.26986  0.03320  0.46237  1.0000
  H   H93       1.0  0.76986  0.46680  0.96237  1.0000
  H   H94       1.0  0.23014  0.46680  0.53763  1.0000
  H   H95       1.0  0.26986  0.96680  0.96237  1.0000
  H   H96       1.0  0.73014  0.96680  0.53763  1.0000
  C   C209      1.0  0.40360  0.41760  0.17350  1.0000
  C   C210      1.0  0.59640  0.41760  0.32650  1.0000
  C   C211      1.0  0.90360  0.91760  0.17350  1.0000
  C   C212      1.0  0.09640  0.91760  0.32650  1.0000
  C   C213      1.0  0.59640  0.58240  0.82650  1.0000
  C   C214      1.0  0.40360  0.58240  0.67350  1.0000
  C   C215      1.0  0.09640  0.08240  0.82650  1.0000
  C   C216      1.0  0.90360  0.08240  0.67350  1.0000
  C   C217      1.0  0.28300  0.57590  0.18140  1.0000
  C   C218      1.0  0.71700  0.57590  0.31860  1.0000
  C   C219      1.0  0.78300  0.07590  0.18140  1.0000
  C   C220      1.0  0.21700  0.07590  0.31860  1.0000
  C   C221      1.0  0.71700  0.42410  0.81860  1.0000
  C   C222      1.0  0.28300  0.42410  0.68140  1.0000
  C   C223      1.0  0.21700  0.92410  0.81860  1.0000
  C   C224      1.0  0.78300  0.92410  0.68140  1.0000
  N   N1        1.0  0.52570  0.30800  0.17520  1.0000
  N   N2        1.0  0.47430  0.30800  0.32480  1.0000
  N   N3        1.0  0.02570  0.80800  0.17520  1.0000
  N   N4        1.0  0.97430  0.80800  0.32480  1.0000
  N   N5        1.0  0.47430  0.69200  0.82480  1.0000
  N   N6        1.0  0.52570  0.69200  0.67520  1.0000
  N   N7        1.0  0.97430  0.19200  0.82480  1.0000
  N   N8        1.0  0.02570  0.19200  0.67520  1.0000
  N   N9        1.0  0.21340  0.39650  0.82080  1.0000
  N   N10       1.0  0.78660  0.39650  0.67920  1.0000
  N   N11       1.0  0.71340  0.89650  0.82080  1.0000
  N   N12       1.0  0.28660  0.89650  0.67920  1.0000
  N   N13       1.0  0.78660  0.60350  0.17920  1.0000
  N   N14       1.0  0.21340  0.60350  0.32080  1.0000
  N   N15       1.0  0.28660  0.10350  0.17920  1.0000
  N   N16       1.0  0.71340  0.10350  0.32080  1.0000
  O   O1        1.0  0.30610  0.27090  0.75480  1.0000
  O   O2        1.0  0.69390  0.27090  0.74520  1.0000
  O   O3        1.0  0.80610  0.77090  0.75480  1.0000
  O   O4        1.0  0.19390  0.77090  0.74520  1.0000
  O   O5        1.0  0.69390  0.72910  0.24520  1.0000
  O   O6        1.0  0.30610  0.72910  0.25480  1.0000
  O   O7        1.0  0.19390  0.22910  0.24520  1.0000
  O   O8        1.0  0.80610  0.22910  0.25480  1.0000
  O   O9        1.0  0.31220  0.30790  0.87210  1.0000
  O   O10       1.0  0.68780  0.30790  0.62790  1.0000
  O   O11       1.0  0.81220  0.80790  0.87210  1.0000
  O   O12       1.0  0.18780  0.80790  0.62790  1.0000
  O   O13       1.0  0.68780  0.69210  0.12790  1.0000
  O   O14       1.0  0.31220  0.69210  0.37210  1.0000
  O   O15       1.0  0.18780  0.19210  0.12790  1.0000
  O   O16       1.0  0.81220  0.19210  0.37210  1.0000
  O   O17       1.0  0.42350  0.11160  0.75050  1.0000
  O   O18       1.0  0.57650  0.11160  0.74950  1.0000
  O   O19       1.0  0.92350  0.61160  0.75050  1.0000
  O   O20       1.0  0.07650  0.61160  0.74950  1.0000
  O   O21       1.0  0.57650  0.88840  0.24950  1.0000
  O   O22       1.0  0.42350  0.88840  0.25050  1.0000
  O   O23       1.0  0.07650  0.38840  0.24950  1.0000
  O   O24       1.0  0.92350  0.38840  0.25050  1.0000
  O   O25       1.0  0.49860  0.09970  0.85130  1.0000
  O   O26       1.0  0.50140  0.09970  0.64870  1.0000
  O   O27       1.0  0.99860  0.59970  0.85130  1.0000
  O   O28       1.0  0.00140  0.59970  0.64870  1.0000
  O   O29       1.0  0.50140  0.90030  0.14870  1.0000
  O   O30       1.0  0.49860  0.90030  0.35130  1.0000
  O   O31       1.0  0.00140  0.40030  0.14870  1.0000
  O   O32       1.0  0.99860  0.40030  0.35130  1.0000
  O   O33       1.0  0.65940  0.18420  0.15330  1.0000
  O   O34       1.0  0.34060  0.18420  0.34670  1.0000
  O   O35       1.0  0.15940  0.68420  0.15330  1.0000
  O   O36       1.0  0.84060  0.68420  0.34670  1.0000
  O   O37       1.0  0.34060  0.81580  0.84670  1.0000
  O   O38       1.0  0.65940  0.81580  0.65330  1.0000
  O   O39       1.0  0.84060  0.31580  0.84670  1.0000
  O   O40       1.0  0.15940  0.31580  0.65330  1.0000
  O   O41       1.0  0.67750  0.23630  0.26190  1.0000
  O   O42       1.0  0.32250  0.23630  0.23810  1.0000
  O   O43       1.0  0.17750  0.73630  0.26190  1.0000
  O   O44       1.0  0.82250  0.73630  0.23810  1.0000
  O   O45       1.0  0.32250  0.76370  0.73810  1.0000
  O   O46       1.0  0.67750  0.76370  0.76190  1.0000
  O   O47       1.0  0.82250  0.26370  0.73810  1.0000
  O   O48       1.0  0.17750  0.26370  0.76190  1.0000
  O   O49       1.0  0.41080  0.37480  0.14310  1.0000
  O   O50       1.0  0.58920  0.37480  0.35690  1.0000
  O   O51       1.0  0.91080  0.87480  0.14310  1.0000
  O   O52       1.0  0.08920  0.87480  0.35690  1.0000
  O   O53       1.0  0.58920  0.62520  0.85690  1.0000
  O   O54       1.0  0.41080  0.62520  0.64310  1.0000
  O   O55       1.0  0.08920  0.12520  0.85690  1.0000
  O   O56       1.0  0.91080  0.12520  0.64310  1.0000
  O   O57       1.0  0.43610  0.43670  0.23740  1.0000
  O   O58       1.0  0.56390  0.43670  0.26260  1.0000
  O   O59       1.0  0.93610  0.93670  0.23740  1.0000
  O   O60       1.0  0.06390  0.93670  0.26260  1.0000
  O   O61       1.0  0.56390  0.56330  0.76260  1.0000
  O   O62       1.0  0.43610  0.56330  0.73740  1.0000
  O   O63       1.0  0.06390  0.06330  0.76260  1.0000
  O   O64       1.0  0.93610  0.06330  0.73740  1.0000
  O   O65       1.0  0.24200  0.60320  0.14270  1.0000
  O   O66       1.0  0.75800  0.60320  0.35730  1.0000
  O   O67       1.0  0.74200  0.10320  0.14270  1.0000
  O   O68       1.0  0.25800  0.10320  0.35730  1.0000
  O   O69       1.0  0.75800  0.39680  0.85730  1.0000
  O   O70       1.0  0.24200  0.39680  0.64270  1.0000
  O   O71       1.0  0.25800  0.89680  0.85730  1.0000
  O   O72       1.0  0.74200  0.89680  0.64270  1.0000
  O   O73       1.0  0.31050  0.58670  0.25080  1.0000
  O   O74       1.0  0.68950  0.58670  0.24920  1.0000
  O   O75       1.0  0.81050  0.08670  0.25080  1.0000
  O   O76       1.0  0.18950  0.08670  0.24920  1.0000
  O   O77       1.0  0.68950  0.41330  0.74920  1.0000
  O   O78       1.0  0.31050  0.41330  0.75080  1.0000
  O   O79       1.0  0.18950  0.91330  0.74920  1.0000
  O   O80       1.0  0.81050  0.91330  0.75080  1.0000
  O   O81       1.0  0.07630  0.51070  0.85250  1.0000
  O   O82       1.0  0.92370  0.51070  0.64750  1.0000
  O   O83       1.0  0.57630  0.01070  0.85250  1.0000
  O   O84       1.0  0.42370  0.01070  0.64750  1.0000
  O   O85       1.0  0.92370  0.48930  0.14750  1.0000
  O   O86       1.0  0.07630  0.48930  0.35250  1.0000
  O   O87       1.0  0.42370  0.98930  0.14750  1.0000
  O   O88       1.0  0.57630  0.98930  0.35250  1.0000
  O   O89       1.0  0.06260  0.47280  0.73570  1.0000
  O   O90       1.0  0.93740  0.47280  0.76430  1.0000
  O   O91       1.0  0.56260  0.97280  0.73570  1.0000
  O   O92       1.0  0.43740  0.97280  0.76430  1.0000
  O   O93       1.0  0.93740  0.52720  0.26430  1.0000
  O   O94       1.0  0.06260  0.52720  0.23570  1.0000
  O   O95       1.0  0.43740  0.02720  0.26430  1.0000
  O   O96       1.0  0.56260  0.02720  0.23570  1.0000
