data_image0
_chemical_formula_structural       Zn8O64C32H8C8H8C8H8C8H8C24H8C8H8C8H8C8H8C24
_chemical_formula_sum              "Zn8 O64 C128 H64"
_cell_length_a       10.8773
_cell_length_b       17.9472
_cell_length_c       20.5134
_cell_angle_alpha    90
_cell_angle_beta     90
_cell_angle_gamma    90

_space_group_name_H-M_alt    "P 1"
_space_group_IT_number       1

loop_
  _space_group_symop_operation_xyz
  'x, y, z'

loop_
  _atom_site_type_symbol
  _atom_site_label
  _atom_site_symmetry_multiplicity
  _atom_site_fract_x
  _atom_site_fract_y
  _atom_site_fract_z
  _atom_site_occupancy
  Zn  Zn1       1.0  0.98397  0.12742  0.74052  1.0000
  Zn  Zn2       1.0  0.51603  0.87258  0.24052  1.0000
  Zn  Zn3       1.0  0.01603  0.62742  0.75948  1.0000
  Zn  Zn4       1.0  0.48397  0.37258  0.25948  1.0000
  Zn  Zn5       1.0  0.01603  0.87258  0.25948  1.0000
  Zn  Zn6       1.0  0.48397  0.12742  0.75948  1.0000
  Zn  Zn7       1.0  0.98397  0.37258  0.24052  1.0000
  Zn  Zn8       1.0  0.51603  0.62742  0.74052  1.0000
  O   O1        1.0  0.08081  0.19826  0.79344  1.0000
  O   O2        1.0  0.41919  0.80174  0.29344  1.0000
  O   O3        1.0  0.91919  0.69826  0.70656  1.0000
  O   O4        1.0  0.58081  0.30174  0.20656  1.0000
  O   O5        1.0  0.91919  0.80174  0.20656  1.0000
  O   O6        1.0  0.58081  0.19826  0.70656  1.0000
  O   O7        1.0  0.08081  0.30174  0.29344  1.0000
  O   O8        1.0  0.41919  0.69826  0.79344  1.0000
  O   O9        1.0  0.12268  0.10735  0.86439  1.0000
  O   O10       1.0  0.37732  0.89265  0.36439  1.0000
  O   O11       1.0  0.87732  0.60735  0.63561  1.0000
  O   O12       1.0  0.62268  0.39265  0.13561  1.0000
  O   O13       1.0  0.87732  0.89265  0.13561  1.0000
  O   O14       1.0  0.62268  0.10735  0.63561  1.0000
  O   O15       1.0  0.12268  0.39265  0.36439  1.0000
  O   O16       1.0  0.37732  0.60735  0.86439  1.0000
  O   O17       1.0  0.89062  0.05140  0.78987  1.0000
  O   O18       1.0  0.60938  0.94860  0.28987  1.0000
  O   O19       1.0  0.10938  0.55140  0.71013  1.0000
  O   O20       1.0  0.39062  0.44860  0.21013  1.0000
  O   O21       1.0  0.10938  0.94860  0.21013  1.0000
  O   O22       1.0  0.39062  0.05140  0.71013  1.0000
  O   O23       1.0  0.89062  0.44860  0.28987  1.0000
  O   O24       1.0  0.60938  0.55140  0.78987  1.0000
  O   O25       1.0  0.85063  0.13859  0.86406  1.0000
  O   O26       1.0  0.64937  0.86141  0.36406  1.0000
  O   O27       1.0  0.14937  0.63859  0.63594  1.0000
  O   O28       1.0  0.35063  0.36141  0.13594  1.0000
  O   O29       1.0  0.14937  0.86141  0.13594  1.0000
  O   O30       1.0  0.35063  0.13859  0.63594  1.0000
  O   O31       1.0  0.85063  0.36141  0.36406  1.0000
  O   O32       1.0  0.64937  0.63859  0.86406  1.0000
  O   O33       1.0  0.61262  0.07858  0.81098  1.0000
  O   O34       1.0  0.88738  0.92142  0.31098  1.0000
  O   O35       1.0  0.38738  0.57858  0.68902  1.0000
  O   O36       1.0  0.11262  0.42142  0.18902  1.0000
  O   O37       1.0  0.38738  0.92142  0.18902  1.0000
  O   O38       1.0  0.11262  0.07858  0.68902  1.0000
  O   O39       1.0  0.61262  0.42142  0.31098  1.0000
  O   O40       1.0  0.88738  0.57858  0.81098  1.0000
  O   O41       1.0  0.46763  0.01784  0.86379  1.0000
  O   O42       1.0  0.03237  0.98216  0.36379  1.0000
  O   O43       1.0  0.53237  0.51784  0.63621  1.0000
  O   O44       1.0  0.96763  0.48216  0.13621  1.0000
  O   O45       1.0  0.53237  0.98216  0.13621  1.0000
  O   O46       1.0  0.96763  0.01784  0.63621  1.0000
  O   O47       1.0  0.46763  0.48216  0.36379  1.0000
  O   O48       1.0  0.03237  0.51784  0.86379  1.0000
  O   O49       1.0  0.35577  0.18090  0.80837  1.0000
  O   O50       1.0  0.14423  0.81910  0.30837  1.0000
  O   O51       1.0  0.64423  0.68090  0.69163  1.0000
  O   O52       1.0  0.85577  0.31910  0.19163  1.0000
  O   O53       1.0  0.64423  0.81910  0.19163  1.0000
  O   O54       1.0  0.85577  0.18090  0.69163  1.0000
  O   O55       1.0  0.35577  0.31910  0.30837  1.0000
  O   O56       1.0  0.14423  0.68090  0.80837  1.0000
  O   O57       1.0  0.49213  0.25489  0.85511  1.0000
  O   O58       1.0  0.00787  0.74511  0.35511  1.0000
  O   O59       1.0  0.50787  0.75489  0.64489  1.0000
  O   O60       1.0  0.99213  0.24511  0.14489  1.0000
  O   O61       1.0  0.50787  0.74511  0.14489  1.0000
  O   O62       1.0  0.99213  0.25489  0.64489  1.0000
  O   O63       1.0  0.49213  0.24511  0.35511  1.0000
  O   O64       1.0  0.00787  0.75489  0.85511  1.0000
  C   C1        1.0  0.12405  0.17297  0.84773  1.0000
  C   C2        1.0  0.37595  0.82703  0.34773  1.0000
  C   C3        1.0  0.87595  0.67297  0.65227  1.0000
  C   C4        1.0  0.62405  0.32703  0.15227  1.0000
  C   C5        1.0  0.87595  0.82703  0.15227  1.0000
  C   C6        1.0  0.62405  0.17297  0.65227  1.0000
  C   C7        1.0  0.12405  0.32703  0.34773  1.0000
  C   C8        1.0  0.37595  0.67297  0.84773  1.0000
  C   C9        1.0  0.16930  0.23099  0.89452  1.0000
  C   C10       1.0  0.33070  0.76901  0.39452  1.0000
  C   C11       1.0  0.83070  0.73099  0.60548  1.0000
  C   C12       1.0  0.66930  0.26901  0.10548  1.0000
  C   C13       1.0  0.83070  0.76901  0.10548  1.0000
  C   C14       1.0  0.66930  0.23099  0.60548  1.0000
  C   C15       1.0  0.16930  0.26901  0.39452  1.0000
  C   C16       1.0  0.33070  0.73099  0.89452  1.0000
  C   C17       1.0  0.29060  0.25695  0.89611  1.0000
  C   C18       1.0  0.20940  0.74305  0.39611  1.0000
  C   C19       1.0  0.70940  0.75695  0.60389  1.0000
  C   C20       1.0  0.79060  0.24305  0.10389  1.0000
  C   C21       1.0  0.70940  0.74305  0.10389  1.0000
  C   C22       1.0  0.79060  0.25695  0.60389  1.0000
  C   C23       1.0  0.29060  0.24305  0.39611  1.0000
  C   C24       1.0  0.20940  0.75695  0.89611  1.0000
  C   C25       1.0  0.32190  0.30996  0.94255  1.0000
  C   C26       1.0  0.17810  0.69004  0.44255  1.0000
  C   C27       1.0  0.67810  0.80996  0.55745  1.0000
  C   C28       1.0  0.82190  0.19004  0.05745  1.0000
  C   C29       1.0  0.67810  0.69004  0.05745  1.0000
  C   C30       1.0  0.82190  0.30996  0.55745  1.0000
  C   C31       1.0  0.32190  0.19004  0.44255  1.0000
  C   C32       1.0  0.17810  0.80996  0.94255  1.0000
  H   H1        1.0  0.40210  0.32790  0.94410  1.0000
  H   H2        1.0  0.09790  0.67210  0.44410  1.0000
  H   H3        1.0  0.59790  0.82790  0.55590  1.0000
  H   H4        1.0  0.90210  0.17210  0.05590  1.0000
  H   H5        1.0  0.59790  0.67210  0.05590  1.0000
  H   H6        1.0  0.90210  0.32790  0.55590  1.0000
  H   H7        1.0  0.40210  0.17210  0.44410  1.0000
  H   H8        1.0  0.09790  0.82790  0.94410  1.0000
  C   C33       1.0  0.23680  0.33648  0.98633  1.0000
  C   C34       1.0  0.26320  0.66352  0.48633  1.0000
  C   C35       1.0  0.76320  0.83648  0.51367  1.0000
  C   C36       1.0  0.73680  0.16352  0.01367  1.0000
  C   C37       1.0  0.76320  0.66352  0.01367  1.0000
  C   C38       1.0  0.73680  0.33648  0.51367  1.0000
  C   C39       1.0  0.23680  0.16352  0.48633  1.0000
  C   C40       1.0  0.26320  0.83648  0.98633  1.0000
  H   H9        1.0  0.25950  0.37210  0.01690  1.0000
  H   H10       1.0  0.24050  0.62790  0.51690  1.0000
  H   H11       1.0  0.74050  0.87210  0.48310  1.0000
  H   H12       1.0  0.75950  0.12790  0.98310  1.0000
  H   H13       1.0  0.74050  0.62790  0.98310  1.0000
  H   H14       1.0  0.75950  0.37210  0.48310  1.0000
  H   H15       1.0  0.25950  0.12790  0.51690  1.0000
  H   H16       1.0  0.24050  0.87210  0.01690  1.0000
  C   C41       1.0  0.11820  0.31029  0.98484  1.0000
  C   C42       1.0  0.38180  0.68971  0.48484  1.0000
  C   C43       1.0  0.88180  0.81029  0.51516  1.0000
  C   C44       1.0  0.61820  0.18971  0.01516  1.0000
  C   C45       1.0  0.88180  0.68971  0.01516  1.0000
  C   C46       1.0  0.61820  0.31029  0.51516  1.0000
  C   C47       1.0  0.11820  0.18971  0.48484  1.0000
  C   C48       1.0  0.38180  0.81029  0.98484  1.0000
  H   H17       1.0  0.06080  0.32780  0.01470  1.0000
  H   H18       1.0  0.43920  0.67220  0.51470  1.0000
  H   H19       1.0  0.93920  0.82780  0.48530  1.0000
  H   H20       1.0  0.56080  0.17220  0.98530  1.0000
  H   H21       1.0  0.93920  0.67220  0.98530  1.0000
  H   H22       1.0  0.56080  0.32780  0.48530  1.0000
  H   H23       1.0  0.06080  0.17220  0.51470  1.0000
  H   H24       1.0  0.43920  0.82780  0.01470  1.0000
  C   C49       1.0  0.08440  0.25811  0.93907  1.0000
  C   C50       1.0  0.41560  0.74189  0.43907  1.0000
  C   C51       1.0  0.91560  0.75811  0.56093  1.0000
  C   C52       1.0  0.58440  0.24189  0.06093  1.0000
  C   C53       1.0  0.91560  0.74189  0.06093  1.0000
  C   C54       1.0  0.58440  0.25811  0.56093  1.0000
  C   C55       1.0  0.08440  0.24189  0.43907  1.0000
  C   C56       1.0  0.41560  0.75811  0.93907  1.0000
  H   H25       1.0  0.00380  0.24090  0.93800  1.0000
  H   H26       1.0  0.49620  0.75910  0.43800  1.0000
  H   H27       1.0  0.99620  0.74090  0.56200  1.0000
  H   H28       1.0  0.50380  0.25910  0.06200  1.0000
  H   H29       1.0  0.99620  0.75910  0.06200  1.0000
  H   H30       1.0  0.50380  0.24090  0.56200  1.0000
  H   H31       1.0  0.00380  0.25910  0.43800  1.0000
  H   H32       1.0  0.49620  0.74090  0.93800  1.0000
  C   C57       1.0  0.84710  0.07364  0.84463  1.0000
  C   C58       1.0  0.65290  0.92636  0.34463  1.0000
  C   C59       1.0  0.15290  0.57364  0.65537  1.0000
  C   C60       1.0  0.34710  0.42636  0.15537  1.0000
  C   C61       1.0  0.15290  0.92636  0.15537  1.0000
  C   C62       1.0  0.34710  0.07364  0.65537  1.0000
  C   C63       1.0  0.84710  0.42636  0.34463  1.0000
  C   C64       1.0  0.65290  0.57364  0.84463  1.0000
  C   C65       1.0  0.79820  0.01463  0.88958  1.0000
  C   C66       1.0  0.70180  0.98537  0.38958  1.0000
  C   C67       1.0  0.20180  0.51463  0.61042  1.0000
  C   C68       1.0  0.29820  0.48537  0.11042  1.0000
  C   C69       1.0  0.20180  0.98537  0.11042  1.0000
  C   C70       1.0  0.29820  0.01463  0.61042  1.0000
  C   C71       1.0  0.79820  0.48537  0.38958  1.0000
  C   C72       1.0  0.70180  0.51463  0.88958  1.0000
  C   C73       1.0  0.88350  0.97760  0.92824  1.0000
  C   C74       1.0  0.61650  0.02240  0.42824  1.0000
  C   C75       1.0  0.11650  0.47760  0.57176  1.0000
  C   C76       1.0  0.38350  0.52240  0.07176  1.0000
  C   C77       1.0  0.11650  0.02240  0.07176  1.0000
  C   C78       1.0  0.38350  0.97760  0.57176  1.0000
  C   C79       1.0  0.88350  0.52240  0.42824  1.0000
  C   C80       1.0  0.61650  0.47760  0.92824  1.0000
  H   H33       1.0  0.96690  0.98700  0.92250  1.0000
  H   H34       1.0  0.53310  0.01300  0.42250  1.0000
  H   H35       1.0  0.03310  0.48700  0.57750  1.0000
  H   H36       1.0  0.46690  0.51300  0.07750  1.0000
  H   H37       1.0  0.03310  0.01300  0.07750  1.0000
  H   H38       1.0  0.46690  0.98700  0.57750  1.0000
  H   H39       1.0  0.96690  0.51300  0.42250  1.0000
  H   H40       1.0  0.53310  0.48700  0.92250  1.0000
  C   C81       1.0  0.84640  0.92733  0.97477  1.0000
  C   C82       1.0  0.65360  0.07267  0.47477  1.0000
  C   C83       1.0  0.15360  0.42733  0.52523  1.0000
  C   C84       1.0  0.34640  0.57267  0.02523  1.0000
  C   C85       1.0  0.15360  0.07267  0.02523  1.0000
  C   C86       1.0  0.34640  0.92733  0.52523  1.0000
  C   C87       1.0  0.84640  0.57267  0.47477  1.0000
  C   C88       1.0  0.65360  0.42733  0.97477  1.0000
  H   H41       1.0  0.90440  0.90290  0.00030  1.0000
  H   H42       1.0  0.59560  0.09710  0.50030  1.0000
  H   H43       1.0  0.09560  0.40290  0.49970  1.0000
  H   H44       1.0  0.40440  0.59710  0.99970  1.0000
  H   H45       1.0  0.09560  0.09710  0.99970  1.0000
  H   H46       1.0  0.40440  0.90290  0.49970  1.0000
  H   H47       1.0  0.90440  0.59710  0.50030  1.0000
  H   H48       1.0  0.59560  0.40290  0.00030  1.0000
  C   C89       1.0  0.72330  0.91329  0.98346  1.0000
  C   C90       1.0  0.77670  0.08671  0.48346  1.0000
  C   C91       1.0  0.27670  0.41329  0.51654  1.0000
  C   C92       1.0  0.22330  0.58671  0.01654  1.0000
  C   C93       1.0  0.27670  0.08671  0.01654  1.0000
  C   C94       1.0  0.22330  0.91329  0.51654  1.0000
  C   C95       1.0  0.72330  0.58671  0.48346  1.0000
  C   C96       1.0  0.77670  0.41329  0.98346  1.0000
  H   H49       1.0  0.69780  0.88000  0.01540  1.0000
  H   H50       1.0  0.80220  0.12000  0.51540  1.0000
  H   H51       1.0  0.30220  0.38000  0.48460  1.0000
  H   H52       1.0  0.19780  0.62000  0.98460  1.0000
  H   H53       1.0  0.30220  0.12000  0.98460  1.0000
  H   H54       1.0  0.19780  0.88000  0.48460  1.0000
  H   H55       1.0  0.69780  0.62000  0.51540  1.0000
  H   H56       1.0  0.80220  0.38000  0.01540  1.0000
  C   C97       1.0  0.63740  0.94866  0.94474  1.0000
  C   C98       1.0  0.86260  0.05134  0.44474  1.0000
  C   C99       1.0  0.36260  0.44866  0.55526  1.0000
  C   C100      1.0  0.13740  0.55134  0.05526  1.0000
  C   C101      1.0  0.36260  0.05134  0.05526  1.0000
  C   C102      1.0  0.13740  0.94866  0.55526  1.0000
  C   C103      1.0  0.63740  0.55134  0.44474  1.0000
  C   C104      1.0  0.86260  0.44866  0.94474  1.0000
  H   H57       1.0  0.55430  0.93840  0.95060  1.0000
  H   H58       1.0  0.94570  0.06160  0.45060  1.0000
  H   H59       1.0  0.44570  0.43840  0.54940  1.0000
  H   H60       1.0  0.05430  0.56160  0.04940  1.0000
  H   H61       1.0  0.44570  0.06160  0.04940  1.0000
  H   H62       1.0  0.05430  0.93840  0.54940  1.0000
  H   H63       1.0  0.55430  0.56160  0.45060  1.0000
  H   H64       1.0  0.94570  0.43840  0.95060  1.0000
  C   C105      1.0  0.67320  0.99922  0.89718  1.0000
  C   C106      1.0  0.82680  0.00078  0.39718  1.0000
  C   C107      1.0  0.32680  0.49922  0.60282  1.0000
  C   C108      1.0  0.17320  0.50078  0.10282  1.0000
  C   C109      1.0  0.32680  0.00078  0.10282  1.0000
  C   C110      1.0  0.17320  0.99922  0.60282  1.0000
  C   C111      1.0  0.67320  0.50078  0.39718  1.0000
  C   C112      1.0  0.82680  0.49922  0.89718  1.0000
  C   C113      1.0  0.57620  0.03415  0.85552  1.0000
  C   C114      1.0  0.92380  0.96585  0.35552  1.0000
  C   C115      1.0  0.42380  0.53415  0.64448  1.0000
  C   C116      1.0  0.07620  0.46585  0.14448  1.0000
  C   C117      1.0  0.42380  0.96585  0.14448  1.0000
  C   C118      1.0  0.07620  0.03415  0.64448  1.0000
  C   C119      1.0  0.57620  0.46585  0.35552  1.0000
  C   C120      1.0  0.92380  0.53415  0.85552  1.0000
  C   C121      1.0  0.38820  0.22923  0.85071  1.0000
  C   C122      1.0  0.11180  0.77077  0.35071  1.0000
  C   C123      1.0  0.61180  0.72923  0.64929  1.0000
  C   C124      1.0  0.88820  0.27077  0.14929  1.0000
  C   C125      1.0  0.61180  0.77077  0.14929  1.0000
  C   C126      1.0  0.88820  0.22923  0.64929  1.0000
  C   C127      1.0  0.38820  0.27077  0.35071  1.0000
  C   C128      1.0  0.11180  0.72923  0.85071  1.0000
