data_image0
_chemical_formula_structural       Cs2Cd4C2H2C4H2C2H2C2H2C8H2C4H2C2H2C2H2C8H2C4H2C2H2C2H2C8H2C4H2C2H2C2H2C8H4C2H2C2H6N2H6O34H2
_chemical_formula_sum              "Cs2 Cd4 C70 H52 N2 O34"
_cell_length_a       13.075
_cell_length_b       13.86
_cell_length_c       14.256
_cell_angle_alpha    90
_cell_angle_beta     108.001
_cell_angle_gamma    90

_space_group_name_H-M_alt    "P 1"
_space_group_IT_number       1

loop_
  _space_group_symop_operation_xyz
  'x, y, z'

loop_
  _atom_site_type_symbol
  _atom_site_label
  _atom_site_symmetry_multiplicity
  _atom_site_fract_x
  _atom_site_fract_y
  _atom_site_fract_z
  _atom_site_occupancy
  Cs  Cs1       1.0  0.24495  0.86458  0.23917  1.0000
  Cs  Cs2       1.0  0.75505  0.36458  0.76083  1.0000
  Cd  Cd1       1.0  0.00238  0.69142  0.25687  1.0000
  Cd  Cd2       1.0  0.99762  0.19142  0.74313  1.0000
  Cd  Cd3       1.0  0.51167  0.03390  0.23727  1.0000
  Cd  Cd4       1.0  0.48833  0.53390  0.76273  1.0000
  C   C1        1.0  0.89880  0.40240  0.42760  1.0000
  C   C2        1.0  0.10120  0.90240  0.57240  1.0000
  H   H1        1.0  0.97350  0.40430  0.45070  1.0000
  H   H2        1.0  0.02650  0.90430  0.54930  1.0000
  C   C3        1.0  0.84340  0.34000  0.47150  1.0000
  C   C4        1.0  0.15660  0.84000  0.52850  1.0000
  C   C5        1.0  0.73200  0.33390  0.43240  1.0000
  C   C6        1.0  0.26800  0.83390  0.56760  1.0000
  H   H3        1.0  0.69400  0.29170  0.46000  1.0000
  H   H4        1.0  0.30600  0.79170  0.54000  1.0000
  C   C7        1.0  0.67810  0.39010  0.35330  1.0000
  C   C8        1.0  0.32190  0.89010  0.64670  1.0000
  H   H5        1.0  0.60380  0.38450  0.32650  1.0000
  H   H6        1.0  0.39620  0.88450  0.67350  1.0000
  C   C9        1.0  0.73360  0.45500  0.31300  1.0000
  C   C10       1.0  0.26640  0.95500  0.68700  1.0000
  H   H7        1.0  0.69580  0.49410  0.26080  1.0000
  H   H8        1.0  0.30420  0.99410  0.73920  1.0000
  C   C11       1.0  0.84370  0.46220  0.34940  1.0000
  C   C12       1.0  0.15630  0.96220  0.65060  1.0000
  C   C13       1.0  0.90390  0.28580  0.56260  1.0000
  C   C14       1.0  0.09610  0.78580  0.43740  1.0000
  C   C15       1.0  0.90380  0.53750  0.31240  1.0000
  C   C16       1.0  0.09620  0.03750  0.68760  1.0000
  C   C17       1.0  0.90670  0.98090  0.99940  1.0000
  C   C18       1.0  0.09330  0.48090  0.00060  1.0000
  H   H9        1.0  0.97640  0.96680  0.99980  1.0000
  H   H10       1.0  0.02360  0.46680  0.00020  1.0000
  C   C19       1.0  0.86230  0.93130  0.06170  1.0000
  C   C20       1.0  0.13770  0.43130  0.93830  1.0000
  C   C21       1.0  0.75890  0.95330  0.06290  1.0000
  C   C22       1.0  0.24110  0.45330  0.93710  1.0000
  H   H11       1.0  0.72870  0.91990  0.10440  1.0000
  H   H12       1.0  0.27130  0.41990  0.89560  1.0000
  C   C23       1.0  0.70140  0.02540  0.00190  1.0000
  C   C24       1.0  0.29860  0.52540  0.99810  1.0000
  H   H13       1.0  0.63340  0.04240  0.00420  1.0000
  H   H14       1.0  0.36660  0.54240  0.99580  1.0000
  C   C25       1.0  0.74500  0.07210  0.93750  1.0000
  C   C26       1.0  0.25500  0.57210  0.06250  1.0000
  H   H15       1.0  0.70440  0.11800  0.89430  1.0000
  H   H16       1.0  0.29560  0.61800  0.10570  1.0000
  C   C27       1.0  0.84810  0.05160  0.93640  1.0000
  C   C28       1.0  0.15190  0.55160  0.06360  1.0000
  C   C29       1.0  0.92600  0.85310  0.12730  1.0000
  C   C30       1.0  0.07400  0.35310  0.87270  1.0000
  C   C31       1.0  0.89470  0.10130  0.86500  1.0000
  C   C32       1.0  0.10530  0.60130  0.13500  1.0000
  C   C33       1.0  0.61650  0.32210  0.06460  1.0000
  C   C34       1.0  0.38350  0.82210  0.93540  1.0000
  H   H17       1.0  0.54170  0.32210  0.04440  1.0000
  H   H18       1.0  0.45830  0.82210  0.95560  1.0000
  C   C35       1.0  0.67090  0.38550  0.02140  1.0000
  C   C36       1.0  0.32910  0.88550  0.97860  1.0000
  C   C37       1.0  0.77990  0.38770  0.05310  1.0000
  C   C38       1.0  0.22010  0.88770  0.94690  1.0000
  H   H19       1.0  0.81630  0.43000  0.02400  1.0000
  H   H20       1.0  0.18370  0.93000  0.97600  1.0000
  C   C39       1.0  0.83840  0.32680  0.12930  1.0000
  C   C40       1.0  0.16160  0.82680  0.87070  1.0000
  H   H21       1.0  0.91310  0.32990  0.15200  1.0000
  H   H22       1.0  0.08690  0.82990  0.84800  1.0000
  C   C41       1.0  0.78420  0.26240  0.17040  1.0000
  C   C42       1.0  0.21580  0.76240  0.82960  1.0000
  H   H23       1.0  0.82270  0.22110  0.22030  1.0000
  H   H24       1.0  0.17730  0.72110  0.77970  1.0000
  C   C43       1.0  0.67320  0.25860  0.13790  1.0000
  C   C44       1.0  0.32680  0.75860  0.86210  1.0000
  C   C45       1.0  0.61340  0.18470  0.17670  1.0000
  C   C46       1.0  0.38660  0.68470  0.82330  1.0000
  C   C47       1.0  0.60660  0.44670  0.93590  1.0000
  C   C48       1.0  0.39340  0.94670  0.06410  1.0000
  C   C49       1.0  0.56270  0.73820  0.46660  1.0000
  C   C50       1.0  0.43730  0.23820  0.53340  1.0000
  H   H25       1.0  0.49450  0.76180  0.46130  1.0000
  H   H26       1.0  0.50550  0.26180  0.53870  1.0000
  C   C51       1.0  0.62030  0.77750  0.40930  1.0000
  C   C52       1.0  0.37970  0.27750  0.59070  1.0000
  C   C53       1.0  0.71930  0.73800  0.41440  1.0000
  C   C54       1.0  0.28070  0.23800  0.58560  1.0000
  H   H27       1.0  0.75760  0.76270  0.37460  1.0000
  H   H28       1.0  0.24240  0.26270  0.62540  1.0000
  C   C55       1.0  0.76200  0.66250  0.47770  1.0000
  C   C56       1.0  0.23800  0.16250  0.52230  1.0000
  H   H29       1.0  0.82780  0.63570  0.47960  1.0000
  H   H30       1.0  0.17220  0.13570  0.52040  1.0000
  C   C57       1.0  0.70600  0.62730  0.53810  1.0000
  C   C58       1.0  0.29400  0.12730  0.46190  1.0000
  H   H31       1.0  0.73610  0.57860  0.58310  1.0000
  H   H32       1.0  0.26390  0.07860  0.41690  1.0000
  C   C59       1.0  0.60600  0.66350  0.53250  1.0000
  C   C60       1.0  0.39400  0.16350  0.46750  1.0000
  C   C61       1.0  0.54240  0.62590  0.59960  1.0000
  C   C62       1.0  0.45760  0.12590  0.40040  1.0000
  C   C63       1.0  0.57510  0.86320  0.34450  1.0000
  C   C64       1.0  0.42490  0.36320  0.65550  1.0000
  C   C65       1.0  0.12290  0.16480  0.16220  1.0000
  C   C66       1.0  0.87710  0.66480  0.83780  1.0000
  H   H33       1.0  0.11630  0.20980  0.21210  1.0000
  H   H34       1.0  0.88370  0.70980  0.78790  1.0000
  H   H35       1.0  0.05120  0.14270  0.12580  1.0000
  H   H36       1.0  0.94880  0.64270  0.87420  1.0000
  C   C67       1.0  0.17070  0.21640  0.09270  1.0000
  C   C68       1.0  0.82930  0.71640  0.90730  1.0000
  H   H37       1.0  0.11710  0.26220  0.05390  1.0000
  H   H38       1.0  0.88290  0.76220  0.94610  1.0000
  C   C69       1.0  0.27330  0.27170  0.14220  1.0000
  C   C70       1.0  0.72670  0.77170  0.85780  1.0000
  H   H39       1.0  0.29890  0.30130  0.09290  1.0000
  H   H40       1.0  0.70110  0.80130  0.90710  1.0000
  H   H41       1.0  0.32680  0.22810  0.18100  1.0000
  H   H42       1.0  0.67320  0.72810  0.81900  1.0000
  H   H43       1.0  0.25910  0.32060  0.18420  1.0000
  H   H44       1.0  0.74090  0.82060  0.81580  1.0000
  N   N1        1.0  0.19250  0.14320  0.02290  1.0000
  N   N2        1.0  0.80750  0.64320  0.97710  1.0000
  H   H45       1.0  0.13250  0.11070  0.99340  1.0000
  H   H46       1.0  0.86750  0.61070  0.00660  1.0000
  H   H47       1.0  0.24320  0.10240  0.05650  1.0000
  H   H48       1.0  0.75680  0.60240  0.94350  1.0000
  H   H49       1.0  0.21480  0.17340  0.97760  1.0000
  H   H50       1.0  0.78520  0.67340  0.02240  1.0000
  O   O1        1.0  0.00500  0.27710  0.58280  1.0000
  O   O2        1.0  0.99500  0.77710  0.41720  1.0000
  O   O3        1.0  0.85370  0.25240  0.61730  1.0000
  O   O4        1.0  0.14630  0.75240  0.38270  1.0000
  O   O5        1.0  0.85100  0.60240  0.25620  1.0000
  O   O6        1.0  0.14900  0.10240  0.74380  1.0000
  O   O7        1.0  0.00560  0.53790  0.34176  1.0000
  O   O8        1.0  0.99440  0.03790  0.65824  1.0000
  O   O9        1.0  0.01690  0.83020  0.12330  1.0000
  O   O10       1.0  0.98310  0.33020  0.87670  1.0000
  O   O11       1.0  0.88430  0.81030  0.18550  1.0000
  O   O12       1.0  0.11570  0.31030  0.81450  1.0000
  O   O13       1.0  0.83280  0.14460  0.79234  1.0000
  O   O14       1.0  0.16720  0.64460  0.20766  1.0000
  O   O15       1.0  0.99550  0.09800  0.88150  1.0000
  O   O16       1.0  0.00450  0.59800  0.11850  1.0000
  O   O17       1.0  0.66540  0.12700  0.24280  1.0000
  O   O18       1.0  0.33460  0.62700  0.75720  1.0000
  O   O19       1.0  0.51370  0.17870  0.14290  1.0000
  O   O20       1.0  0.48630  0.67870  0.85710  1.0000
  O   O21       1.0  0.50620  0.44680  0.91040  1.0000
  O   O22       1.0  0.49380  0.94680  0.08960  1.0000
  O   O23       1.0  0.65840  0.49410  0.88820  1.0000
  O   O24       1.0  0.34160  0.99410  0.11180  1.0000
  O   O25       1.0  0.59970  0.59210  0.68260  1.0000
  O   O26       1.0  0.40030  0.09210  0.31740  1.0000
  O   O27       1.0  0.44520  0.62940  0.57160  1.0000
  O   O28       1.0  0.55480  0.12940  0.42840  1.0000
  O   O29       1.0  0.47820  0.87900  0.32020  1.0000
  O   O30       1.0  0.52180  0.37900  0.67980  1.0000
  O   O31       1.0  0.63860  0.91670  0.31820  1.0000
  O   O32       1.0  0.36140  0.41670  0.68180  1.0000
  O   O33       1.0  0.18560  0.08440  0.20930  1.0000
  O   O34       1.0  0.81440  0.58440  0.79070  1.0000
  H   H51       1.0  0.24600  0.10450  0.20660  1.0000
  H   H52       1.0  0.75400  0.60450  0.79340  1.0000
