data_image0
_chemical_formula_structural       Cs2Cd4C2H2C4H2C2H2C2H2C8H2C4H2C2H2C2H2C8H2C4H2C2H2C2H2C8H2C4H2C2H2C2H2C8H4C2H2C2H6N2H6O34H2
_chemical_formula_sum              "Cs2 Cd4 C70 H52 N2 O34"
_cell_length_a       13.079
_cell_length_b       13.853
_cell_length_c       14.263
_cell_angle_alpha    90
_cell_angle_beta     107.983
_cell_angle_gamma    90

_space_group_name_H-M_alt    "P 1"
_space_group_IT_number       1

loop_
  _space_group_symop_operation_xyz
  'x, y, z'

loop_
  _atom_site_type_symbol
  _atom_site_label
  _atom_site_symmetry_multiplicity
  _atom_site_fract_x
  _atom_site_fract_y
  _atom_site_fract_z
  _atom_site_occupancy
  Cs  Cs1       1.0  0.25516  0.89849  0.26106  1.0000
  Cs  Cs2       1.0  0.74484  0.39849  0.73894  1.0000
  Cd  Cd1       1.0  0.49763  0.07175  0.24330  1.0000
  Cd  Cd2       1.0  0.50237  0.57175  0.75670  1.0000
  Cd  Cd3       1.0  0.98834  0.72915  0.26294  1.0000
  Cd  Cd4       1.0  0.01166  0.22915  0.73706  1.0000
  C   C1        1.0  0.60250  0.36110  0.07200  1.0000
  C   C2        1.0  0.39750  0.86110  0.92800  1.0000
  H   H1        1.0  0.52780  0.35790  0.04880  1.0000
  H   H2        1.0  0.47220  0.85790  0.95120  1.0000
  C   C3        1.0  0.65510  0.42470  0.02760  1.0000
  C   C4        1.0  0.34490  0.92470  0.97240  1.0000
  C   C5        1.0  0.76700  0.43100  0.06680  1.0000
  C   C6        1.0  0.23300  0.93100  0.93320  1.0000
  H   H3        1.0  0.80500  0.47370  0.03980  1.0000
  H   H4        1.0  0.19500  0.97370  0.96020  1.0000
  C   C7        1.0  0.82180  0.37260  0.14730  1.0000
  C   C8        1.0  0.17820  0.87260  0.85270  1.0000
  H   H5        1.0  0.89600  0.37800  0.17400  1.0000
  H   H6        1.0  0.10400  0.87800  0.82600  1.0000
  C   C9        1.0  0.76700  0.30730  0.18730  1.0000
  C   C10       1.0  0.23300  0.80730  0.81270  1.0000
  H   H7        1.0  0.80440  0.26750  0.23890  1.0000
  H   H8        1.0  0.19560  0.76750  0.76110  1.0000
  C   C11       1.0  0.65780  0.30160  0.15060  1.0000
  C   C12       1.0  0.34220  0.80160  0.84940  1.0000
  C   C13       1.0  0.59380  0.47760  0.93720  1.0000
  C   C14       1.0  0.40620  0.97760  0.06280  1.0000
  C   C15       1.0  0.59620  0.22650  0.18690  1.0000
  C   C16       1.0  0.40380  0.72650  0.81310  1.0000
  C   C17       1.0  0.59350  0.78210  0.50110  1.0000
  C   C18       1.0  0.40650  0.28210  0.49890  1.0000
  H   H9        1.0  0.52390  0.79590  0.50100  1.0000
  H   H10       1.0  0.47610  0.29590  0.49900  1.0000
  C   C19       1.0  0.63800  0.83270  0.43750  1.0000
  C   C20       1.0  0.36200  0.33270  0.56250  1.0000
  C   C21       1.0  0.74040  0.80940  0.43630  1.0000
  C   C22       1.0  0.25960  0.30940  0.56370  1.0000
  H   H11       1.0  0.76970  0.84040  0.39270  1.0000
  H   H12       1.0  0.23030  0.34040  0.60730  1.0000
  C   C23       1.0  0.79840  0.74100  0.49920  1.0000
  C   C24       1.0  0.20160  0.24100  0.50080  1.0000
  H   H13       1.0  0.86850  0.72730  0.50050  1.0000
  H   H14       1.0  0.13150  0.22730  0.49950  1.0000
  C   C25       1.0  0.75260  0.69150  0.56170  1.0000
  C   C26       1.0  0.24740  0.19150  0.43830  1.0000
  H   H15       1.0  0.79230  0.64350  0.60250  1.0000
  H   H16       1.0  0.20770  0.14350  0.39750  1.0000
  C   C27       1.0  0.65340  0.71090  0.56470  1.0000
  C   C28       1.0  0.34660  0.21090  0.43530  1.0000
  C   C29       1.0  0.57490  0.90910  0.37390  1.0000
  C   C30       1.0  0.42510  0.40910  0.62610  1.0000
  C   C31       1.0  0.60390  0.66030  0.63550  1.0000
  C   C32       1.0  0.39610  0.16030  0.36450  1.0000
  C   C33       1.0  0.88460  0.43990  0.43580  1.0000
  C   C34       1.0  0.11540  0.93990  0.56420  1.0000
  H   H17       1.0  0.95930  0.43940  0.45590  1.0000
  H   H18       1.0  0.04070  0.93940  0.54410  1.0000
  C   C35       1.0  0.82920  0.37810  0.47910  1.0000
  C   C36       1.0  0.17080  0.87810  0.52090  1.0000
  C   C37       1.0  0.71930  0.37370  0.44680  1.0000
  C   C38       1.0  0.28070  0.87370  0.55320  1.0000
  H   H19       1.0  0.68310  0.32950  0.47400  1.0000
  H   H20       1.0  0.31690  0.82950  0.52600  1.0000
  C   C39       1.0  0.66150  0.43740  0.37130  1.0000
  C   C40       1.0  0.33850  0.93740  0.62870  1.0000
  H   H21       1.0  0.58680  0.43540  0.34960  1.0000
  H   H22       1.0  0.41320  0.93540  0.65040  1.0000
  C   C41       1.0  0.71430  0.50190  0.32990  1.0000
  C   C42       1.0  0.28570  0.00190  0.67010  1.0000
  H   H23       1.0  0.67610  0.54450  0.28130  1.0000
  H   H24       1.0  0.32390  0.04450  0.71870  1.0000
  C   C43       1.0  0.82800  0.50260  0.36220  1.0000
  C   C44       1.0  0.17200  0.00260  0.63780  1.0000
  C   C45       1.0  0.88720  0.57990  0.32340  1.0000
  C   C46       1.0  0.11280  0.07990  0.67660  1.0000
  C   C47       1.0  0.89030  0.31720  0.56320  1.0000
  C   C48       1.0  0.10970  0.81720  0.43680  1.0000
  C   C49       1.0  0.93520  0.02350  0.03300  1.0000
  C   C50       1.0  0.06480  0.52350  0.96700  1.0000
  H   H25       1.0  0.00210  0.99780  0.03690  1.0000
  H   H26       1.0  0.99790  0.49780  0.96310  1.0000
  C   C51       1.0  0.88090  0.98600  0.09210  1.0000
  C   C52       1.0  0.11910  0.48600  0.90790  1.0000
  C   C53       1.0  0.77980  0.02410  0.08660  1.0000
  C   C54       1.0  0.22020  0.52410  0.91340  1.0000
  H   H27       1.0  0.74210  0.99880  0.12650  1.0000
  H   H28       1.0  0.25790  0.49880  0.87350  1.0000
  C   C55       1.0  0.73520  0.09910  0.02210  1.0000
  C   C56       1.0  0.26480  0.59910  0.97790  1.0000
  H   H29       1.0  0.66810  0.12440  0.01800  1.0000
  H   H30       1.0  0.33190  0.62440  0.98200  1.0000
  C   C57       1.0  0.79450  0.13500  0.96380  1.0000
  C   C58       1.0  0.20550  0.63500  0.03620  1.0000
  H   H31       1.0  0.76540  0.18550  0.92090  1.0000
  H   H32       1.0  0.23460  0.68550  0.07910  1.0000
  C   C59       1.0  0.89450  0.09980  0.96590  1.0000
  C   C60       1.0  0.10550  0.59980  0.03410  1.0000
  C   C61       1.0  0.95680  0.13520  0.90070  1.0000
  C   C62       1.0  0.04320  0.63520  0.09930  1.0000
  C   C63       1.0  0.92460  0.90020  0.15460  1.0000
  C   C64       1.0  0.07540  0.40020  0.84540  1.0000
  C   C65       1.0  0.37540  0.59680  0.33910  1.0000
  C   C66       1.0  0.62460  0.09680  0.66090  1.0000
  H   H33       1.0  0.44750  0.61820  0.37490  1.0000
  H   H34       1.0  0.55250  0.11820  0.62510  1.0000
  H   H35       1.0  0.38140  0.55050  0.29000  1.0000
  H   H36       1.0  0.61860  0.05050  0.71000  1.0000
  C   C67       1.0  0.32960  0.54650  0.40940  1.0000
  C   C68       1.0  0.67040  0.04650  0.59060  1.0000
  H   H37       1.0  0.38280  0.50050  0.44820  1.0000
  H   H38       1.0  0.61720  0.00050  0.55180  1.0000
  C   C69       1.0  0.22490  0.49190  0.35800  1.0000
  C   C70       1.0  0.77510  0.99190  0.64200  1.0000
  H   H39       1.0  0.19820  0.46240  0.40670  1.0000
  H   H40       1.0  0.80180  0.96240  0.59330  1.0000
  H   H41       1.0  0.23880  0.44290  0.31590  1.0000
  H   H42       1.0  0.76120  0.94290  0.68410  1.0000
  H   H43       1.0  0.17230  0.53630  0.31930  1.0000
  H   H44       1.0  0.82770  0.03630  0.68070  1.0000
  N   N1        1.0  0.30900  0.62030  0.47680  1.0000
  N   N2        1.0  0.69100  0.12030  0.52320  1.0000
  H   H45       1.0  0.36960  0.65180  0.50660  1.0000
  H   H46       1.0  0.63040  0.15180  0.49340  1.0000
  H   H47       1.0  0.28520  0.59150  0.52180  1.0000
  H   H48       1.0  0.71480  0.09150  0.47820  1.0000
  H   H49       1.0  0.25970  0.66190  0.44230  1.0000
  H   H50       1.0  0.74030  0.16190  0.55770  1.0000
  O   O1        1.0  0.49530  0.48650  0.91630  1.0000
  O   O2        1.0  0.50470  0.98650  0.08370  1.0000
  O   O3        1.0  0.64630  0.51000  0.88250  1.0000
  O   O4        1.0  0.35370  0.01000  0.11750  1.0000
  O   O5        1.0  0.64850  0.16040  0.24250  1.0000
  O   O6        1.0  0.35150  0.66040  0.75750  1.0000
  O   O7        1.0  0.49280  0.22610  0.15790  1.0000
  O   O8        1.0  0.50720  0.72610  0.84210  1.0000
  O   O9        1.0  0.48300  0.93320  0.37700  1.0000
  O   O10       1.0  0.51700  0.43320  0.62300  1.0000
  O   O11       1.0  0.61450  0.95270  0.31390  1.0000
  O   O12       1.0  0.38550  0.45270  0.68610  1.0000
  O   O13       1.0  0.66700  0.61810  0.70810  1.0000
  O   O14       1.0  0.33300  0.11810  0.29190  1.0000
  O   O15       1.0  0.50580  0.66430  0.61900  1.0000
  O   O16       1.0  0.49420  0.16430  0.38100  1.0000
  O   O17       1.0  0.83200  0.63790  0.25720  1.0000
  O   O18       1.0  0.16800  0.13790  0.74280  1.0000
  O   O19       1.0  0.98430  0.58510  0.35590  1.0000
  O   O20       1.0  0.01570  0.08510  0.64410  1.0000
  O   O21       1.0  0.99430  0.31640  0.59030  1.0000
  O   O22       1.0  0.00570  0.81640  0.40970  1.0000
  O   O23       1.0  0.84210  0.27220  0.61300  1.0000
  O   O24       1.0  0.15790  0.77220  0.38700  1.0000
  O   O25       1.0  0.89850  0.17030  0.81710  1.0000
  O   O26       1.0  0.10150  0.67030  0.18290  1.0000
  O   O27       1.0  0.05270  0.13280  0.92850  1.0000
  O   O28       1.0  0.94730  0.63280  0.07150  1.0000
  O   O29       1.0  0.02310  0.88350  0.17900  1.0000
  O   O30       1.0  0.97690  0.38350  0.82100  1.0000
  O   O31       1.0  0.86100  0.84580  0.18120  1.0000
  O   O32       1.0  0.13900  0.34580  0.81880  1.0000
  O   O33       1.0  0.31640  0.67670  0.29020  1.0000
  O   O34       1.0  0.68360  0.17670  0.70980  1.0000
  H   H51       1.0  0.25420  0.65520  0.28540  1.0000
  H   H52       1.0  0.74580  0.15520  0.71460  1.0000
