data_image0
_chemical_formula_structural       Cd4C48H8C8H8C8H8C8H8C16H8C8H16C40H8C16H8C8H8C8H8C8H8C8O24H8O8H8O16
_chemical_formula_sum              "Cd4 C184 H112 O48"
_cell_length_a       28.323
_cell_length_b       11.0466
_cell_length_c       20.5022
_cell_angle_alpha    90
_cell_angle_beta     120.905
_cell_angle_gamma    90

_space_group_name_H-M_alt    "P 1"
_space_group_IT_number       1

loop_
  _space_group_symop_operation_xyz
  'x, y, z'

loop_
  _atom_site_type_symbol
  _atom_site_label
  _atom_site_symmetry_multiplicity
  _atom_site_fract_x
  _atom_site_fract_y
  _atom_site_fract_z
  _atom_site_occupancy
  Cd  Cd1       1.0  0.00000  0.75308  0.25000  1.0000
  Cd  Cd2       1.0  0.50000  0.25308  0.25000  1.0000
  Cd  Cd3       1.0  0.00000  0.24692  0.75000  1.0000
  Cd  Cd4       1.0  0.50000  0.74692  0.75000  1.0000
  C   C1        1.0  0.04688  0.59030  0.19600  1.0000
  C   C2        1.0  0.54688  0.09030  0.19600  1.0000
  C   C3        1.0  0.95312  0.59030  0.30400  1.0000
  C   C4        1.0  0.45312  0.09030  0.30400  1.0000
  C   C5        1.0  0.95312  0.40970  0.80400  1.0000
  C   C6        1.0  0.45312  0.90970  0.80400  1.0000
  C   C7        1.0  0.04688  0.40970  0.69600  1.0000
  C   C8        1.0  0.54688  0.90970  0.69600  1.0000
  C   C9        1.0  0.06438  0.48860  0.16481  1.0000
  C   C10       1.0  0.56438  0.98860  0.16481  1.0000
  C   C11       1.0  0.93562  0.48860  0.33519  1.0000
  C   C12       1.0  0.43562  0.98860  0.33519  1.0000
  C   C13       1.0  0.93562  0.51140  0.83519  1.0000
  C   C14       1.0  0.43562  0.01140  0.83519  1.0000
  C   C15       1.0  0.06438  0.51140  0.66481  1.0000
  C   C16       1.0  0.56438  0.01140  0.66481  1.0000
  C   C17       1.0  0.02467  0.42390  0.09846  1.0000
  C   C18       1.0  0.52467  0.92390  0.09846  1.0000
  C   C19       1.0  0.97533  0.42390  0.40154  1.0000
  C   C20       1.0  0.47533  0.92390  0.40154  1.0000
  C   C21       1.0  0.97533  0.57610  0.90154  1.0000
  C   C22       1.0  0.47533  0.07610  0.90154  1.0000
  C   C23       1.0  0.02467  0.57610  0.59846  1.0000
  C   C24       1.0  0.52467  0.07610  0.59846  1.0000
  C   C25       1.0  0.03981  0.32570  0.07081  1.0000
  C   C26       1.0  0.53981  0.82570  0.07081  1.0000
  C   C27       1.0  0.96019  0.32570  0.42919  1.0000
  C   C28       1.0  0.46019  0.82570  0.42919  1.0000
  C   C29       1.0  0.96019  0.67430  0.92919  1.0000
  C   C30       1.0  0.46019  0.17430  0.92919  1.0000
  C   C31       1.0  0.03981  0.67430  0.57081  1.0000
  C   C32       1.0  0.53981  0.17430  0.57081  1.0000
  C   C33       1.0  0.09585  0.29090  0.10818  1.0000
  C   C34       1.0  0.59585  0.79090  0.10818  1.0000
  C   C35       1.0  0.90415  0.29090  0.39182  1.0000
  C   C36       1.0  0.40415  0.79090  0.39182  1.0000
  C   C37       1.0  0.90415  0.70910  0.89182  1.0000
  C   C38       1.0  0.40415  0.20910  0.89182  1.0000
  C   C39       1.0  0.09585  0.70910  0.60818  1.0000
  C   C40       1.0  0.59585  0.20910  0.60818  1.0000
  C   C41       1.0  0.11586  0.19230  0.08415  1.0000
  C   C42       1.0  0.61586  0.69230  0.08415  1.0000
  C   C43       1.0  0.88414  0.19230  0.41585  1.0000
  C   C44       1.0  0.38414  0.69230  0.41585  1.0000
  C   C45       1.0  0.88414  0.80770  0.91585  1.0000
  C   C46       1.0  0.38414  0.30770  0.91585  1.0000
  C   C47       1.0  0.11586  0.80770  0.58415  1.0000
  C   C48       1.0  0.61586  0.30770  0.58415  1.0000
  H   H1        1.0  0.09130  0.14830  0.04120  1.0000
  H   H2        1.0  0.59130  0.64830  0.04120  1.0000
  H   H3        1.0  0.90870  0.14830  0.45880  1.0000
  H   H4        1.0  0.40870  0.64830  0.45880  1.0000
  H   H5        1.0  0.90870  0.85170  0.95880  1.0000
  H   H6        1.0  0.40870  0.35170  0.95880  1.0000
  H   H7        1.0  0.09130  0.85170  0.54120  1.0000
  H   H8        1.0  0.59130  0.35170  0.54120  1.0000
  C   C49       1.0  0.16991  0.16150  0.12260  1.0000
  C   C50       1.0  0.66991  0.66150  0.12260  1.0000
  C   C51       1.0  0.83009  0.16150  0.37740  1.0000
  C   C52       1.0  0.33009  0.66150  0.37740  1.0000
  C   C53       1.0  0.83009  0.83850  0.87740  1.0000
  C   C54       1.0  0.33009  0.33850  0.87740  1.0000
  C   C55       1.0  0.16991  0.83850  0.62260  1.0000
  C   C56       1.0  0.66991  0.33850  0.62260  1.0000
  H   H9        1.0  0.18160  0.09740  0.10490  1.0000
  H   H10       1.0  0.68160  0.59740  0.10490  1.0000
  H   H11       1.0  0.81840  0.09740  0.39510  1.0000
  H   H12       1.0  0.31840  0.59740  0.39510  1.0000
  H   H13       1.0  0.81840  0.90260  0.89510  1.0000
  H   H14       1.0  0.31840  0.40260  0.89510  1.0000
  H   H15       1.0  0.18160  0.90260  0.60490  1.0000
  H   H16       1.0  0.68160  0.40260  0.60490  1.0000
  C   C57       1.0  0.20848  0.22320  0.18800  1.0000
  C   C58       1.0  0.70848  0.72320  0.18800  1.0000
  C   C59       1.0  0.79152  0.22320  0.31200  1.0000
  C   C60       1.0  0.29152  0.72320  0.31200  1.0000
  C   C61       1.0  0.79152  0.77680  0.81200  1.0000
  C   C62       1.0  0.29152  0.27680  0.81200  1.0000
  C   C63       1.0  0.20848  0.77680  0.68800  1.0000
  C   C64       1.0  0.70848  0.27680  0.68800  1.0000
  H   H17       1.0  0.24520  0.19920  0.21410  1.0000
  H   H18       1.0  0.74520  0.69920  0.21410  1.0000
  H   H19       1.0  0.75480  0.19920  0.28590  1.0000
  H   H20       1.0  0.25480  0.69920  0.28590  1.0000
  H   H21       1.0  0.75480  0.80080  0.78590  1.0000
  H   H22       1.0  0.25480  0.30080  0.78590  1.0000
  H   H23       1.0  0.24520  0.80080  0.71410  1.0000
  H   H24       1.0  0.74520  0.30080  0.71410  1.0000
  C   C65       1.0  0.19164  0.31930  0.21316  1.0000
  C   C66       1.0  0.69164  0.81930  0.21316  1.0000
  C   C67       1.0  0.80836  0.31930  0.28684  1.0000
  C   C68       1.0  0.30836  0.81930  0.28684  1.0000
  C   C69       1.0  0.80836  0.68070  0.78684  1.0000
  C   C70       1.0  0.30836  0.18070  0.78684  1.0000
  C   C71       1.0  0.19164  0.68070  0.71316  1.0000
  C   C72       1.0  0.69164  0.18070  0.71316  1.0000
  H   H25       1.0  0.21720  0.36110  0.25640  1.0000
  H   H26       1.0  0.71720  0.86110  0.25640  1.0000
  H   H27       1.0  0.78280  0.36110  0.24360  1.0000
  H   H28       1.0  0.28280  0.86110  0.24360  1.0000
  H   H29       1.0  0.78280  0.63890  0.74360  1.0000
  H   H30       1.0  0.28280  0.13890  0.74360  1.0000
  H   H31       1.0  0.21720  0.63890  0.75640  1.0000
  H   H32       1.0  0.71720  0.13890  0.75640  1.0000
  C   C73       1.0  0.13562  0.35600  0.17398  1.0000
  C   C74       1.0  0.63562  0.85600  0.17398  1.0000
  C   C75       1.0  0.86438  0.35600  0.32602  1.0000
  C   C76       1.0  0.36438  0.85600  0.32602  1.0000
  C   C77       1.0  0.86438  0.64400  0.82602  1.0000
  C   C78       1.0  0.36438  0.14400  0.82602  1.0000
  C   C79       1.0  0.13562  0.64400  0.67398  1.0000
  C   C80       1.0  0.63562  0.14400  0.67398  1.0000
  C   C81       1.0  0.11821  0.45410  0.20003  1.0000
  C   C82       1.0  0.61821  0.95410  0.20003  1.0000
  C   C83       1.0  0.88179  0.45410  0.29997  1.0000
  C   C84       1.0  0.38179  0.95410  0.29997  1.0000
  C   C85       1.0  0.88179  0.54590  0.79997  1.0000
  C   C86       1.0  0.38179  0.04590  0.79997  1.0000
  C   C87       1.0  0.11821  0.54590  0.70003  1.0000
  C   C88       1.0  0.61821  0.04590  0.70003  1.0000
  H   H33       1.0  0.14420  0.49680  0.24260  1.0000
  H   H34       1.0  0.64420  0.99680  0.24260  1.0000
  H   H35       1.0  0.85580  0.49680  0.25740  1.0000
  H   H36       1.0  0.35580  0.99680  0.25740  1.0000
  H   H37       1.0  0.85580  0.50320  0.75740  1.0000
  H   H38       1.0  0.35580  0.00320  0.75740  1.0000
  H   H39       1.0  0.14420  0.50320  0.74260  1.0000
  H   H40       1.0  0.64420  0.00320  0.74260  1.0000
  C   C89       1.0  0.99455  0.26340  0.99988  1.0000
  C   C90       1.0  0.49455  0.76340  0.99988  1.0000
  C   C91       1.0  0.00545  0.26340  0.50012  1.0000
  C   C92       1.0  0.50545  0.76340  0.50012  1.0000
  C   C93       1.0  0.00545  0.73660  0.00012  1.0000
  C   C94       1.0  0.50545  0.23660  0.00012  1.0000
  C   C95       1.0  0.99455  0.73660  0.49988  1.0000
  C   C96       1.0  0.49455  0.23660  0.49988  1.0000
  H   H41       1.0  0.01130  0.20690  0.98140  1.0000
  H   H42       1.0  0.51130  0.70690  0.98140  1.0000
  H   H43       1.0  0.98870  0.20690  0.51860  1.0000
  H   H44       1.0  0.48870  0.70690  0.51860  1.0000
  H   H45       1.0  0.98870  0.79310  0.01860  1.0000
  H   H46       1.0  0.48870  0.29310  0.01860  1.0000
  H   H47       1.0  0.01130  0.79310  0.48140  1.0000
  H   H48       1.0  0.51130  0.29310  0.48140  1.0000
  H   H49       1.0  0.97500  0.32380  0.96070  1.0000
  H   H50       1.0  0.47500  0.82380  0.96070  1.0000
  H   H51       1.0  0.02500  0.32380  0.53930  1.0000
  H   H52       1.0  0.52500  0.82380  0.53930  1.0000
  H   H53       1.0  0.02500  0.67620  0.03930  1.0000
  H   H54       1.0  0.52500  0.17620  0.03930  1.0000
  H   H55       1.0  0.97500  0.67620  0.46070  1.0000
  H   H56       1.0  0.47500  0.17620  0.46070  1.0000
  C   C97       1.0  0.95345  0.19540  0.01313  1.0000
  C   C98       1.0  0.45345  0.69540  0.01313  1.0000
  C   C99       1.0  0.04655  0.19540  0.48687  1.0000
  C   C100      1.0  0.54655  0.69540  0.48687  1.0000
  C   C101      1.0  0.04655  0.80460  0.98687  1.0000
  C   C102      1.0  0.54655  0.30460  0.98687  1.0000
  C   C103      1.0  0.95345  0.80460  0.51313  1.0000
  C   C104      1.0  0.45345  0.30460  0.51313  1.0000
  C   C105      1.0  0.97224  0.09530  0.05948  1.0000
  C   C106      1.0  0.47224  0.59530  0.05948  1.0000
  C   C107      1.0  0.02776  0.09530  0.44052  1.0000
  C   C108      1.0  0.52776  0.59530  0.44052  1.0000
  C   C109      1.0  0.02776  0.90470  0.94052  1.0000
  C   C110      1.0  0.52776  0.40470  0.94052  1.0000
  C   C111      1.0  0.97224  0.90470  0.55948  1.0000
  C   C112      1.0  0.47224  0.40470  0.55948  1.0000
  C   C113      1.0  0.93827  0.02910  0.07951  1.0000
  C   C114      1.0  0.43827  0.52910  0.07951  1.0000
  C   C115      1.0  0.06173  0.02910  0.42049  1.0000
  C   C116      1.0  0.56173  0.52910  0.42049  1.0000
  C   C117      1.0  0.06173  0.97090  0.92049  1.0000
  C   C118      1.0  0.56173  0.47090  0.92049  1.0000
  C   C119      1.0  0.93827  0.97090  0.57951  1.0000
  C   C120      1.0  0.43827  0.47090  0.57951  1.0000
  C   C121      1.0  0.96150  0.92870  0.13679  1.0000
  C   C122      1.0  0.46150  0.42870  0.13679  1.0000
  C   C123      1.0  0.03850  0.92870  0.36321  1.0000
  C   C124      1.0  0.53850  0.42870  0.36321  1.0000
  C   C125      1.0  0.03850  0.07130  0.86321  1.0000
  C   C126      1.0  0.53850  0.57130  0.86321  1.0000
  C   C127      1.0  0.96150  0.07130  0.63679  1.0000
  C   C128      1.0  0.46150  0.57130  0.63679  1.0000
  C   C129      1.0  0.88409  0.06120  0.04720  1.0000
  C   C130      1.0  0.38409  0.56120  0.04720  1.0000
  C   C131      1.0  0.11591  0.06120  0.45280  1.0000
  C   C132      1.0  0.61591  0.56120  0.45280  1.0000
  C   C133      1.0  0.11591  0.93880  0.95280  1.0000
  C   C134      1.0  0.61591  0.43880  0.95280  1.0000
  C   C135      1.0  0.88409  0.93880  0.54720  1.0000
  C   C136      1.0  0.38409  0.43880  0.54720  1.0000
  H   H57       1.0  0.86140  0.01720  0.05890  1.0000
  H   H58       1.0  0.36140  0.51720  0.05890  1.0000
  H   H59       1.0  0.13860  0.01720  0.44110  1.0000
  H   H60       1.0  0.63860  0.51720  0.44110  1.0000
  H   H61       1.0  0.13860  0.98280  0.94110  1.0000
  H   H62       1.0  0.63860  0.48280  0.94110  1.0000
  H   H63       1.0  0.86140  0.98280  0.55890  1.0000
  H   H64       1.0  0.36140  0.48280  0.55890  1.0000
  C   C137      1.0  0.86193  0.16000  0.99642  1.0000
  C   C138      1.0  0.36193  0.66000  0.99642  1.0000
  C   C139      1.0  0.13807  0.16000  0.50358  1.0000
  C   C140      1.0  0.63807  0.66000  0.50358  1.0000
  C   C141      1.0  0.13807  0.84000  0.00358  1.0000
  C   C142      1.0  0.63807  0.34000  0.00358  1.0000
  C   C143      1.0  0.86193  0.84000  0.49642  1.0000
  C   C144      1.0  0.36193  0.34000  0.49642  1.0000
  C   C145      1.0  0.80590  0.19160  0.96402  1.0000
  C   C146      1.0  0.30590  0.69160  0.96402  1.0000
  C   C147      1.0  0.19410  0.19160  0.53598  1.0000
  C   C148      1.0  0.69410  0.69160  0.53598  1.0000
  C   C149      1.0  0.19410  0.80840  0.03598  1.0000
  C   C150      1.0  0.69410  0.30840  0.03598  1.0000
  C   C151      1.0  0.80590  0.80840  0.46402  1.0000
  C   C152      1.0  0.30590  0.30840  0.46402  1.0000
  H   H65       1.0  0.78360  0.14680  0.97610  1.0000
  H   H66       1.0  0.28360  0.64680  0.97610  1.0000
  H   H67       1.0  0.21640  0.14680  0.52390  1.0000
  H   H68       1.0  0.71640  0.64680  0.52390  1.0000
  H   H69       1.0  0.21640  0.85320  0.02390  1.0000
  H   H70       1.0  0.71640  0.35320  0.02390  1.0000
  H   H71       1.0  0.78360  0.85320  0.47610  1.0000
  H   H72       1.0  0.28360  0.35320  0.47610  1.0000
  C   C153      1.0  0.78410  0.28780  0.91480  1.0000
  C   C154      1.0  0.28410  0.78780  0.91480  1.0000
  C   C155      1.0  0.21590  0.28780  0.58520  1.0000
  C   C156      1.0  0.71590  0.78780  0.58520  1.0000
  C   C157      1.0  0.21590  0.71220  0.08520  1.0000
  C   C158      1.0  0.71590  0.21220  0.08520  1.0000
  C   C159      1.0  0.78410  0.71220  0.41480  1.0000
  C   C160      1.0  0.28410  0.21220  0.41480  1.0000
  H   H73       1.0  0.74720  0.30810  0.89320  1.0000
  H   H74       1.0  0.24720  0.80810  0.89320  1.0000
  H   H75       1.0  0.25280  0.30810  0.60680  1.0000
  H   H76       1.0  0.75280  0.80810  0.60680  1.0000
  H   H77       1.0  0.25280  0.69190  0.10680  1.0000
  H   H78       1.0  0.75280  0.19190  0.10680  1.0000
  H   H79       1.0  0.74720  0.69190  0.39320  1.0000
  H   H80       1.0  0.24720  0.19190  0.39320  1.0000
  C   C161      1.0  0.81796  0.35450  0.89772  1.0000
  C   C162      1.0  0.31796  0.85450  0.89772  1.0000
  C   C163      1.0  0.18204  0.35450  0.60228  1.0000
  C   C164      1.0  0.68204  0.85450  0.60228  1.0000
  C   C165      1.0  0.18204  0.64550  0.10228  1.0000
  C   C166      1.0  0.68204  0.14550  0.10228  1.0000
  C   C167      1.0  0.81796  0.64550  0.39772  1.0000
  C   C168      1.0  0.31796  0.14550  0.39772  1.0000
  H   H81       1.0  0.80310  0.41930  0.86420  1.0000
  H   H82       1.0  0.30310  0.91930  0.86420  1.0000
  H   H83       1.0  0.19690  0.41930  0.63580  1.0000
  H   H84       1.0  0.69690  0.91930  0.63580  1.0000
  H   H85       1.0  0.19690  0.58070  0.13580  1.0000
  H   H86       1.0  0.69690  0.08070  0.13580  1.0000
  H   H87       1.0  0.80310  0.58070  0.36420  1.0000
  H   H88       1.0  0.30310  0.08070  0.36420  1.0000
  C   C169      1.0  0.87260  0.32770  0.92887  1.0000
  C   C170      1.0  0.37260  0.82770  0.92887  1.0000
  C   C171      1.0  0.12740  0.32770  0.57113  1.0000
  C   C172      1.0  0.62740  0.82770  0.57113  1.0000
  C   C173      1.0  0.12740  0.67230  0.07113  1.0000
  C   C174      1.0  0.62740  0.17230  0.07113  1.0000
  C   C175      1.0  0.87260  0.67230  0.42887  1.0000
  C   C176      1.0  0.37260  0.17230  0.42887  1.0000
  H   H89       1.0  0.89410  0.37510  0.91660  1.0000
  H   H90       1.0  0.39410  0.87510  0.91660  1.0000
  H   H91       1.0  0.10590  0.37510  0.58340  1.0000
  H   H92       1.0  0.60590  0.87510  0.58340  1.0000
  H   H93       1.0  0.10590  0.62490  0.08340  1.0000
  H   H94       1.0  0.60590  0.12490  0.08340  1.0000
  H   H95       1.0  0.89410  0.62490  0.41660  1.0000
  H   H96       1.0  0.39410  0.12490  0.41660  1.0000
  C   C177      1.0  0.89719  0.22840  0.97972  1.0000
  C   C178      1.0  0.39719  0.72840  0.97972  1.0000
  C   C179      1.0  0.10281  0.22840  0.52028  1.0000
  C   C180      1.0  0.60281  0.72840  0.52028  1.0000
  C   C181      1.0  0.10281  0.77160  0.02028  1.0000
  C   C182      1.0  0.60281  0.27160  0.02028  1.0000
  C   C183      1.0  0.89719  0.77160  0.47972  1.0000
  C   C184      1.0  0.39719  0.27160  0.47972  1.0000
  O   O1        1.0  0.08125  0.65183  0.25016  1.0000
  O   O2        1.0  0.58125  0.15183  0.25016  1.0000
  O   O3        1.0  0.91875  0.65183  0.24984  1.0000
  O   O4        1.0  0.41875  0.15183  0.24984  1.0000
  O   O5        1.0  0.91875  0.34817  0.74984  1.0000
  O   O6        1.0  0.41875  0.84817  0.74984  1.0000
  O   O7        1.0  0.08125  0.34817  0.75016  1.0000
  O   O8        1.0  0.58125  0.84817  0.75016  1.0000
  O   O9        1.0  0.99540  0.60859  0.16651  1.0000
  O   O10       1.0  0.49540  0.10859  0.16651  1.0000
  O   O11       1.0  0.00460  0.60859  0.33349  1.0000
  O   O12       1.0  0.50460  0.10859  0.33349  1.0000
  O   O13       1.0  0.00460  0.39141  0.83349  1.0000
  O   O14       1.0  0.50460  0.89141  0.83349  1.0000
  O   O15       1.0  0.99540  0.39141  0.66651  1.0000
  O   O16       1.0  0.49540  0.89141  0.66651  1.0000
  O   O17       1.0  0.97130  0.45637  0.06104  1.0000
  O   O18       1.0  0.47130  0.95637  0.06104  1.0000
  O   O19       1.0  0.02870  0.45637  0.43896  1.0000
  O   O20       1.0  0.52870  0.95637  0.43896  1.0000
  O   O21       1.0  0.02870  0.54363  0.93896  1.0000
  O   O22       1.0  0.52870  0.04363  0.93896  1.0000
  O   O23       1.0  0.97130  0.54363  0.56104  1.0000
  O   O24       1.0  0.47130  0.04363  0.56104  1.0000
  H   H97       1.0  0.96660  0.51030  0.08460  1.0000
  H   H98       1.0  0.46660  0.01030  0.08460  1.0000
  H   H99       1.0  0.03340  0.51030  0.41540  1.0000
  H   H100      1.0  0.53340  0.01030  0.41540  1.0000
  H   H101      1.0  0.03340  0.48970  0.91540  1.0000
  H   H102      1.0  0.53340  0.98970  0.91540  1.0000
  H   H103      1.0  0.96660  0.48970  0.58460  1.0000
  H   H104      1.0  0.46660  0.98970  0.58460  1.0000
  O   O25       1.0  0.02523  0.06045  0.08764  1.0000
  O   O26       1.0  0.52523  0.56045  0.08764  1.0000
  O   O27       1.0  0.97477  0.06045  0.41236  1.0000
  O   O28       1.0  0.47477  0.56045  0.41236  1.0000
  O   O29       1.0  0.97477  0.93955  0.91236  1.0000
  O   O30       1.0  0.47477  0.43955  0.91236  1.0000
  O   O31       1.0  0.02523  0.93955  0.58764  1.0000
  O   O32       1.0  0.52523  0.43955  0.58764  1.0000
  H   H105      1.0  0.03250  0.00370  0.11710  1.0000
  H   H106      1.0  0.53250  0.50370  0.11710  1.0000
  H   H107      1.0  0.96750  0.00370  0.38290  1.0000
  H   H108      1.0  0.46750  0.50370  0.38290  1.0000
  H   H109      1.0  0.96750  0.99630  0.88290  1.0000
  H   H110      1.0  0.46750  0.49630  0.88290  1.0000
  H   H111      1.0  0.03250  0.99630  0.61710  1.0000
  H   H112      1.0  0.53250  0.49630  0.61710  1.0000
  O   O33       1.0  0.01136  0.89956  0.16427  1.0000
  O   O34       1.0  0.51136  0.39956  0.16427  1.0000
  O   O35       1.0  0.98864  0.89956  0.33573  1.0000
  O   O36       1.0  0.48864  0.39956  0.33573  1.0000
  O   O37       1.0  0.98864  0.10044  0.83573  1.0000
  O   O38       1.0  0.48864  0.60044  0.83573  1.0000
  O   O39       1.0  0.01136  0.10044  0.66427  1.0000
  O   O40       1.0  0.51136  0.60044  0.66427  1.0000
  O   O41       1.0  0.06802  0.87865  0.34201  1.0000
  O   O42       1.0  0.56802  0.37865  0.34201  1.0000
  O   O43       1.0  0.93198  0.87865  0.15799  1.0000
  O   O44       1.0  0.43198  0.37865  0.15799  1.0000
  O   O45       1.0  0.93198  0.12135  0.65799  1.0000
  O   O46       1.0  0.43198  0.62135  0.65799  1.0000
  O   O47       1.0  0.06802  0.12135  0.84201  1.0000
  O   O48       1.0  0.56802  0.62135  0.84201  1.0000
