data_image0
_chemical_formula_structural       Mg4O24C4H4C4H4C4H4
_chemical_formula_sum              "Mg4 O24 C12 H12"
_cell_length_a       8.9261
_cell_length_b       8.1266
_cell_length_c       11.8572
_cell_angle_alpha    90
_cell_angle_beta     90
_cell_angle_gamma    90

_space_group_name_H-M_alt    "P 1"
_space_group_IT_number       1

loop_
  _space_group_symop_operation_xyz
  'x, y, z'

loop_
  _atom_site_type_symbol
  _atom_site_label
  _atom_site_symmetry_multiplicity
  _atom_site_fract_x
  _atom_site_fract_y
  _atom_site_fract_z
  _atom_site_occupancy
  Mg  Mg1       1.0  0.52629  0.50234  0.49990  1.0000
  Mg  Mg2       1.0  0.47371  0.49766  0.99990  1.0000
  Mg  Mg3       1.0  0.02629  0.99766  0.49990  1.0000
  Mg  Mg4       1.0  0.97371  0.00234  0.99990  1.0000
  O   O1        1.0  0.32404  0.39471  0.55933  1.0000
  O   O2        1.0  0.67596  0.60529  0.05933  1.0000
  O   O3        1.0  0.82404  0.10529  0.55933  1.0000
  O   O4        1.0  0.17596  0.89471  0.05933  1.0000
  O   O5        1.0  0.14668  0.20364  0.55530  1.0000
  O   O6        1.0  0.85332  0.79636  0.05530  1.0000
  O   O7        1.0  0.64668  0.29636  0.55530  1.0000
  O   O8        1.0  0.35332  0.70364  0.05530  1.0000
  O   O9        1.0  0.41099  0.71135  0.44391  1.0000
  O   O10       1.0  0.58901  0.28865  0.94391  1.0000
  O   O11       1.0  0.91099  0.78865  0.44391  1.0000
  O   O12       1.0  0.08901  0.21135  0.94391  1.0000
  O   O13       1.0  0.22805  0.89644  0.43882  1.0000
  O   O14       1.0  0.77195  0.10356  0.93882  1.0000
  O   O15       1.0  0.72805  0.60356  0.43882  1.0000
  O   O16       1.0  0.27195  0.39644  0.93882  1.0000
  O   O17       1.0  0.54459  0.61597  0.65914  1.0000
  O   O18       1.0  0.45541  0.38403  0.15914  1.0000
  O   O19       1.0  0.04459  0.88403  0.65914  1.0000
  O   O20       1.0  0.95541  0.11597  0.15914  1.0000
  O   O21       1.0  0.50798  0.60998  0.84389  1.0000
  O   O22       1.0  0.49202  0.39002  0.34389  1.0000
  O   O23       1.0  0.00798  0.89002  0.84389  1.0000
  O   O24       1.0  0.99202  0.10998  0.34389  1.0000
  C   C1        1.0  0.26725  0.26311  0.52467  1.0000
  C   C2        1.0  0.73275  0.73689  0.02467  1.0000
  C   C3        1.0  0.76725  0.23689  0.52467  1.0000
  C   C4        1.0  0.23275  0.76311  0.02467  1.0000
  H   H1        1.0  0.32100  0.20470  0.47070  1.0000
  H   H2        1.0  0.67900  0.79530  0.97070  1.0000
  H   H3        1.0  0.82100  0.29530  0.47070  1.0000
  H   H4        1.0  0.17900  0.70470  0.97070  1.0000
  C   C5        1.0  0.29543  0.77516  0.47866  1.0000
  C   C6        1.0  0.70457  0.22484  0.97866  1.0000
  C   C7        1.0  0.79543  0.72484  0.47866  1.0000
  C   C8        1.0  0.20457  0.27516  0.97866  1.0000
  H   H5        1.0  0.25290  0.72740  0.54230  1.0000
  H   H6        1.0  0.74710  0.27260  0.04230  1.0000
  H   H7        1.0  0.75290  0.77260  0.54230  1.0000
  H   H8        1.0  0.24710  0.22740  0.04230  1.0000
  C   C9        1.0  0.51366  0.54475  0.74980  1.0000
  C   C10       1.0  0.48634  0.45525  0.24980  1.0000
  C   C11       1.0  0.01366  0.95525  0.74980  1.0000
  C   C12       1.0  0.98634  0.04475  0.24980  1.0000
  H   H9        1.0  0.49310  0.43270  0.74600  1.0000
  H   H10       1.0  0.50690  0.56730  0.24600  1.0000
  H   H11       1.0  0.99310  0.06730  0.74600  1.0000
  H   H12       1.0  0.00690  0.93270  0.24600  1.0000
