data_image0
_chemical_formula_structural       Mg4O24C4H4C4H4C4H4
_chemical_formula_sum              "Mg4 O24 C12 H12"
_cell_length_a       8.8321
_cell_length_b       8.0999
_cell_length_c       11.7421
_cell_angle_alpha    90
_cell_angle_beta     90
_cell_angle_gamma    90

_space_group_name_H-M_alt    "P 1"
_space_group_IT_number       1

loop_
  _space_group_symop_operation_xyz
  'x, y, z'

loop_
  _atom_site_type_symbol
  _atom_site_label
  _atom_site_symmetry_multiplicity
  _atom_site_fract_x
  _atom_site_fract_y
  _atom_site_fract_z
  _atom_site_occupancy
  Mg  Mg1       1.0  0.53200  0.50277  0.49998  1.0000
  Mg  Mg2       1.0  0.46800  0.49723  0.99998  1.0000
  Mg  Mg3       1.0  0.03200  0.99723  0.49998  1.0000
  Mg  Mg4       1.0  0.96800  0.00277  0.99998  1.0000
  O   O1        1.0  0.32592  0.40007  0.55951  1.0000
  O   O2        1.0  0.67408  0.59993  0.05951  1.0000
  O   O3        1.0  0.82592  0.09993  0.55951  1.0000
  O   O4        1.0  0.17408  0.90007  0.05951  1.0000
  O   O5        1.0  0.14960  0.20338  0.55967  1.0000
  O   O6        1.0  0.85040  0.79662  0.05967  1.0000
  O   O7        1.0  0.64960  0.29662  0.55967  1.0000
  O   O8        1.0  0.35040  0.70338  0.05967  1.0000
  O   O9        1.0  0.42038  0.71194  0.43864  1.0000
  O   O10       1.0  0.57962  0.28806  0.93864  1.0000
  O   O11       1.0  0.92038  0.78806  0.43864  1.0000
  O   O12       1.0  0.07962  0.21194  0.93864  1.0000
  O   O13       1.0  0.23608  0.90077  0.43748  1.0000
  O   O14       1.0  0.76392  0.09923  0.93748  1.0000
  O   O15       1.0  0.73608  0.59923  0.43748  1.0000
  O   O16       1.0  0.26392  0.40077  0.93748  1.0000
  O   O17       1.0  0.54811  0.62209  0.65874  1.0000
  O   O18       1.0  0.45189  0.37791  0.15874  1.0000
  O   O19       1.0  0.04811  0.87791  0.65874  1.0000
  O   O20       1.0  0.95189  0.12209  0.15874  1.0000
  O   O21       1.0  0.50273  0.61599  0.84511  1.0000
  O   O22       1.0  0.49727  0.38401  0.34511  1.0000
  O   O23       1.0  0.00273  0.88401  0.84511  1.0000
  O   O24       1.0  0.99727  0.11599  0.34511  1.0000
  C   C1        1.0  0.27079  0.26466  0.52579  1.0000
  C   C2        1.0  0.72921  0.73534  0.02579  1.0000
  C   C3        1.0  0.77079  0.23534  0.52579  1.0000
  C   C4        1.0  0.22921  0.76466  0.02579  1.0000
  H   H1        1.0  0.32630  0.20480  0.47010  1.0000
  H   H2        1.0  0.67370  0.79520  0.97010  1.0000
  H   H3        1.0  0.82630  0.29520  0.47010  1.0000
  H   H4        1.0  0.17370  0.70480  0.97010  1.0000
  C   C5        1.0  0.30490  0.77789  0.47851  1.0000
  C   C6        1.0  0.69510  0.22211  0.97851  1.0000
  C   C7        1.0  0.80490  0.72211  0.47851  1.0000
  C   C8        1.0  0.19510  0.27789  0.97851  1.0000
  H   H5        1.0  0.26460  0.73140  0.54630  1.0000
  H   H6        1.0  0.73540  0.26860  0.04630  1.0000
  H   H7        1.0  0.76460  0.76860  0.54630  1.0000
  H   H8        1.0  0.23540  0.23140  0.04630  1.0000
  C   C9        1.0  0.51076  0.54951  0.74944  1.0000
  C   C10       1.0  0.48924  0.45049  0.24944  1.0000
  C   C11       1.0  0.01076  0.95049  0.74944  1.0000
  C   C12       1.0  0.98924  0.04951  0.24944  1.0000
  H   H9        1.0  0.48690  0.43540  0.74460  1.0000
  H   H10       1.0  0.51310  0.56460  0.24460  1.0000
  H   H11       1.0  0.98690  0.06460  0.74460  1.0000
  H   H12       1.0  0.01310  0.93540  0.24460  1.0000
