data_image0
_chemical_formula_structural       Mg4O24C4H4C4H4C4H4
_chemical_formula_sum              "Mg4 O24 C12 H12"
_cell_length_a       8.9136
_cell_length_b       8.1219
_cell_length_c       11.8367
_cell_angle_alpha    90
_cell_angle_beta     90
_cell_angle_gamma    90

_space_group_name_H-M_alt    "P 1"
_space_group_IT_number       1

loop_
  _space_group_symop_operation_xyz
  'x, y, z'

loop_
  _atom_site_type_symbol
  _atom_site_label
  _atom_site_symmetry_multiplicity
  _atom_site_fract_x
  _atom_site_fract_y
  _atom_site_fract_z
  _atom_site_occupancy
  Mg  Mg1       1.0  0.52758  0.50241  0.49988  1.0000
  Mg  Mg2       1.0  0.47242  0.49759  0.99988  1.0000
  Mg  Mg3       1.0  0.02758  0.99759  0.49988  1.0000
  Mg  Mg4       1.0  0.97242  0.00241  0.99988  1.0000
  O   O1        1.0  0.32471  0.39560  0.55954  1.0000
  O   O2        1.0  0.67529  0.60440  0.05954  1.0000
  O   O3        1.0  0.82471  0.10440  0.55954  1.0000
  O   O4        1.0  0.17529  0.89560  0.05954  1.0000
  O   O5        1.0  0.14741  0.20336  0.55602  1.0000
  O   O6        1.0  0.85259  0.79664  0.05602  1.0000
  O   O7        1.0  0.64741  0.29664  0.55602  1.0000
  O   O8        1.0  0.35259  0.70336  0.05602  1.0000
  O   O9        1.0  0.41280  0.71163  0.44319  1.0000
  O   O10       1.0  0.58720  0.28837  0.94319  1.0000
  O   O11       1.0  0.91280  0.78837  0.44319  1.0000
  O   O12       1.0  0.08720  0.21163  0.94319  1.0000
  O   O13       1.0  0.22946  0.89707  0.43847  1.0000
  O   O14       1.0  0.77054  0.10293  0.93847  1.0000
  O   O15       1.0  0.72946  0.60293  0.43847  1.0000
  O   O16       1.0  0.27054  0.39707  0.93847  1.0000
  O   O17       1.0  0.54556  0.61704  0.65906  1.0000
  O   O18       1.0  0.45444  0.38296  0.15906  1.0000
  O   O19       1.0  0.04556  0.88296  0.65906  1.0000
  O   O20       1.0  0.95444  0.11704  0.15906  1.0000
  O   O21       1.0  0.50707  0.61091  0.84411  1.0000
  O   O22       1.0  0.49293  0.38909  0.34411  1.0000
  O   O23       1.0  0.00707  0.88909  0.84411  1.0000
  O   O24       1.0  0.99293  0.11091  0.34411  1.0000
  C   C1        1.0  0.26828  0.26328  0.52493  1.0000
  C   C2        1.0  0.73172  0.73672  0.02493  1.0000
  C   C3        1.0  0.76828  0.23672  0.52493  1.0000
  C   C4        1.0  0.23172  0.76328  0.02493  1.0000
  H   H1        1.0  0.32230  0.20490  0.47090  1.0000
  H   H2        1.0  0.67770  0.79510  0.97090  1.0000
  H   H3        1.0  0.82230  0.29510  0.47090  1.0000
  H   H4        1.0  0.17770  0.70490  0.97090  1.0000
  C   C5        1.0  0.29707  0.77573  0.47858  1.0000
  C   C6        1.0  0.70293  0.22427  0.97858  1.0000
  C   C7        1.0  0.79707  0.72427  0.47858  1.0000
  C   C8        1.0  0.20293  0.27573  0.97858  1.0000
  H   H5        1.0  0.25490  0.72840  0.54270  1.0000
  H   H6        1.0  0.74510  0.27160  0.04270  1.0000
  H   H7        1.0  0.75490  0.77160  0.54270  1.0000
  H   H8        1.0  0.24510  0.22840  0.04270  1.0000
  C   C9        1.0  0.51334  0.54535  0.74959  1.0000
  C   C10       1.0  0.48666  0.45465  0.24959  1.0000
  C   C11       1.0  0.01334  0.95465  0.74959  1.0000
  C   C12       1.0  0.98666  0.04535  0.24959  1.0000
  H   H9        1.0  0.49230  0.43330  0.74560  1.0000
  H   H10       1.0  0.50770  0.56670  0.24560  1.0000
  H   H11       1.0  0.99230  0.06670  0.74560  1.0000
  H   H12       1.0  0.00770  0.93330  0.24560  1.0000
