data_image0
_chemical_formula_structural       Ag8Mo48P4O160N16C8H8C8H8C8H8C16H8C8H8C16H8C8H8C8H8C16
_chemical_formula_sum              "Ag8 Mo48 P4 O160 N16 C96 H64"
_cell_length_a       10.9134
_cell_length_b       47.545
_cell_length_c       17.1692
_cell_angle_alpha    90
_cell_angle_beta     106.311
_cell_angle_gamma    90

_space_group_name_H-M_alt    "P 1"
_space_group_IT_number       1

loop_
  _space_group_symop_operation_xyz
  'x, y, z'

loop_
  _atom_site_type_symbol
  _atom_site_label
  _atom_site_symmetry_multiplicity
  _atom_site_fract_x
  _atom_site_fract_y
  _atom_site_fract_z
  _atom_site_occupancy
  Ag  Ag1       1.0  0.00000  0.02852  0.75000  1.0000
  Ag  Ag2       1.0  0.50000  0.52852  0.75000  1.0000
  Ag  Ag3       1.0  0.00000  0.97148  0.25000  1.0000
  Ag  Ag4       1.0  0.50000  0.47148  0.25000  1.0000
  Ag  Ag5       1.0  0.50000  0.19917  0.75000  1.0000
  Ag  Ag6       1.0  0.00000  0.69917  0.75000  1.0000
  Ag  Ag7       1.0  0.50000  0.80083  0.25000  1.0000
  Ag  Ag8       1.0  0.00000  0.30083  0.25000  1.0000
  Mo  Mo1       1.0  0.01495  0.13232  0.95858  1.0000
  Mo  Mo2       1.0  0.51495  0.63232  0.95858  1.0000
  Mo  Mo3       1.0  0.98505  0.13232  0.54142  1.0000
  Mo  Mo4       1.0  0.48505  0.63232  0.54142  1.0000
  Mo  Mo5       1.0  0.98505  0.86768  0.04142  1.0000
  Mo  Mo6       1.0  0.48505  0.36768  0.04142  1.0000
  Mo  Mo7       1.0  0.01495  0.86768  0.45858  1.0000
  Mo  Mo8       1.0  0.51495  0.36768  0.45858  1.0000
  Mo  Mo9       1.0  0.15789  0.08008  0.88348  1.0000
  Mo  Mo10      1.0  0.65789  0.58008  0.88348  1.0000
  Mo  Mo11      1.0  0.84211  0.08008  0.61652  1.0000
  Mo  Mo12      1.0  0.34211  0.58008  0.61652  1.0000
  Mo  Mo13      1.0  0.84211  0.91992  0.11652  1.0000
  Mo  Mo14      1.0  0.34211  0.41992  0.11652  1.0000
  Mo  Mo15      1.0  0.15789  0.91992  0.38348  1.0000
  Mo  Mo16      1.0  0.65789  0.41992  0.38348  1.0000
  Mo  Mo17      1.0  0.34109  0.13720  0.82113  1.0000
  Mo  Mo18      1.0  0.84109  0.63720  0.82113  1.0000
  Mo  Mo19      1.0  0.65891  0.13720  0.67887  1.0000
  Mo  Mo20      1.0  0.15891  0.63720  0.67887  1.0000
  Mo  Mo21      1.0  0.65891  0.86280  0.17887  1.0000
  Mo  Mo22      1.0  0.15891  0.36280  0.17887  1.0000
  Mo  Mo23      1.0  0.34109  0.86280  0.32113  1.0000
  Mo  Mo24      1.0  0.84109  0.36280  0.32113  1.0000
  Mo  Mo25      1.0  0.16885  0.08398  0.66923  1.0000
  Mo  Mo26      1.0  0.66885  0.58398  0.66923  1.0000
  Mo  Mo27      1.0  0.83115  0.08398  0.83077  1.0000
  Mo  Mo28      1.0  0.33115  0.58398  0.83077  1.0000
  Mo  Mo29      1.0  0.83115  0.91602  0.33077  1.0000
  Mo  Mo30      1.0  0.33115  0.41602  0.33077  1.0000
  Mo  Mo31      1.0  0.16885  0.91602  0.16923  1.0000
  Mo  Mo32      1.0  0.66885  0.41602  0.16923  1.0000
  Mo  Mo33      1.0  0.18023  0.18485  0.67858  1.0000
  Mo  Mo34      1.0  0.68023  0.68485  0.67858  1.0000
  Mo  Mo35      1.0  0.81977  0.18485  0.82142  1.0000
  Mo  Mo36      1.0  0.31977  0.68485  0.82142  1.0000
  Mo  Mo37      1.0  0.81977  0.81515  0.32142  1.0000
  Mo  Mo38      1.0  0.31977  0.31515  0.32142  1.0000
  Mo  Mo39      1.0  0.18023  0.81515  0.17858  1.0000
  Mo  Mo40      1.0  0.68023  0.31515  0.17858  1.0000
  Mo  Mo41      1.0  0.16839  0.18969  0.87303  1.0000
  Mo  Mo42      1.0  0.66839  0.68969  0.87303  1.0000
  Mo  Mo43      1.0  0.83161  0.18969  0.62697  1.0000
  Mo  Mo44      1.0  0.33161  0.68969  0.62697  1.0000
  Mo  Mo45      1.0  0.83161  0.81031  0.12697  1.0000
  Mo  Mo46      1.0  0.33161  0.31031  0.12697  1.0000
  Mo  Mo47      1.0  0.16839  0.81031  0.37303  1.0000
  Mo  Mo48      1.0  0.66839  0.31031  0.37303  1.0000
  P   P1        1.0  0.00000  0.13443  0.75000  1.0000
  P   P2        1.0  0.50000  0.63443  0.75000  1.0000
  P   P3        1.0  0.00000  0.86557  0.25000  1.0000
  P   P4        1.0  0.50000  0.36557  0.25000  1.0000
  O   O1        1.0  0.27940  0.11111  0.72640  1.0000
  O   O2        1.0  0.77940  0.61111  0.72640  1.0000
  O   O3        1.0  0.72060  0.11111  0.77360  1.0000
  O   O4        1.0  0.22060  0.61111  0.77360  1.0000
  O   O5        1.0  0.72060  0.88889  0.27360  1.0000
  O   O6        1.0  0.22060  0.38889  0.27360  1.0000
  O   O7        1.0  0.27940  0.88889  0.22640  1.0000
  O   O8        1.0  0.77940  0.38889  0.22640  1.0000
  O   O9        1.0  0.49720  0.13050  0.85080  1.0000
  O   O10       1.0  0.99720  0.63050  0.85080  1.0000
  O   O11       1.0  0.50280  0.13050  0.64920  1.0000
  O   O12       1.0  0.00280  0.63050  0.64920  1.0000
  O   O13       1.0  0.50280  0.86950  0.14920  1.0000
  O   O14       1.0  0.00280  0.36950  0.14920  1.0000
  O   O15       1.0  0.49720  0.86950  0.35080  1.0000
  O   O16       1.0  0.99720  0.36950  0.35080  1.0000
  O   O17       1.0  0.12040  0.15296  0.77120  1.0000
  O   O18       1.0  0.62040  0.65296  0.77120  1.0000
  O   O19       1.0  0.87960  0.15296  0.72880  1.0000
  O   O20       1.0  0.37960  0.65296  0.72880  1.0000
  O   O21       1.0  0.87960  0.84704  0.22880  1.0000
  O   O22       1.0  0.37960  0.34704  0.22880  1.0000
  O   O23       1.0  0.12040  0.84704  0.27120  1.0000
  O   O24       1.0  0.62040  0.34704  0.27120  1.0000
  O   O25       1.0  0.26630  0.05905  0.65110  1.0000
  O   O26       1.0  0.76630  0.55905  0.65110  1.0000
  O   O27       1.0  0.73370  0.05905  0.84890  1.0000
  O   O28       1.0  0.23370  0.55905  0.84890  1.0000
  O   O29       1.0  0.73370  0.94095  0.34890  1.0000
  O   O30       1.0  0.23370  0.44095  0.34890  1.0000
  O   O31       1.0  0.26630  0.94095  0.15110  1.0000
  O   O32       1.0  0.76630  0.44095  0.15110  1.0000
  O   O33       1.0  0.25600  0.05529  0.93650  1.0000
  O   O34       1.0  0.75600  0.55529  0.93650  1.0000
  O   O35       1.0  0.74400  0.05529  0.56350  1.0000
  O   O36       1.0  0.24400  0.55529  0.56350  1.0000
  O   O37       1.0  0.74400  0.94471  0.06350  1.0000
  O   O38       1.0  0.24400  0.44471  0.06350  1.0000
  O   O39       1.0  0.25600  0.94471  0.43650  1.0000
  O   O40       1.0  0.75600  0.44471  0.43650  1.0000
  O   O41       1.0  0.23730  0.20882  0.62700  1.0000
  O   O42       1.0  0.73730  0.70882  0.62700  1.0000
  O   O43       1.0  0.76270  0.20882  0.87300  1.0000
  O   O44       1.0  0.26270  0.70882  0.87300  1.0000
  O   O45       1.0  0.76270  0.79118  0.37300  1.0000
  O   O46       1.0  0.26270  0.29118  0.37300  1.0000
  O   O47       1.0  0.23730  0.79118  0.12700  1.0000
  O   O48       1.0  0.73730  0.29118  0.12700  1.0000
  O   O49       1.0  0.00490  0.19700  0.65750  1.0000
  O   O50       1.0  0.50490  0.69700  0.65750  1.0000
  O   O51       1.0  0.99510  0.19700  0.84250  1.0000
  O   O52       1.0  0.49510  0.69700  0.84250  1.0000
  O   O53       1.0  0.99510  0.80300  0.34250  1.0000
  O   O54       1.0  0.49510  0.30300  0.34250  1.0000
  O   O55       1.0  0.00490  0.80300  0.15750  1.0000
  O   O56       1.0  0.50490  0.30300  0.15750  1.0000
  O   O57       1.0  0.22570  0.21457  0.94290  1.0000
  O   O58       1.0  0.72570  0.71457  0.94290  1.0000
  O   O59       1.0  0.77430  0.21457  0.55710  1.0000
  O   O60       1.0  0.27430  0.71457  0.55710  1.0000
  O   O61       1.0  0.77430  0.78543  0.05710  1.0000
  O   O62       1.0  0.27430  0.28543  0.05710  1.0000
  O   O63       1.0  0.22570  0.78543  0.44290  1.0000
  O   O64       1.0  0.72570  0.28543  0.44290  1.0000
  O   O65       1.0  0.00000  0.11575  0.82300  1.0000
  O   O66       1.0  0.50000  0.61575  0.82300  1.0000
  O   O67       1.0  0.00000  0.11575  0.67700  1.0000
  O   O68       1.0  0.50000  0.61575  0.67700  1.0000
  O   O69       1.0  0.00000  0.88425  0.17700  1.0000
  O   O70       1.0  0.50000  0.38425  0.17700  1.0000
  O   O71       1.0  0.00000  0.88425  0.32300  1.0000
  O   O72       1.0  0.50000  0.38425  0.32300  1.0000
  O   O73       1.0  0.99540  0.06375  0.87110  1.0000
  O   O74       1.0  0.49540  0.56375  0.87110  1.0000
  O   O75       1.0  0.00460  0.06375  0.62890  1.0000
  O   O76       1.0  0.50460  0.56375  0.62890  1.0000
  O   O77       1.0  0.00460  0.93625  0.12890  1.0000
  O   O78       1.0  0.50460  0.43625  0.12890  1.0000
  O   O79       1.0  0.99540  0.93625  0.37110  1.0000
  O   O80       1.0  0.49540  0.43625  0.37110  1.0000
  O   O81       1.0  0.12460  0.15921  0.94010  1.0000
  O   O82       1.0  0.62460  0.65921  0.94010  1.0000
  O   O83       1.0  0.87540  0.15921  0.55990  1.0000
  O   O84       1.0  0.37540  0.65921  0.55990  1.0000
  O   O85       1.0  0.87540  0.84079  0.05990  1.0000
  O   O86       1.0  0.37540  0.34079  0.05990  1.0000
  O   O87       1.0  0.12460  0.84079  0.44010  1.0000
  O   O88       1.0  0.62460  0.34079  0.44010  1.0000
  O   O89       1.0  0.01200  0.13841  0.05390  1.0000
  O   O90       1.0  0.51200  0.63841  0.05390  1.0000
  O   O91       1.0  0.98800  0.13841  0.44610  1.0000
  O   O92       1.0  0.48800  0.63841  0.44610  1.0000
  O   O93       1.0  0.98800  0.86159  0.94610  1.0000
  O   O94       1.0  0.48800  0.36159  0.94610  1.0000
  O   O95       1.0  0.01200  0.86159  0.55390  1.0000
  O   O96       1.0  0.51200  0.36159  0.55390  1.0000
  O   O97       1.0  0.87670  0.15745  0.89670  1.0000
  O   O98       1.0  0.37670  0.65745  0.89670  1.0000
  O   O99       1.0  0.12330  0.15745  0.60330  1.0000
  O   O100      1.0  0.62330  0.65745  0.60330  1.0000
  O   O101      1.0  0.12330  0.84255  0.10330  1.0000
  O   O102      1.0  0.62330  0.34255  0.10330  1.0000
  O   O103      1.0  0.87670  0.84255  0.39670  1.0000
  O   O104      1.0  0.37670  0.34255  0.39670  1.0000
  O   O105      1.0  0.27670  0.10969  0.87610  1.0000
  O   O106      1.0  0.77670  0.60969  0.87610  1.0000
  O   O107      1.0  0.72330  0.10969  0.62390  1.0000
  O   O108      1.0  0.22330  0.60969  0.62390  1.0000
  O   O109      1.0  0.72330  0.89031  0.12390  1.0000
  O   O110      1.0  0.22330  0.39031  0.12390  1.0000
  O   O111      1.0  0.27670  0.89031  0.37610  1.0000
  O   O112      1.0  0.77670  0.39031  0.37610  1.0000
  O   O113      1.0  0.32490  0.16651  0.88710  1.0000
  O   O114      1.0  0.82490  0.66651  0.88710  1.0000
  O   O115      1.0  0.67510  0.16651  0.61290  1.0000
  O   O116      1.0  0.17510  0.66651  0.61290  1.0000
  O   O117      1.0  0.67510  0.83349  0.11290  1.0000
  O   O118      1.0  0.17510  0.33349  0.11290  1.0000
  O   O119      1.0  0.32490  0.83349  0.38710  1.0000
  O   O120      1.0  0.82490  0.33349  0.38710  1.0000
  O   O121      1.0  0.20230  0.20507  0.78240  1.0000
  O   O122      1.0  0.70230  0.70507  0.78240  1.0000
  O   O123      1.0  0.79770  0.20507  0.71760  1.0000
  O   O124      1.0  0.29770  0.70507  0.71760  1.0000
  O   O125      1.0  0.79770  0.79493  0.21760  1.0000
  O   O126      1.0  0.29770  0.29493  0.21760  1.0000
  O   O127      1.0  0.20230  0.79493  0.28240  1.0000
  O   O128      1.0  0.70230  0.29493  0.28240  1.0000
  O   O129      1.0  0.12970  0.10235  0.97230  1.0000
  O   O130      1.0  0.62970  0.60235  0.97230  1.0000
  O   O131      1.0  0.87030  0.10235  0.52770  1.0000
  O   O132      1.0  0.37030  0.60235  0.52770  1.0000
  O   O133      1.0  0.87030  0.89765  0.02770  1.0000
  O   O134      1.0  0.37030  0.39765  0.02770  1.0000
  O   O135      1.0  0.12970  0.89765  0.47230  1.0000
  O   O136      1.0  0.62970  0.39765  0.47230  1.0000
  O   O137      1.0  0.33270  0.16509  0.73420  1.0000
  O   O138      1.0  0.83270  0.66509  0.73420  1.0000
  O   O139      1.0  0.66730  0.16509  0.76580  1.0000
  O   O140      1.0  0.16730  0.66509  0.76580  1.0000
  O   O141      1.0  0.66730  0.83491  0.26580  1.0000
  O   O142      1.0  0.16730  0.33491  0.26580  1.0000
  O   O143      1.0  0.33270  0.83491  0.23420  1.0000
  O   O144      1.0  0.83270  0.33491  0.23420  1.0000
  O   O145      1.0  0.12360  0.10383  0.57250  1.0000
  O   O146      1.0  0.62360  0.60383  0.57250  1.0000
  O   O147      1.0  0.87640  0.10383  0.92750  1.0000
  O   O148      1.0  0.37640  0.60383  0.92750  1.0000
  O   O149      1.0  0.87640  0.89617  0.42750  1.0000
  O   O150      1.0  0.37640  0.39617  0.42750  1.0000
  O   O151      1.0  0.12360  0.89617  0.07250  1.0000
  O   O152      1.0  0.62360  0.39617  0.07250  1.0000
  O   O153      1.0  0.15370  0.07155  0.77540  1.0000
  O   O154      1.0  0.65370  0.57155  0.77540  1.0000
  O   O155      1.0  0.84630  0.07155  0.72460  1.0000
  O   O156      1.0  0.34630  0.57155  0.72460  1.0000
  O   O157      1.0  0.84630  0.92845  0.22460  1.0000
  O   O158      1.0  0.34630  0.42845  0.22460  1.0000
  O   O159      1.0  0.15370  0.92845  0.27540  1.0000
  O   O160      1.0  0.65370  0.42845  0.27540  1.0000
  N   N1        1.0  0.96990  0.98930  0.66630  1.0000
  N   N2        1.0  0.46990  0.48930  0.66630  1.0000
  N   N3        1.0  0.03010  0.98930  0.83370  1.0000
  N   N4        1.0  0.53010  0.48930  0.83370  1.0000
  N   N5        1.0  0.03010  0.01070  0.33370  1.0000
  N   N6        1.0  0.53010  0.51070  0.33370  1.0000
  N   N7        1.0  0.96990  0.01070  0.16630  1.0000
  N   N8        1.0  0.46990  0.51070  0.16630  1.0000
  N   N9        1.0  0.51370  0.23840  0.67190  1.0000
  N   N10       1.0  0.01370  0.73840  0.67190  1.0000
  N   N11       1.0  0.48630  0.23840  0.82810  1.0000
  N   N12       1.0  0.98630  0.73840  0.82810  1.0000
  N   N13       1.0  0.48630  0.76160  0.32810  1.0000
  N   N14       1.0  0.98630  0.26160  0.32810  1.0000
  N   N15       1.0  0.51370  0.76160  0.17190  1.0000
  N   N16       1.0  0.01370  0.26160  0.17190  1.0000
  C   C1        1.0  0.93950  0.98940  0.58630  1.0000
  C   C2        1.0  0.43950  0.48940  0.58630  1.0000
  C   C3        1.0  0.06050  0.98940  0.91370  1.0000
  C   C4        1.0  0.56050  0.48940  0.91370  1.0000
  C   C5        1.0  0.06050  0.01060  0.41370  1.0000
  C   C6        1.0  0.56050  0.51060  0.41370  1.0000
  C   C7        1.0  0.93950  0.01060  0.08630  1.0000
  C   C8        1.0  0.43950  0.51060  0.08630  1.0000
  H   H1        1.0  0.92870  0.00660  0.55930  1.0000
  H   H2        1.0  0.42870  0.50660  0.55930  1.0000
  H   H3        1.0  0.07130  0.00660  0.94070  1.0000
  H   H4        1.0  0.57130  0.50660  0.94070  1.0000
  H   H5        1.0  0.07130  0.99340  0.44070  1.0000
  H   H6        1.0  0.57130  0.49340  0.44070  1.0000
  H   H7        1.0  0.92870  0.99340  0.05930  1.0000
  H   H8        1.0  0.42870  0.49340  0.05930  1.0000
  C   C9        1.0  0.92290  0.96450  0.54040  1.0000
  C   C10       1.0  0.42290  0.46450  0.54040  1.0000
  C   C11       1.0  0.07710  0.96450  0.95960  1.0000
  C   C12       1.0  0.57710  0.46450  0.95960  1.0000
  C   C13       1.0  0.07710  0.03550  0.45960  1.0000
  C   C14       1.0  0.57710  0.53550  0.45960  1.0000
  C   C15       1.0  0.92290  0.03550  0.04040  1.0000
  C   C16       1.0  0.42290  0.53550  0.04040  1.0000
  H   H9        1.0  0.90090  0.96520  0.48410  1.0000
  H   H10       1.0  0.40090  0.46520  0.48410  1.0000
  H   H11       1.0  0.09910  0.96520  0.01590  1.0000
  H   H12       1.0  0.59910  0.46520  0.01590  1.0000
  H   H13       1.0  0.09910  0.03480  0.51590  1.0000
  H   H14       1.0  0.59910  0.53480  0.51590  1.0000
  H   H15       1.0  0.90090  0.03480  0.98410  1.0000
  H   H16       1.0  0.40090  0.53480  0.98410  1.0000
  C   C17       1.0  0.93930  0.93990  0.57910  1.0000
  C   C18       1.0  0.43930  0.43990  0.57910  1.0000
  C   C19       1.0  0.06070  0.93990  0.92090  1.0000
  C   C20       1.0  0.56070  0.43990  0.92090  1.0000
  C   C21       1.0  0.06070  0.06010  0.42090  1.0000
  C   C22       1.0  0.56070  0.56010  0.42090  1.0000
  C   C23       1.0  0.93930  0.06010  0.07910  1.0000
  C   C24       1.0  0.43930  0.56010  0.07910  1.0000
  H   H17       1.0  0.93030  0.92340  0.54920  1.0000
  H   H18       1.0  0.43030  0.42340  0.54920  1.0000
  H   H19       1.0  0.06970  0.92340  0.95080  1.0000
  H   H20       1.0  0.56970  0.42340  0.95080  1.0000
  H   H21       1.0  0.06970  0.07660  0.45080  1.0000
  H   H22       1.0  0.56970  0.57660  0.45080  1.0000
  H   H23       1.0  0.93030  0.07660  0.04920  1.0000
  H   H24       1.0  0.43030  0.57660  0.04920  1.0000
  C   C25       1.0  0.96960  0.93840  0.66400  1.0000
  C   C26       1.0  0.46960  0.43840  0.66400  1.0000
  C   C27       1.0  0.03040  0.93840  0.83600  1.0000
  C   C28       1.0  0.53040  0.43840  0.83600  1.0000
  C   C29       1.0  0.03040  0.06160  0.33600  1.0000
  C   C30       1.0  0.53040  0.56160  0.33600  1.0000
  C   C31       1.0  0.96960  0.06160  0.16400  1.0000
  C   C32       1.0  0.46960  0.56160  0.16400  1.0000
  C   C33       1.0  0.98560  0.91310  0.70920  1.0000
  C   C34       1.0  0.48560  0.41310  0.70920  1.0000
  C   C35       1.0  0.01440  0.91310  0.79080  1.0000
  C   C36       1.0  0.51440  0.41310  0.79080  1.0000
  C   C37       1.0  0.01440  0.08690  0.29080  1.0000
  C   C38       1.0  0.51440  0.58690  0.29080  1.0000
  C   C39       1.0  0.98560  0.08690  0.20920  1.0000
  C   C40       1.0  0.48560  0.58690  0.20920  1.0000
  H   H25       1.0  0.97610  0.89600  0.68170  1.0000
  H   H26       1.0  0.47610  0.39600  0.68170  1.0000
  H   H27       1.0  0.02390  0.89600  0.81830  1.0000
  H   H28       1.0  0.52390  0.39600  0.81830  1.0000
  H   H29       1.0  0.02390  0.10400  0.31830  1.0000
  H   H30       1.0  0.52390  0.60400  0.31830  1.0000
  H   H31       1.0  0.97610  0.10400  0.18170  1.0000
  H   H32       1.0  0.47610  0.60400  0.18170  1.0000
  C   C41       1.0  0.50820  0.31500  0.71330  1.0000
  C   C42       1.0  0.00820  0.81500  0.71330  1.0000
  C   C43       1.0  0.49180  0.31500  0.78670  1.0000
  C   C44       1.0  0.99180  0.81500  0.78670  1.0000
  C   C45       1.0  0.49180  0.68500  0.28670  1.0000
  C   C46       1.0  0.99180  0.18500  0.28670  1.0000
  C   C47       1.0  0.50820  0.68500  0.21330  1.0000
  C   C48       1.0  0.00820  0.18500  0.21330  1.0000
  H   H33       1.0  0.51400  0.33210  0.68810  1.0000
  H   H34       1.0  0.01400  0.83210  0.68810  1.0000
  H   H35       1.0  0.48600  0.33210  0.81190  1.0000
  H   H36       1.0  0.98600  0.83210  0.81190  1.0000
  H   H37       1.0  0.48600  0.66790  0.31190  1.0000
  H   H38       1.0  0.98600  0.16790  0.31190  1.0000
  H   H39       1.0  0.51400  0.66790  0.18810  1.0000
  H   H40       1.0  0.01400  0.16790  0.18810  1.0000
  C   C49       1.0  0.51740  0.28900  0.67130  1.0000
  C   C50       1.0  0.01740  0.78900  0.67130  1.0000
  C   C51       1.0  0.48260  0.28900  0.82870  1.0000
  C   C52       1.0  0.98260  0.78900  0.82870  1.0000
  C   C53       1.0  0.48260  0.71100  0.32870  1.0000
  C   C54       1.0  0.98260  0.21100  0.32870  1.0000
  C   C55       1.0  0.51740  0.71100  0.17130  1.0000
  C   C56       1.0  0.01740  0.21100  0.17130  1.0000
  C   C57       1.0  0.52870  0.28840  0.59270  1.0000
  C   C58       1.0  0.02870  0.78840  0.59270  1.0000
  C   C59       1.0  0.47130  0.28840  0.90730  1.0000
  C   C60       1.0  0.97130  0.78840  0.90730  1.0000
  C   C61       1.0  0.47130  0.71160  0.40730  1.0000
  C   C62       1.0  0.97130  0.21160  0.40730  1.0000
  C   C63       1.0  0.52870  0.71160  0.09270  1.0000
  C   C64       1.0  0.02870  0.21160  0.09270  1.0000
  H   H41       1.0  0.53190  0.30510  0.56510  1.0000
  H   H42       1.0  0.03190  0.80510  0.56510  1.0000
  H   H43       1.0  0.46810  0.30510  0.93490  1.0000
  H   H44       1.0  0.96810  0.80510  0.93490  1.0000
  H   H45       1.0  0.46810  0.69490  0.43490  1.0000
  H   H46       1.0  0.96810  0.19490  0.43490  1.0000
  H   H47       1.0  0.53190  0.69490  0.06510  1.0000
  H   H48       1.0  0.03190  0.19490  0.06510  1.0000
  C   C65       1.0  0.53500  0.26310  0.55670  1.0000
  C   C66       1.0  0.03500  0.76310  0.55670  1.0000
  C   C67       1.0  0.46500  0.26310  0.94330  1.0000
  C   C68       1.0  0.96500  0.76310  0.94330  1.0000
  C   C69       1.0  0.46500  0.73690  0.44330  1.0000
  C   C70       1.0  0.96500  0.23690  0.44330  1.0000
  C   C71       1.0  0.53500  0.73690  0.05670  1.0000
  C   C72       1.0  0.03500  0.23690  0.05670  1.0000
  H   H49       1.0  0.54480  0.26240  0.50460  1.0000
  H   H50       1.0  0.04480  0.76240  0.50460  1.0000
  H   H51       1.0  0.45520  0.26240  0.99540  1.0000
  H   H52       1.0  0.95520  0.76240  0.99540  1.0000
  H   H53       1.0  0.45520  0.73760  0.49540  1.0000
  H   H54       1.0  0.95520  0.23760  0.49540  1.0000
  H   H55       1.0  0.54480  0.73760  0.00460  1.0000
  H   H56       1.0  0.04480  0.23760  0.00460  1.0000
  C   C73       1.0  0.52690  0.23860  0.59710  1.0000
  C   C74       1.0  0.02690  0.73860  0.59710  1.0000
  C   C75       1.0  0.47310  0.23860  0.90290  1.0000
  C   C76       1.0  0.97310  0.73860  0.90290  1.0000
  C   C77       1.0  0.47310  0.76140  0.40290  1.0000
  C   C78       1.0  0.97310  0.26140  0.40290  1.0000
  C   C79       1.0  0.52690  0.76140  0.09710  1.0000
  C   C80       1.0  0.02690  0.26140  0.09710  1.0000
  H   H57       1.0  0.53080  0.22150  0.57150  1.0000
  H   H58       1.0  0.03080  0.72150  0.57150  1.0000
  H   H59       1.0  0.46920  0.22150  0.92850  1.0000
  H   H60       1.0  0.96920  0.72150  0.92850  1.0000
  H   H61       1.0  0.46920  0.77850  0.42850  1.0000
  H   H62       1.0  0.96920  0.27850  0.42850  1.0000
  H   H63       1.0  0.53080  0.77850  0.07150  1.0000
  H   H64       1.0  0.03080  0.27850  0.07150  1.0000
  C   C81       1.0  0.50720  0.26330  0.70840  1.0000
  C   C82       1.0  0.00720  0.76330  0.70840  1.0000
  C   C83       1.0  0.49280  0.26330  0.79160  1.0000
  C   C84       1.0  0.99280  0.76330  0.79160  1.0000
  C   C85       1.0  0.49280  0.73670  0.29160  1.0000
  C   C86       1.0  0.99280  0.23670  0.29160  1.0000
  C   C87       1.0  0.50720  0.73670  0.20840  1.0000
  C   C88       1.0  0.00720  0.23670  0.20840  1.0000
  C   C89       1.0  0.98480  0.96460  0.70690  1.0000
  C   C90       1.0  0.48480  0.46460  0.70690  1.0000
  C   C91       1.0  0.01520  0.96460  0.79310  1.0000
  C   C92       1.0  0.51520  0.46460  0.79310  1.0000
  C   C93       1.0  0.01520  0.03540  0.29310  1.0000
  C   C94       1.0  0.51520  0.53540  0.29310  1.0000
  C   C95       1.0  0.98480  0.03540  0.20690  1.0000
  C   C96       1.0  0.48480  0.53540  0.20690  1.0000
