data_image0
_chemical_formula_structural       O16C8H4C4H4C8H4C4H4C8Zn6Cl4O8C8H4C4H4C4
_chemical_formula_sum              "O24 C48 H24 Zn6 Cl4"
_cell_length_a       12.7455
_cell_length_b       9.5044
_cell_length_c       18.1128
_cell_angle_alpha    90
_cell_angle_beta     108.132
_cell_angle_gamma    90

_space_group_name_H-M_alt    "P 1"
_space_group_IT_number       1

loop_
  _space_group_symop_operation_xyz
  'x, y, z'

loop_
  _atom_site_type_symbol
  _atom_site_label
  _atom_site_symmetry_multiplicity
  _atom_site_fract_x
  _atom_site_fract_y
  _atom_site_fract_z
  _atom_site_occupancy
  O   O1        1.0  0.88870  0.07110  0.16060  1.0000
  O   O2        1.0  0.61130  0.57110  0.33940  1.0000
  O   O3        1.0  0.11130  0.92890  0.83940  1.0000
  O   O4        1.0  0.38870  0.42890  0.66060  1.0000
  O   O5        1.0  0.02660  0.08360  0.10940  1.0000
  O   O6        1.0  0.47340  0.58360  0.39060  1.0000
  O   O7        1.0  0.97340  0.91640  0.89060  1.0000
  O   O8        1.0  0.52660  0.41640  0.60940  1.0000
  O   O9        1.0  0.22440  0.41700  0.48560  1.0000
  O   O10       1.0  0.27560  0.91700  0.01440  1.0000
  O   O11       1.0  0.77560  0.58300  0.51440  1.0000
  O   O12       1.0  0.72440  0.08300  0.98560  1.0000
  O   O13       1.0  0.37030  0.37320  0.44740  1.0000
  O   O14       1.0  0.12970  0.87320  0.05260  1.0000
  O   O15       1.0  0.62970  0.62680  0.55260  1.0000
  O   O16       1.0  0.87030  0.12680  0.94740  1.0000
  C   C1        1.0  0.06030  0.16630  0.23570  1.0000
  C   C2        1.0  0.43970  0.66630  0.26430  1.0000
  C   C3        1.0  0.93970  0.83370  0.76430  1.0000
  C   C4        1.0  0.56030  0.33370  0.73570  1.0000
  C   C5        1.0  0.01820  0.21420  0.29260  1.0000
  C   C6        1.0  0.48180  0.71420  0.20740  1.0000
  C   C7        1.0  0.98180  0.78580  0.70740  1.0000
  C   C8        1.0  0.51820  0.28580  0.79260  1.0000
  H   H1        1.0  0.94330  0.20420  0.28630  1.0000
  H   H2        1.0  0.55670  0.70420  0.21370  1.0000
  H   H3        1.0  0.05670  0.79580  0.71370  1.0000
  H   H4        1.0  0.44330  0.29580  0.78630  1.0000
  C   C9        1.0  0.08620  0.27640  0.35830  1.0000
  C   C10       1.0  0.41380  0.77640  0.14170  1.0000
  C   C11       1.0  0.91380  0.72360  0.64170  1.0000
  C   C12       1.0  0.58620  0.22360  0.85830  1.0000
  H   H5        1.0  0.05670  0.30910  0.39610  1.0000
  H   H6        1.0  0.44330  0.80910  0.10390  1.0000
  H   H7        1.0  0.94330  0.69090  0.60390  1.0000
  H   H8        1.0  0.55670  0.19090  0.89610  1.0000
  C   C13       1.0  0.19800  0.29140  0.36950  1.0000
  C   C14       1.0  0.30200  0.79140  0.13050  1.0000
  C   C15       1.0  0.80200  0.70860  0.63050  1.0000
  C   C16       1.0  0.69800  0.20860  0.86950  1.0000
  C   C17       1.0  0.24010  0.24130  0.31300  1.0000
  C   C18       1.0  0.25990  0.74130  0.18700  1.0000
  C   C19       1.0  0.75990  0.75870  0.68700  1.0000
  C   C20       1.0  0.74010  0.25870  0.81300  1.0000
  H   H9        1.0  0.31510  0.25010  0.31970  1.0000
  H   H10       1.0  0.18490  0.75010  0.18030  1.0000
  H   H11       1.0  0.68490  0.74990  0.68030  1.0000
  H   H12       1.0  0.81510  0.24990  0.81970  1.0000
  C   C21       1.0  0.17190  0.17830  0.24670  1.0000
  C   C22       1.0  0.32810  0.67830  0.25330  1.0000
  C   C23       1.0  0.82810  0.82170  0.75330  1.0000
  C   C24       1.0  0.67190  0.32170  0.74670  1.0000
  H   H13       1.0  0.20140  0.14380  0.20940  1.0000
  H   H14       1.0  0.29860  0.64380  0.29060  1.0000
  H   H15       1.0  0.79860  0.85620  0.79060  1.0000
  H   H16       1.0  0.70140  0.35620  0.70940  1.0000
  C   C25       1.0  0.98760  0.10090  0.16270  1.0000
  C   C26       1.0  0.51240  0.60090  0.33730  1.0000
  C   C27       1.0  0.01240  0.89910  0.83730  1.0000
  C   C28       1.0  0.48760  0.39910  0.66270  1.0000
  C   C29       1.0  0.27020  0.36620  0.43970  1.0000
  C   C30       1.0  0.22980  0.86620  0.06030  1.0000
  C   C31       1.0  0.72980  0.63380  0.56030  1.0000
  C   C32       1.0  0.77020  0.13380  0.93970  1.0000
  Zn  Zn1       1.0  0.79670  0.95994  0.07316  1.0000
  Zn  Zn2       1.0  0.70330  0.45994  0.42684  1.0000
  Zn  Zn3       1.0  0.20330  0.04006  0.92684  1.0000
  Zn  Zn4       1.0  0.29670  0.54006  0.57316  1.0000
  Zn  Zn5       1.0  0.00000  0.00000  0.00000  1.0000
  Zn  Zn6       1.0  0.50000  0.50000  0.50000  1.0000
  Cl  Cl1       1.0  0.66212  0.84830  0.10145  1.0000
  Cl  Cl2       1.0  0.83788  0.34830  0.39855  1.0000
  Cl  Cl3       1.0  0.33788  0.15170  0.89855  1.0000
  Cl  Cl4       1.0  0.16212  0.65170  0.60145  1.0000
  O   O17       1.0  0.89060  0.84510  0.02830  1.0000
  O   O18       1.0  0.60940  0.34510  0.47170  1.0000
  O   O19       1.0  0.10940  0.15490  0.97170  1.0000
  O   O20       1.0  0.39060  0.65490  0.52830  1.0000
  O   O21       1.0  0.94060  0.73520  0.14270  1.0000
  O   O22       1.0  0.55940  0.23520  0.35730  1.0000
  O   O23       1.0  0.05940  0.26480  0.85730  1.0000
  O   O24       1.0  0.44060  0.76480  0.64270  1.0000
  C   C33       1.0  0.96800  0.61550  0.03520  1.0000
  C   C34       1.0  0.53200  0.11550  0.46480  1.0000
  C   C35       1.0  0.03200  0.38450  0.96480  1.0000
  C   C36       1.0  0.46800  0.88450  0.53520  1.0000
  C   C37       1.0  0.94320  0.60930  0.95440  1.0000
  C   C38       1.0  0.55680  0.10930  0.54560  1.0000
  C   C39       1.0  0.05680  0.39070  0.04560  1.0000
  C   C40       1.0  0.44320  0.89070  0.45440  1.0000
  H   H17       1.0  0.90530  0.68310  0.92400  1.0000
  H   H18       1.0  0.59470  0.18310  0.57600  1.0000
  H   H19       1.0  0.09470  0.31690  0.07600  1.0000
  H   H20       1.0  0.40530  0.81690  0.42400  1.0000
  C   C41       1.0  0.02560  0.50480  0.08030  1.0000
  C   C42       1.0  0.47440  0.00480  0.41970  1.0000
  C   C43       1.0  0.97440  0.49520  0.91970  1.0000
  C   C44       1.0  0.52560  0.99520  0.58030  1.0000
  H   H21       1.0  0.04290  0.50810  0.13410  1.0000
  H   H22       1.0  0.45710  0.00810  0.36590  1.0000
  H   H23       1.0  0.95710  0.49190  0.86590  1.0000
  H   H24       1.0  0.54290  0.99190  0.63410  1.0000
  C   C45       1.0  0.93340  0.73900  0.07270  1.0000
  C   C46       1.0  0.56660  0.23900  0.42730  1.0000
  C   C47       1.0  0.06660  0.26100  0.92730  1.0000
  C   C48       1.0  0.43340  0.76100  0.57270  1.0000
