data_image0
_chemical_formula_structural       Mn2O12C6H6
_chemical_formula_sum              "Mn2 O12 C6 H6"
_cell_length_a       7.988
_cell_length_b       7.988
_cell_length_c       7.807
_cell_angle_alpha    90
_cell_angle_beta     90
_cell_angle_gamma    120

_space_group_name_H-M_alt    "P 1"
_space_group_IT_number       1

loop_
  _space_group_symop_operation_xyz
  'x, y, z'

loop_
  _atom_site_type_symbol
  _atom_site_label
  _atom_site_symmetry_multiplicity
  _atom_site_fract_x
  _atom_site_fract_y
  _atom_site_fract_z
  _atom_site_occupancy
  Mn  Mn1       1.0  0.66670  0.33330  0.72800  1.0000
  Mn  Mn2       1.0  0.33340  0.66670  0.22800  1.0000
  O   O1        1.0  0.68700  0.56950  0.57400  1.0000
  O   O2        1.0  0.11750  0.68700  0.07400  1.0000
  O   O3        1.0  0.43050  0.11750  0.57400  1.0000
  O   O4        1.0  0.31300  0.43050  0.07400  1.0000
  O   O5        1.0  0.88250  0.31300  0.57400  1.0000
  O   O6        1.0  0.56950  0.88250  0.07400  1.0000
  O   O7        1.0  0.56970  0.68690  0.38190  1.0000
  O   O8        1.0  0.88280  0.56970  0.88190  1.0000
  O   O9        1.0  0.31310  0.88280  0.38190  1.0000
  O   O10       1.0  0.43030  0.31310  0.88190  1.0000
  O   O11       1.0  0.11720  0.43030  0.38190  1.0000
  O   O12       1.0  0.68690  0.11720  0.88190  1.0000
  C   C1        1.0  0.55990  0.56030  0.47780  1.0000
  C   C2        1.0  0.99960  0.55990  0.97780  1.0000
  C   C3        1.0  0.43970  0.99960  0.47780  1.0000
  C   C4        1.0  0.44010  0.43970  0.97780  1.0000
  C   C5        1.0  0.00040  0.44010  0.47780  1.0000
  C   C6        1.0  0.56030  0.00040  0.97780  1.0000
  H   H1        1.0  0.44330  0.44400  0.47790  1.0000
  H   H2        1.0  0.99930  0.44330  0.97790  1.0000
  H   H3        1.0  0.55600  0.99930  0.47790  1.0000
  H   H4        1.0  0.55670  0.55600  0.97790  1.0000
  H   H5        1.0  0.00070  0.55670  0.47790  1.0000
  H   H6        1.0  0.44400  0.00070  0.97790  1.0000
