data_image0
_chemical_formula_structural       Mn4O24C4H4C8H8
_chemical_formula_sum              "Mn4 O24 C12 H12"
_cell_length_a       8.8538
_cell_length_b       11.8792
_cell_length_c       7.9183
_cell_angle_alpha    90
_cell_angle_beta     90
_cell_angle_gamma    90

_space_group_name_H-M_alt    "P 1"
_space_group_IT_number       1

loop_
  _space_group_symop_operation_xyz
  'x, y, z'

loop_
  _atom_site_type_symbol
  _atom_site_label
  _atom_site_symmetry_multiplicity
  _atom_site_fract_x
  _atom_site_fract_y
  _atom_site_fract_z
  _atom_site_occupancy
  Mn  Mn1       1.0  0.50000  0.00000  0.50000  1.0000
  Mn  Mn2       1.0  0.00000  0.00000  0.00000  1.0000
  Mn  Mn3       1.0  0.50000  0.50000  0.50000  1.0000
  Mn  Mn4       1.0  0.00000  0.50000  0.00000  1.0000
  O   O1        1.0  0.46313  0.15740  0.36350  1.0000
  O   O2        1.0  0.03687  0.84260  0.86350  1.0000
  O   O3        1.0  0.53687  0.65740  0.63650  1.0000
  O   O4        1.0  0.96313  0.34260  0.13650  1.0000
  O   O5        1.0  0.53687  0.84260  0.63650  1.0000
  O   O6        1.0  0.96313  0.15740  0.13650  1.0000
  O   O7        1.0  0.46313  0.34260  0.36350  1.0000
  O   O8        1.0  0.03687  0.65740  0.86350  1.0000
  O   O9        1.0  0.40226  0.06844  0.73120  1.0000
  O   O10       1.0  0.09774  0.93156  0.23120  1.0000
  O   O11       1.0  0.59774  0.56844  0.26880  1.0000
  O   O12       1.0  0.90226  0.43156  0.76880  1.0000
  O   O13       1.0  0.59774  0.93156  0.26880  1.0000
  O   O14       1.0  0.90226  0.06844  0.76880  1.0000
  O   O15       1.0  0.40226  0.43156  0.73120  1.0000
  O   O16       1.0  0.09774  0.56844  0.23120  1.0000
  O   O17       1.0  0.21803  0.06796  0.91808  1.0000
  O   O18       1.0  0.28197  0.93204  0.41808  1.0000
  O   O19       1.0  0.78197  0.56796  0.08192  1.0000
  O   O20       1.0  0.71803  0.43204  0.58192  1.0000
  O   O21       1.0  0.78197  0.93204  0.08192  1.0000
  O   O22       1.0  0.71803  0.06796  0.58192  1.0000
  O   O23       1.0  0.21803  0.43204  0.91808  1.0000
  O   O24       1.0  0.28197  0.56796  0.41808  1.0000
  C   C1        1.0  0.46990  0.25000  0.43370  1.0000
  C   C2        1.0  0.03010  0.75000  0.93370  1.0000
  C   C3        1.0  0.53010  0.75000  0.56630  1.0000
  C   C4        1.0  0.96990  0.25000  0.06630  1.0000
  H   H1        1.0  0.48120  0.25000  0.55040  1.0000
  H   H2        1.0  0.01880  0.75000  0.05040  1.0000
  H   H3        1.0  0.51880  0.75000  0.44960  1.0000
  H   H4        1.0  0.98120  0.25000  0.94960  1.0000
  C   C5        1.0  0.28180  0.03420  0.78900  1.0000
  C   C6        1.0  0.21820  0.96580  0.28900  1.0000
  C   C7        1.0  0.71820  0.53420  0.21100  1.0000
  C   C8        1.0  0.78180  0.46580  0.71100  1.0000
  C   C9        1.0  0.71820  0.96580  0.21100  1.0000
  C   C10       1.0  0.78180  0.03420  0.71100  1.0000
  C   C11       1.0  0.28180  0.46580  0.78900  1.0000
  C   C12       1.0  0.21820  0.53420  0.28900  1.0000
  H   H5        1.0  0.23380  0.97700  0.72940  1.0000
  H   H6        1.0  0.26620  0.02300  0.22940  1.0000
  H   H7        1.0  0.76620  0.47700  0.27060  1.0000
  H   H8        1.0  0.73380  0.52300  0.77060  1.0000
  H   H9        1.0  0.76620  0.02300  0.27060  1.0000
  H   H10       1.0  0.73380  0.97700  0.77060  1.0000
  H   H11       1.0  0.23380  0.52300  0.72940  1.0000
  H   H12       1.0  0.26620  0.47700  0.22940  1.0000
