data_image0
_chemical_formula_structural       Mn8C2H2C2H2C2H2C2H2C2H2C2H2C2H2C2H2C2H2C2H2C2H2C2H2O48
_chemical_formula_sum              "Mn8 C24 H24 O48"
_cell_length_a       16.137
_cell_length_b       7.605
_cell_length_c       16.14
_cell_angle_alpha    90
_cell_angle_beta     119.984
_cell_angle_gamma    90

_space_group_name_H-M_alt    "P 1"
_space_group_IT_number       1

loop_
  _space_group_symop_operation_xyz
  'x, y, z'

loop_
  _atom_site_type_symbol
  _atom_site_label
  _atom_site_symmetry_multiplicity
  _atom_site_fract_x
  _atom_site_fract_y
  _atom_site_fract_z
  _atom_site_occupancy
  Mn  Mn1       1.0  0.18312  0.37670  0.33396  1.0000
  Mn  Mn2       1.0  0.81688  0.87670  0.66604  1.0000
  Mn  Mn3       1.0  0.33400  0.87660  0.15101  1.0000
  Mn  Mn4       1.0  0.66600  0.37660  0.84899  1.0000
  Mn  Mn5       1.0  0.84923  0.87659  0.18289  1.0000
  Mn  Mn6       1.0  0.15077  0.37659  0.81711  1.0000
  Mn  Mn7       1.0  0.66678  0.35722  0.33332  1.0000
  Mn  Mn8       1.0  0.33322  0.85722  0.66668  1.0000
  C   C1        1.0  0.01450  0.61250  0.28900  1.0000
  C   C2        1.0  0.98550  0.11250  0.71100  1.0000
  H   H1        1.0  0.99670  0.57820  0.22560  1.0000
  H   H2        1.0  0.00330  0.07820  0.77440  1.0000
  C   C3        1.0  0.22650  0.63190  0.21690  1.0000
  C   C4        1.0  0.77350  0.13190  0.78310  1.0000
  H   H3        1.0  0.28830  0.62460  0.27210  1.0000
  H   H4        1.0  0.71170  0.12460  0.72790  1.0000
  C   C5        1.0  0.73970  0.60260  0.23610  1.0000
  C   C6        1.0  0.26030  0.10260  0.76390  1.0000
  H   H5        1.0  0.79680  0.59500  0.29630  1.0000
  H   H6        1.0  0.20320  0.09500  0.70370  1.0000
  C   C7        1.0  0.30050  0.60580  0.50750  1.0000
  C   C8        1.0  0.69950  0.10580  0.49250  1.0000
  H   H7        1.0  0.24230  0.59310  0.50830  1.0000
  H   H8        1.0  0.75770  0.09310  0.49170  1.0000
  C   C9        1.0  0.27420  0.61180  0.98610  1.0000
  C   C10       1.0  0.72580  0.11180  0.01390  1.0000
  H   H9        1.0  0.22910  0.57730  0.00430  1.0000
  H   H10       1.0  0.77090  0.07730  0.99570  1.0000
  C   C11       1.0  0.49570  0.60370  0.26040  1.0000
  C   C12       1.0  0.50430  0.10370  0.73960  1.0000
  H   H11       1.0  0.49760  0.59410  0.20260  1.0000
  H   H12       1.0  0.50240  0.09410  0.79740  1.0000
  C   C13       1.0  0.01170  0.13150  0.22790  1.0000
  C   C14       1.0  0.98830  0.63150  0.77210  1.0000
  H   H13       1.0  0.02000  0.12190  0.29030  1.0000
  H   H14       1.0  0.98000  0.62190  0.70970  1.0000
  C   C15       1.0  0.79380  0.10550  0.29880  1.0000
  C   C16       1.0  0.20620  0.60550  0.70120  1.0000
  H   H15       1.0  0.73570  0.09500  0.23970  1.0000
  H   H16       1.0  0.26430  0.59500  0.76030  1.0000
  C   C17       1.0  0.78290  0.63000  0.01050  1.0000
  C   C18       1.0  0.21710  0.13000  0.98950  1.0000
  H   H17       1.0  0.72880  0.61810  0.01870  1.0000
  H   H18       1.0  0.27120  0.11810  0.98130  1.0000
  C   C19       1.0  0.50670  0.10570  0.20740  1.0000
  C   C20       1.0  0.49330  0.60570  0.79260  1.0000
  H   H19       1.0  0.50690  0.09420  0.26610  1.0000
  H   H20       1.0  0.49310  0.59420  0.73390  1.0000
  C   C21       1.0  0.76540  0.60320  0.50570  1.0000
  C   C22       1.0  0.23460  0.10320  0.49430  1.0000
  H   H21       1.0  0.70630  0.59250  0.50480  1.0000
  H   H22       1.0  0.29370  0.09250  0.49520  1.0000
  C   C23       1.0  0.28880  0.11270  0.27400  1.0000
  C   C24       1.0  0.71120  0.61270  0.72600  1.0000
  H   H23       1.0  0.22530  0.07950  0.22800  1.0000
  H   H24       1.0  0.77470  0.57950  0.77200  1.0000
  O   O1        1.0  0.21850  0.72400  0.14820  1.0000
  O   O2        1.0  0.78150  0.22400  0.85180  1.0000
  O   O3        1.0  0.08200  0.53060  0.35630  1.0000
  O   O4        1.0  0.91800  0.03060  0.64370  1.0000
  O   O5        1.0  0.73980  0.70570  0.17520  1.0000
  O   O6        1.0  0.26020  0.20570  0.82480  1.0000
  O   O7        1.0  0.96840  0.73660  0.29890  1.0000
  O   O8        1.0  0.03160  0.23660  0.70110  1.0000
  O   O9        1.0  0.67180  0.51030  0.22430  1.0000
  O   O10       1.0  0.32820  0.01030  0.77570  1.0000
  O   O11       1.0  0.16140  0.55070  0.21880  1.0000
  O   O12       1.0  0.83860  0.05070  0.78120  1.0000
  O   O13       1.0  0.07040  0.22380  0.21840  1.0000
  O   O14       1.0  0.92960  0.72380  0.78160  1.0000
  O   O15       1.0  0.77600  0.51150  0.44780  1.0000
  O   O16       1.0  0.22400  0.01150  0.55220  1.0000
  O   O17       1.0  0.86450  0.02180  0.30730  1.0000
  O   O18       1.0  0.13550  0.52180  0.69270  1.0000
  O   O19       1.0  0.56920  0.20370  0.20690  1.0000
  O   O20       1.0  0.43080  0.70370  0.79310  1.0000
  O   O21       1.0  0.35620  0.03080  0.27460  1.0000
  O   O22       1.0  0.64380  0.53080  0.72540  1.0000
  O   O23       1.0  0.30720  0.52240  0.44320  1.0000
  O   O24       1.0  0.69280  0.02240  0.55680  1.0000
  O   O25       1.0  0.85200  0.72400  0.07020  1.0000
  O   O26       1.0  0.14800  0.22400  0.92980  1.0000
  O   O27       1.0  0.33070  0.73680  0.03120  1.0000
  O   O28       1.0  0.66930  0.23680  0.96880  1.0000
  O   O29       1.0  0.27460  0.53090  0.91850  1.0000
  O   O30       1.0  0.72540  0.03090  0.08150  1.0000
  O   O31       1.0  0.79280  0.20290  0.36190  1.0000
  O   O32       1.0  0.20720  0.70290  0.63810  1.0000
  O   O33       1.0  0.44340  0.02110  0.13620  1.0000
  O   O34       1.0  0.55660  0.52110  0.86380  1.0000
  O   O35       1.0  0.55270  0.51210  0.32810  1.0000
  O   O36       1.0  0.44730  0.01210  0.67190  1.0000
  O   O37       1.0  0.94260  0.05020  0.16160  1.0000
  O   O38       1.0  0.05740  0.55020  0.83840  1.0000
  O   O39       1.0  0.78130  0.55310  0.94230  1.0000
  O   O40       1.0  0.21870  0.05310  0.05770  1.0000
  O   O41       1.0  0.36200  0.70210  0.56920  1.0000
  O   O42       1.0  0.63800  0.20210  0.43080  1.0000
  O   O43       1.0  0.82450  0.70650  0.56420  1.0000
  O   O44       1.0  0.17550  0.20650  0.43580  1.0000
  O   O45       1.0  0.43600  0.70750  0.26030  1.0000
  O   O46       1.0  0.56400  0.20750  0.73970  1.0000
  O   O47       1.0  0.29940  0.23670  0.33050  1.0000
  O   O48       1.0  0.70060  0.73670  0.66950  1.0000
