data_image0
_chemical_formula_structural       Mn4O24C4H4C4H4C4H4
_chemical_formula_sum              "Mn4 O24 C12 H12"
_cell_length_a       8.9503
_cell_length_b       7.8214
_cell_length_c       11.7189
_cell_angle_alpha    90
_cell_angle_beta     90
_cell_angle_gamma    90

_space_group_name_H-M_alt    "P 1"
_space_group_IT_number       1

loop_
  _space_group_symop_operation_xyz
  'x, y, z'

loop_
  _atom_site_type_symbol
  _atom_site_label
  _atom_site_symmetry_multiplicity
  _atom_site_fract_x
  _atom_site_fract_y
  _atom_site_fract_z
  _atom_site_occupancy
  Mn  Mn1       1.0  0.53371  0.49939  0.11121  1.0000
  Mn  Mn2       1.0  0.46629  0.50061  0.61121  1.0000
  Mn  Mn3       1.0  0.03371  0.00061  0.11121  1.0000
  Mn  Mn4       1.0  0.96629  0.99939  0.61121  1.0000
  O   O1        1.0  0.31902  0.41987  0.18139  1.0000
  O   O2        1.0  0.68098  0.58013  0.68139  1.0000
  O   O3        1.0  0.81902  0.08013  0.18139  1.0000
  O   O4        1.0  0.18098  0.91987  0.68139  1.0000
  O   O5        1.0  0.13123  0.23482  0.17986  1.0000
  O   O6        1.0  0.86877  0.76518  0.67986  1.0000
  O   O7        1.0  0.63123  0.26518  0.17986  1.0000
  O   O8        1.0  0.36877  0.73482  0.67986  1.0000
  O   O9        1.0  0.43348  0.73024  0.03992  1.0000
  O   O10       1.0  0.56652  0.26976  0.53992  1.0000
  O   O11       1.0  0.93348  0.76976  0.03992  1.0000
  O   O12       1.0  0.06652  0.23024  0.53992  1.0000
  O   O13       1.0  0.24640  0.91657  0.03761  1.0000
  O   O14       1.0  0.75360  0.08343  0.53761  1.0000
  O   O15       1.0  0.74640  0.58343  0.03761  1.0000
  O   O16       1.0  0.25360  0.41657  0.53761  1.0000
  O   O17       1.0  0.56163  0.64710  0.26898  1.0000
  O   O18       1.0  0.43837  0.35290  0.76898  1.0000
  O   O19       1.0  0.06163  0.85290  0.26898  1.0000
  O   O20       1.0  0.93837  0.14710  0.76898  1.0000
  O   O21       1.0  0.51291  0.64080  0.45460  1.0000
  O   O22       1.0  0.48709  0.35920  0.95460  1.0000
  O   O23       1.0  0.01291  0.85920  0.45460  1.0000
  O   O24       1.0  0.98709  0.14080  0.95460  1.0000
  C   C1        1.0  0.26300  0.27890  0.15560  1.0000
  C   C2        1.0  0.73700  0.72110  0.65560  1.0000
  C   C3        1.0  0.76300  0.22110  0.15560  1.0000
  C   C4        1.0  0.23700  0.77890  0.65560  1.0000
  H   H1        1.0  0.32350  0.19980  0.11500  1.0000
  H   H2        1.0  0.67650  0.80020  0.61500  1.0000
  H   H3        1.0  0.82350  0.30020  0.11500  1.0000
  H   H4        1.0  0.17650  0.69980  0.61500  1.0000
  C   C5        1.0  0.31660  0.79240  0.07878  1.0000
  C   C6        1.0  0.68340  0.20760  0.57878  1.0000
  C   C7        1.0  0.81660  0.70760  0.07878  1.0000
  C   C8        1.0  0.18340  0.29240  0.57878  1.0000
  H   H5        1.0  0.27670  0.74140  0.14570  1.0000
  H   H6        1.0  0.72330  0.25860  0.64570  1.0000
  H   H7        1.0  0.77670  0.75860  0.14570  1.0000
  H   H8        1.0  0.22330  0.24140  0.64570  1.0000
  C   C9        1.0  0.53760  0.57010  0.36150  1.0000
  C   C10       1.0  0.46240  0.42990  0.86150  1.0000
  C   C11       1.0  0.03760  0.92990  0.36150  1.0000
  C   C12       1.0  0.96240  0.07010  0.86150  1.0000
  H   H9        1.0  0.53850  0.44870  0.36010  1.0000
  H   H10       1.0  0.46150  0.55130  0.86010  1.0000
  H   H11       1.0  0.03850  0.05130  0.36010  1.0000
  H   H12       1.0  0.96150  0.94870  0.86010  1.0000
