data_image0
_chemical_formula_structural       Mn4O24C4H4C4H4C4H4
_chemical_formula_sum              "Mn4 O24 C12 H12"
_cell_length_a       8.9151
_cell_length_b       7.8115
_cell_length_c       11.6779
_cell_angle_alpha    90
_cell_angle_beta     90
_cell_angle_gamma    90

_space_group_name_H-M_alt    "P 1"
_space_group_IT_number       1

loop_
  _space_group_symop_operation_xyz
  'x, y, z'

loop_
  _atom_site_type_symbol
  _atom_site_label
  _atom_site_symmetry_multiplicity
  _atom_site_fract_x
  _atom_site_fract_y
  _atom_site_fract_z
  _atom_site_occupancy
  Mn  Mn1       1.0  0.53509  0.49913  0.11101  1.0000
  Mn  Mn2       1.0  0.46491  0.50087  0.61101  1.0000
  Mn  Mn3       1.0  0.03509  0.00087  0.11101  1.0000
  Mn  Mn4       1.0  0.96491  0.99913  0.61101  1.0000
  O   O1        1.0  0.31960  0.42131  0.18244  1.0000
  O   O2        1.0  0.68040  0.57869  0.68244  1.0000
  O   O3        1.0  0.81960  0.07869  0.18244  1.0000
  O   O4        1.0  0.18040  0.92131  0.68244  1.0000
  O   O5        1.0  0.13185  0.23487  0.18052  1.0000
  O   O6        1.0  0.86815  0.76513  0.68052  1.0000
  O   O7        1.0  0.63185  0.26513  0.18052  1.0000
  O   O8        1.0  0.36815  0.73487  0.68052  1.0000
  O   O9        1.0  0.43515  0.72995  0.03881  1.0000
  O   O10       1.0  0.56485  0.27005  0.53881  1.0000
  O   O11       1.0  0.93515  0.77005  0.03881  1.0000
  O   O12       1.0  0.06485  0.22995  0.53881  1.0000
  O   O13       1.0  0.24839  0.91806  0.03720  1.0000
  O   O14       1.0  0.75161  0.08194  0.53720  1.0000
  O   O15       1.0  0.74839  0.58194  0.03720  1.0000
  O   O16       1.0  0.25161  0.41806  0.53720  1.0000
  O   O17       1.0  0.56309  0.64848  0.26832  1.0000
  O   O18       1.0  0.43691  0.35152  0.76832  1.0000
  O   O19       1.0  0.06309  0.85152  0.26832  1.0000
  O   O20       1.0  0.93691  0.14848  0.76832  1.0000
  O   O21       1.0  0.51311  0.64258  0.45489  1.0000
  O   O22       1.0  0.48689  0.35742  0.95489  1.0000
  O   O23       1.0  0.01311  0.85742  0.45489  1.0000
  O   O24       1.0  0.98689  0.14258  0.95489  1.0000
  C   C1        1.0  0.26453  0.27913  0.15737  1.0000
  C   C2        1.0  0.73547  0.72087  0.65737  1.0000
  C   C3        1.0  0.76453  0.22087  0.15737  1.0000
  C   C4        1.0  0.23547  0.77913  0.65737  1.0000
  H   H1        1.0  0.32650  0.19920  0.11840  1.0000
  H   H2        1.0  0.67350  0.80080  0.61840  1.0000
  H   H3        1.0  0.82650  0.30080  0.11840  1.0000
  H   H4        1.0  0.17350  0.69920  0.61840  1.0000
  C   C5        1.0  0.31797  0.79273  0.07893  1.0000
  C   C6        1.0  0.68203  0.20727  0.57893  1.0000
  C   C7        1.0  0.81797  0.70727  0.07893  1.0000
  C   C8        1.0  0.18203  0.29273  0.57893  1.0000
  H   H5        1.0  0.27810  0.74200  0.14630  1.0000
  H   H6        1.0  0.72190  0.25800  0.64630  1.0000
  H   H7        1.0  0.77810  0.75800  0.14630  1.0000
  H   H8        1.0  0.22190  0.24200  0.64630  1.0000
  C   C9        1.0  0.53923  0.57077  0.36134  1.0000
  C   C10       1.0  0.46077  0.42923  0.86134  1.0000
  C   C11       1.0  0.03923  0.92923  0.36134  1.0000
  C   C12       1.0  0.96077  0.07077  0.86134  1.0000
  H   H9        1.0  0.54130  0.44920  0.36020  1.0000
  H   H10       1.0  0.45870  0.55080  0.86020  1.0000
  H   H11       1.0  0.04130  0.05080  0.36020  1.0000
  H   H12       1.0  0.95870  0.94920  0.86020  1.0000
