data_image0
_chemical_formula_structural       Mn4O24C4H4C4H4C4H4
_chemical_formula_sum              "Mn4 O24 C12 H12"
_cell_length_a       8.9387
_cell_length_b       7.8164
_cell_length_c       11.7048
_cell_angle_alpha    90
_cell_angle_beta     90
_cell_angle_gamma    90

_space_group_name_H-M_alt    "P 1"
_space_group_IT_number       1

loop_
  _space_group_symop_operation_xyz
  'x, y, z'

loop_
  _atom_site_type_symbol
  _atom_site_label
  _atom_site_symmetry_multiplicity
  _atom_site_fract_x
  _atom_site_fract_y
  _atom_site_fract_z
  _atom_site_occupancy
  Mn  Mn1       1.0  0.53411  0.49928  0.11109  1.0000
  Mn  Mn2       1.0  0.46589  0.50072  0.61109  1.0000
  Mn  Mn3       1.0  0.03411  0.00072  0.11109  1.0000
  Mn  Mn4       1.0  0.96589  0.99928  0.61109  1.0000
  O   O1        1.0  0.31927  0.42013  0.18162  1.0000
  O   O2        1.0  0.68073  0.57987  0.68162  1.0000
  O   O3        1.0  0.81927  0.07987  0.18162  1.0000
  O   O4        1.0  0.18073  0.92013  0.68162  1.0000
  O   O5        1.0  0.13163  0.23459  0.18006  1.0000
  O   O6        1.0  0.86837  0.76541  0.68006  1.0000
  O   O7        1.0  0.63163  0.26541  0.18006  1.0000
  O   O8        1.0  0.36837  0.73459  0.68006  1.0000
  O   O9        1.0  0.43378  0.73006  0.03980  1.0000
  O   O10       1.0  0.56622  0.26994  0.53980  1.0000
  O   O11       1.0  0.93378  0.76994  0.03980  1.0000
  O   O12       1.0  0.06622  0.23006  0.53980  1.0000
  O   O13       1.0  0.24692  0.91695  0.03746  1.0000
  O   O14       1.0  0.75308  0.08305  0.53746  1.0000
  O   O15       1.0  0.74692  0.58305  0.03746  1.0000
  O   O16       1.0  0.25308  0.41695  0.53746  1.0000
  O   O17       1.0  0.56229  0.64727  0.26881  1.0000
  O   O18       1.0  0.43771  0.35273  0.76881  1.0000
  O   O19       1.0  0.06229  0.85273  0.26881  1.0000
  O   O20       1.0  0.93771  0.14727  0.76881  1.0000
  O   O21       1.0  0.51298  0.64137  0.45459  1.0000
  O   O22       1.0  0.48702  0.35863  0.95459  1.0000
  O   O23       1.0  0.01298  0.85863  0.45459  1.0000
  O   O24       1.0  0.98702  0.14137  0.95459  1.0000
  C   C1        1.0  0.26317  0.27931  0.15639  1.0000
  C   C2        1.0  0.73683  0.72069  0.65639  1.0000
  C   C3        1.0  0.76317  0.22069  0.15639  1.0000
  C   C4        1.0  0.23683  0.77931  0.65639  1.0000
  H   H1        1.0  0.32420  0.19990  0.11630  1.0000
  H   H2        1.0  0.67580  0.80010  0.61630  1.0000
  H   H3        1.0  0.82420  0.30010  0.11630  1.0000
  H   H4        1.0  0.17580  0.69990  0.61630  1.0000
  C   C5        1.0  0.31668  0.79263  0.07898  1.0000
  C   C6        1.0  0.68332  0.20737  0.57898  1.0000
  C   C7        1.0  0.81668  0.70737  0.07898  1.0000
  C   C8        1.0  0.18332  0.29263  0.57898  1.0000
  H   H5        1.0  0.27670  0.74190  0.14610  1.0000
  H   H6        1.0  0.72330  0.25810  0.64610  1.0000
  H   H7        1.0  0.77670  0.75810  0.14610  1.0000
  H   H8        1.0  0.22330  0.24190  0.64610  1.0000
  C   C9        1.0  0.53808  0.57031  0.36152  1.0000
  C   C10       1.0  0.46192  0.42969  0.86152  1.0000
  C   C11       1.0  0.03808  0.92969  0.36152  1.0000
  C   C12       1.0  0.96192  0.07031  0.86152  1.0000
  H   H9        1.0  0.53910  0.44880  0.36020  1.0000
  H   H10       1.0  0.46090  0.55120  0.86020  1.0000
  H   H11       1.0  0.03910  0.05120  0.36020  1.0000
  H   H12       1.0  0.96090  0.94880  0.86020  1.0000
