data_image0
_chemical_formula_structural       Mn4O24C4H4C4H4C4H4
_chemical_formula_sum              "Mn4 O24 C12 H12"
_cell_length_a       8.8888
_cell_length_b       7.8832
_cell_length_c       11.8363
_cell_angle_alpha    90
_cell_angle_beta     90
_cell_angle_gamma    90

_space_group_name_H-M_alt    "P 1"
_space_group_IT_number       1

loop_
  _space_group_symop_operation_xyz
  'x, y, z'

loop_
  _atom_site_type_symbol
  _atom_site_label
  _atom_site_symmetry_multiplicity
  _atom_site_fract_x
  _atom_site_fract_y
  _atom_site_fract_z
  _atom_site_occupancy
  Mn  Mn1       1.0  0.51630  0.49997  0.11092  1.0000
  Mn  Mn2       1.0  0.48370  0.50003  0.61092  1.0000
  Mn  Mn3       1.0  0.01630  0.00003  0.11092  1.0000
  Mn  Mn4       1.0  0.98370  0.99997  0.61092  1.0000
  O   O1        1.0  0.29914  0.41860  0.17905  1.0000
  O   O2        1.0  0.70086  0.58140  0.67905  1.0000
  O   O3        1.0  0.79914  0.08140  0.17905  1.0000
  O   O4        1.0  0.20086  0.91860  0.67905  1.0000
  O   O5        1.0  0.11386  0.23220  0.17962  1.0000
  O   O6        1.0  0.88614  0.76780  0.67962  1.0000
  O   O7        1.0  0.61386  0.26780  0.17962  1.0000
  O   O8        1.0  0.38614  0.73220  0.67962  1.0000
  O   O9        1.0  0.41782  0.73110  0.04176  1.0000
  O   O10       1.0  0.58218  0.26890  0.54176  1.0000
  O   O11       1.0  0.91782  0.76890  0.04176  1.0000
  O   O12       1.0  0.08218  0.23110  0.54176  1.0000
  O   O13       1.0  0.23241  0.91780  0.04087  1.0000
  O   O14       1.0  0.76759  0.08220  0.54087  1.0000
  O   O15       1.0  0.73241  0.58220  0.04087  1.0000
  O   O16       1.0  0.26759  0.41780  0.54087  1.0000
  O   O17       1.0  0.54890  0.63950  0.26904  1.0000
  O   O18       1.0  0.45110  0.36050  0.76904  1.0000
  O   O19       1.0  0.04890  0.86050  0.26904  1.0000
  O   O20       1.0  0.95110  0.13950  0.76904  1.0000
  O   O21       1.0  0.52510  0.63780  0.45430  1.0000
  O   O22       1.0  0.47490  0.36220  0.95430  1.0000
  O   O23       1.0  0.02510  0.86220  0.45430  1.0000
  O   O24       1.0  0.97490  0.13780  0.95430  1.0000
  C   C1        1.0  0.23920  0.28470  0.14930  1.0000
  C   C2        1.0  0.76080  0.71530  0.64930  1.0000
  C   C3        1.0  0.73920  0.21530  0.14930  1.0000
  C   C4        1.0  0.26080  0.78470  0.64930  1.0000
  H   H1        1.0  0.29300  0.21670  0.09940  1.0000
  H   H2        1.0  0.70700  0.78330  0.59940  1.0000
  H   H3        1.0  0.79300  0.28330  0.09940  1.0000
  H   H4        1.0  0.20700  0.71670  0.59940  1.0000
  C   C5        1.0  0.30000  0.79200  0.07850  1.0000
  C   C6        1.0  0.70000  0.20800  0.57850  1.0000
  C   C7        1.0  0.80000  0.70800  0.07850  1.0000
  C   C8        1.0  0.20000  0.29200  0.57850  1.0000
  H   H5        1.0  0.25730  0.73840  0.14070  1.0000
  H   H6        1.0  0.74270  0.26160  0.64070  1.0000
  H   H7        1.0  0.75730  0.76160  0.14070  1.0000
  H   H8        1.0  0.24270  0.23840  0.64070  1.0000
  C   C9        1.0  0.53220  0.56720  0.36130  1.0000
  C   C10       1.0  0.46780  0.43280  0.86130  1.0000
  C   C11       1.0  0.03220  0.93280  0.36130  1.0000
  C   C12       1.0  0.96780  0.06720  0.86130  1.0000
  H   H9        1.0  0.52420  0.44960  0.36030  1.0000
  H   H10       1.0  0.47580  0.55040  0.86030  1.0000
  H   H11       1.0  0.02420  0.05040  0.36030  1.0000
  H   H12       1.0  0.97580  0.94960  0.86030  1.0000
