data_image0
_chemical_formula_structural       Mn4O24C4H4C8H8
_chemical_formula_sum              "Mn4 O24 C12 H12"
_cell_length_a       8.8677
_cell_length_b       11.8618
_cell_length_c       7.9003
_cell_angle_alpha    90
_cell_angle_beta     90
_cell_angle_gamma    90

_space_group_name_H-M_alt    "P 1"
_space_group_IT_number       1

loop_
  _space_group_symop_operation_xyz
  'x, y, z'

loop_
  _atom_site_type_symbol
  _atom_site_label
  _atom_site_symmetry_multiplicity
  _atom_site_fract_x
  _atom_site_fract_y
  _atom_site_fract_z
  _atom_site_occupancy
  Mn  Mn1       1.0  0.50000  0.00000  0.50000  1.0000
  Mn  Mn2       1.0  0.00000  0.00000  0.00000  1.0000
  Mn  Mn3       1.0  0.50000  0.50000  0.50000  1.0000
  Mn  Mn4       1.0  0.00000  0.50000  0.00000  1.0000
  O   O1        1.0  0.46290  0.15726  0.36230  1.0000
  O   O2        1.0  0.03710  0.84274  0.86230  1.0000
  O   O3        1.0  0.53710  0.65726  0.63770  1.0000
  O   O4        1.0  0.96290  0.34274  0.13770  1.0000
  O   O5        1.0  0.53710  0.84274  0.63770  1.0000
  O   O6        1.0  0.96290  0.15726  0.13770  1.0000
  O   O7        1.0  0.46290  0.34274  0.36230  1.0000
  O   O8        1.0  0.03710  0.65726  0.86230  1.0000
  O   O9        1.0  0.40250  0.06887  0.73160  1.0000
  O   O10       1.0  0.09750  0.93113  0.23160  1.0000
  O   O11       1.0  0.59750  0.56887  0.26840  1.0000
  O   O12       1.0  0.90250  0.43113  0.76840  1.0000
  O   O13       1.0  0.59750  0.93113  0.26840  1.0000
  O   O14       1.0  0.90250  0.06887  0.76840  1.0000
  O   O15       1.0  0.40250  0.43113  0.73160  1.0000
  O   O16       1.0  0.09750  0.56887  0.23160  1.0000
  O   O17       1.0  0.21740  0.06857  0.91840  1.0000
  O   O18       1.0  0.28260  0.93143  0.41840  1.0000
  O   O19       1.0  0.78260  0.56857  0.08160  1.0000
  O   O20       1.0  0.71740  0.43143  0.58160  1.0000
  O   O21       1.0  0.78260  0.93143  0.08160  1.0000
  O   O22       1.0  0.71740  0.06857  0.58160  1.0000
  O   O23       1.0  0.21740  0.43143  0.91840  1.0000
  O   O24       1.0  0.28260  0.56857  0.41840  1.0000
  C   C1        1.0  0.46900  0.25000  0.43300  1.0000
  C   C2        1.0  0.03100  0.75000  0.93300  1.0000
  C   C3        1.0  0.53100  0.75000  0.56700  1.0000
  C   C4        1.0  0.96900  0.25000  0.06700  1.0000
  H   H1        1.0  0.47910  0.25000  0.55020  1.0000
  H   H2        1.0  0.02090  0.75000  0.05020  1.0000
  H   H3        1.0  0.52090  0.75000  0.44980  1.0000
  H   H4        1.0  0.97910  0.25000  0.94980  1.0000
  C   C5        1.0  0.28120  0.03490  0.78900  1.0000
  C   C6        1.0  0.21880  0.96510  0.28900  1.0000
  C   C7        1.0  0.71880  0.53490  0.21100  1.0000
  C   C8        1.0  0.78120  0.46510  0.71100  1.0000
  C   C9        1.0  0.71880  0.96510  0.21100  1.0000
  C   C10       1.0  0.78120  0.03490  0.71100  1.0000
  C   C11       1.0  0.28120  0.46510  0.78900  1.0000
  C   C12       1.0  0.21880  0.53490  0.28900  1.0000
  H   H5        1.0  0.23290  0.97810  0.72850  1.0000
  H   H6        1.0  0.26710  0.02190  0.22850  1.0000
  H   H7        1.0  0.76710  0.47810  0.27150  1.0000
  H   H8        1.0  0.73290  0.52190  0.77150  1.0000
  H   H9        1.0  0.76710  0.02190  0.27150  1.0000
  H   H10       1.0  0.73290  0.97810  0.77150  1.0000
  H   H11       1.0  0.23290  0.52190  0.72850  1.0000
  H   H12       1.0  0.26710  0.47810  0.22850  1.0000
