data_image0
_chemical_formula_structural       Mn4O24C4H4C4H4C4H4
_chemical_formula_sum              "Mn4 O24 C12 H12"
_cell_length_a       8.9448
_cell_length_b       7.8403
_cell_length_c       11.7669
_cell_angle_alpha    90
_cell_angle_beta     90
_cell_angle_gamma    90

_space_group_name_H-M_alt    "P 1"
_space_group_IT_number       1

loop_
  _space_group_symop_operation_xyz
  'x, y, z'

loop_
  _atom_site_type_symbol
  _atom_site_label
  _atom_site_symmetry_multiplicity
  _atom_site_fract_x
  _atom_site_fract_y
  _atom_site_fract_z
  _atom_site_occupancy
  Mn  Mn1       1.0  0.52998  0.49962  0.11114  1.0000
  Mn  Mn2       1.0  0.47002  0.50038  0.61114  1.0000
  Mn  Mn3       1.0  0.02998  0.00038  0.11114  1.0000
  Mn  Mn4       1.0  0.97002  0.99962  0.61114  1.0000
  O   O1        1.0  0.31465  0.41900  0.18025  1.0000
  O   O2        1.0  0.68535  0.58100  0.68025  1.0000
  O   O3        1.0  0.81465  0.08100  0.18025  1.0000
  O   O4        1.0  0.18535  0.91900  0.68025  1.0000
  O   O5        1.0  0.12801  0.23380  0.17933  1.0000
  O   O6        1.0  0.87199  0.76620  0.67933  1.0000
  O   O7        1.0  0.62801  0.26620  0.17933  1.0000
  O   O8        1.0  0.37199  0.73380  0.67933  1.0000
  O   O9        1.0  0.42954  0.73090  0.04103  1.0000
  O   O10       1.0  0.57046  0.26910  0.54103  1.0000
  O   O11       1.0  0.92954  0.76910  0.04103  1.0000
  O   O12       1.0  0.07046  0.23090  0.54103  1.0000
  O   O13       1.0  0.24321  0.91630  0.03842  1.0000
  O   O14       1.0  0.75679  0.08370  0.53842  1.0000
  O   O15       1.0  0.74321  0.58370  0.03842  1.0000
  O   O16       1.0  0.25679  0.41630  0.53842  1.0000
  O   O17       1.0  0.55866  0.64430  0.26943  1.0000
  O   O18       1.0  0.44134  0.35570  0.76943  1.0000
  O   O19       1.0  0.05866  0.85570  0.26943  1.0000
  O   O20       1.0  0.94134  0.14430  0.76943  1.0000
  O   O21       1.0  0.51460  0.63940  0.45445  1.0000
  O   O22       1.0  0.48540  0.36060  0.95445  1.0000
  O   O23       1.0  0.01460  0.86060  0.45445  1.0000
  O   O24       1.0  0.98540  0.13940  0.95445  1.0000
  C   C1        1.0  0.25770  0.28060  0.15360  1.0000
  C   C2        1.0  0.74230  0.71940  0.65360  1.0000
  C   C3        1.0  0.75770  0.21940  0.15360  1.0000
  C   C4        1.0  0.24230  0.78060  0.65360  1.0000
  H   H1        1.0  0.31570  0.20560  0.11120  1.0000
  H   H2        1.0  0.68430  0.79440  0.61120  1.0000
  H   H3        1.0  0.81570  0.29440  0.11120  1.0000
  H   H4        1.0  0.18430  0.70560  0.61120  1.0000
  C   C5        1.0  0.31330  0.79290  0.07850  1.0000
  C   C6        1.0  0.68670  0.20710  0.57850  1.0000
  C   C7        1.0  0.81330  0.70710  0.07850  1.0000
  C   C8        1.0  0.18670  0.29290  0.57850  1.0000
  H   H5        1.0  0.27370  0.74240  0.14340  1.0000
  H   H6        1.0  0.72630  0.25760  0.64340  1.0000
  H   H7        1.0  0.77370  0.75760  0.14340  1.0000
  H   H8        1.0  0.22630  0.24240  0.64340  1.0000
  C   C9        1.0  0.53600  0.56900  0.36190  1.0000
  C   C10       1.0  0.46400  0.43100  0.86190  1.0000
  C   C11       1.0  0.03600  0.93100  0.36190  1.0000
  C   C12       1.0  0.96400  0.06900  0.86190  1.0000
  H   H9        1.0  0.53520  0.45040  0.36070  1.0000
  H   H10       1.0  0.46480  0.54960  0.86070  1.0000
  H   H11       1.0  0.03520  0.04960  0.36070  1.0000
  H   H12       1.0  0.96480  0.95040  0.86070  1.0000
