data_image0
_chemical_formula_structural       Zn4O24C4H4C4H4C4H4
_chemical_formula_sum              "Zn4 O24 C12 H12"
_cell_length_a       8.6806
_cell_length_b       7.7235
_cell_length_c       11.5056
_cell_angle_alpha    90
_cell_angle_beta     90
_cell_angle_gamma    90

_space_group_name_H-M_alt    "P 1"
_space_group_IT_number       1

loop_
  _space_group_symop_operation_xyz
  'x, y, z'

loop_
  _atom_site_type_symbol
  _atom_site_label
  _atom_site_symmetry_multiplicity
  _atom_site_fract_x
  _atom_site_fract_y
  _atom_site_fract_z
  _atom_site_occupancy
  Zn  Zn1       1.0  0.52881  0.49988  0.11119  1.0000
  Zn  Zn2       1.0  0.47119  0.50012  0.61119  1.0000
  Zn  Zn3       1.0  0.02881  0.00012  0.11119  1.0000
  Zn  Zn4       1.0  0.97119  0.99988  0.61119  1.0000
  O   O1        1.0  0.31458  0.42040  0.17709  1.0000
  O   O2        1.0  0.68542  0.57960  0.67709  1.0000
  O   O3        1.0  0.81458  0.07960  0.17709  1.0000
  O   O4        1.0  0.18542  0.92040  0.67709  1.0000
  O   O5        1.0  0.12509  0.22880  0.17824  1.0000
  O   O6        1.0  0.87491  0.77120  0.67824  1.0000
  O   O7        1.0  0.62509  0.27120  0.17824  1.0000
  O   O8        1.0  0.37491  0.72880  0.67824  1.0000
  O   O9        1.0  0.43080  0.72570  0.04127  1.0000
  O   O10       1.0  0.56920  0.27430  0.54127  1.0000
  O   O11       1.0  0.93080  0.77430  0.04127  1.0000
  O   O12       1.0  0.06920  0.22570  0.54127  1.0000
  O   O13       1.0  0.23973  0.91640  0.04017  1.0000
  O   O14       1.0  0.76027  0.08360  0.54017  1.0000
  O   O15       1.0  0.73973  0.58360  0.04017  1.0000
  O   O16       1.0  0.26027  0.41640  0.54017  1.0000
  O   O17       1.0  0.55540  0.64210  0.26656  1.0000
  O   O18       1.0  0.44460  0.35790  0.76656  1.0000
  O   O19       1.0  0.05540  0.85790  0.26656  1.0000
  O   O20       1.0  0.94460  0.14210  0.76656  1.0000
  O   O21       1.0  0.51210  0.63640  0.45631  1.0000
  O   O22       1.0  0.48790  0.36360  0.95631  1.0000
  O   O23       1.0  0.01210  0.86360  0.45631  1.0000
  O   O24       1.0  0.98790  0.13640  0.95631  1.0000
  C   C1        1.0  0.25910  0.27700  0.15180  1.0000
  C   C2        1.0  0.74090  0.72300  0.65180  1.0000
  C   C3        1.0  0.75910  0.22300  0.15180  1.0000
  C   C4        1.0  0.24090  0.77700  0.65180  1.0000
  H   H1        1.0  0.32210  0.19850  0.10960  1.0000
  H   H2        1.0  0.67790  0.80150  0.60960  1.0000
  H   H3        1.0  0.82210  0.30150  0.10960  1.0000
  H   H4        1.0  0.17790  0.69850  0.60960  1.0000
  C   C5        1.0  0.31120  0.78970  0.08240  1.0000
  C   C6        1.0  0.68880  0.21030  0.58240  1.0000
  C   C7        1.0  0.81120  0.71030  0.08240  1.0000
  C   C8        1.0  0.18880  0.28970  0.58240  1.0000
  H   H5        1.0  0.27060  0.73870  0.15100  1.0000
  H   H6        1.0  0.72940  0.26130  0.65100  1.0000
  H   H7        1.0  0.77060  0.76130  0.15100  1.0000
  H   H8        1.0  0.22940  0.23870  0.65100  1.0000
  C   C9        1.0  0.53060  0.56280  0.36180  1.0000
  C   C10       1.0  0.46940  0.43720  0.86180  1.0000
  C   C11       1.0  0.03060  0.93720  0.36180  1.0000
  C   C12       1.0  0.96940  0.06280  0.86180  1.0000
  H   H9        1.0  0.52600  0.44000  0.36030  1.0000
  H   H10       1.0  0.47400  0.56000  0.86030  1.0000
  H   H11       1.0  0.02600  0.06000  0.36030  1.0000
  H   H12       1.0  0.97400  0.94000  0.86030  1.0000
