data_image0
_chemical_formula_structural       Zn4O24C4H4C4H4C4H4
_chemical_formula_sum              "Zn4 O24 C12 H12"
_cell_length_a       8.6748
_cell_length_b       7.7488
_cell_length_c       11.5478
_cell_angle_alpha    90
_cell_angle_beta     90
_cell_angle_gamma    90

_space_group_name_H-M_alt    "P 1"
_space_group_IT_number       1

loop_
  _space_group_symop_operation_xyz
  'x, y, z'

loop_
  _atom_site_type_symbol
  _atom_site_label
  _atom_site_symmetry_multiplicity
  _atom_site_fract_x
  _atom_site_fract_y
  _atom_site_fract_z
  _atom_site_occupancy
  Zn  Zn1       1.0  0.52554  0.49991  0.11116  1.0000
  Zn  Zn2       1.0  0.47446  0.50009  0.61116  1.0000
  Zn  Zn3       1.0  0.02554  0.00009  0.11116  1.0000
  Zn  Zn4       1.0  0.97446  0.99991  0.61116  1.0000
  O   O1        1.0  0.31110  0.41890  0.17619  1.0000
  O   O2        1.0  0.68890  0.58110  0.67619  1.0000
  O   O3        1.0  0.81110  0.08110  0.17619  1.0000
  O   O4        1.0  0.18890  0.91890  0.67619  1.0000
  O   O5        1.0  0.12160  0.22810  0.17779  1.0000
  O   O6        1.0  0.87840  0.77190  0.67779  1.0000
  O   O7        1.0  0.62160  0.27190  0.17779  1.0000
  O   O8        1.0  0.37840  0.72810  0.67779  1.0000
  O   O9        1.0  0.42720  0.72580  0.04213  1.0000
  O   O10       1.0  0.57280  0.27420  0.54213  1.0000
  O   O11       1.0  0.92720  0.77420  0.04213  1.0000
  O   O12       1.0  0.07280  0.22580  0.54213  1.0000
  O   O13       1.0  0.23760  0.91660  0.04092  1.0000
  O   O14       1.0  0.76240  0.08340  0.54092  1.0000
  O   O15       1.0  0.73760  0.58340  0.04092  1.0000
  O   O16       1.0  0.26240  0.41660  0.54092  1.0000
  O   O17       1.0  0.55220  0.64010  0.26702  1.0000
  O   O18       1.0  0.44780  0.35990  0.76702  1.0000
  O   O19       1.0  0.05220  0.85990  0.26702  1.0000
  O   O20       1.0  0.94780  0.14010  0.76702  1.0000
  O   O21       1.0  0.51450  0.63440  0.45622  1.0000
  O   O22       1.0  0.48550  0.36560  0.95622  1.0000
  O   O23       1.0  0.01450  0.86560  0.45622  1.0000
  O   O24       1.0  0.98550  0.13440  0.95622  1.0000
  C   C1        1.0  0.25430  0.27730  0.14990  1.0000
  C   C2        1.0  0.74570  0.72270  0.64990  1.0000
  C   C3        1.0  0.75430  0.22270  0.14990  1.0000
  C   C4        1.0  0.24570  0.77730  0.64990  1.0000
  H   H1        1.0  0.31440  0.20220  0.10620  1.0000
  H   H2        1.0  0.68560  0.79780  0.60620  1.0000
  H   H3        1.0  0.81440  0.29780  0.10620  1.0000
  H   H4        1.0  0.18560  0.70220  0.60620  1.0000
  C   C5        1.0  0.30750  0.78920  0.08180  1.0000
  C   C6        1.0  0.69250  0.21080  0.58180  1.0000
  C   C7        1.0  0.80750  0.71080  0.08180  1.0000
  C   C8        1.0  0.19250  0.28920  0.58180  1.0000
  H   H5        1.0  0.26590  0.73780  0.14750  1.0000
  H   H6        1.0  0.73410  0.26220  0.64750  1.0000
  H   H7        1.0  0.76590  0.76220  0.14750  1.0000
  H   H8        1.0  0.23410  0.23780  0.64750  1.0000
  C   C9        1.0  0.52910  0.56220  0.36170  1.0000
  C   C10       1.0  0.47090  0.43780  0.86170  1.0000
  C   C11       1.0  0.02910  0.93780  0.36170  1.0000
  C   C12       1.0  0.97090  0.06220  0.86170  1.0000
  H   H9        1.0  0.52260  0.44240  0.35990  1.0000
  H   H10       1.0  0.47740  0.55760  0.85990  1.0000
  H   H11       1.0  0.02260  0.05760  0.35990  1.0000
  H   H12       1.0  0.97740  0.94240  0.85990  1.0000
