data_image0
_chemical_formula_structural       Zn4O24C4H4C4H4C4H4
_chemical_formula_sum              "Zn4 O24 C12 H12"
_cell_length_a       8.6706
_cell_length_b       7.72008
_cell_length_c       11.4872
_cell_angle_alpha    90
_cell_angle_beta     90
_cell_angle_gamma    90

_space_group_name_H-M_alt    "P 1"
_space_group_IT_number       1

loop_
  _space_group_symop_operation_xyz
  'x, y, z'

loop_
  _atom_site_type_symbol
  _atom_site_label
  _atom_site_symmetry_multiplicity
  _atom_site_fract_x
  _atom_site_fract_y
  _atom_site_fract_z
  _atom_site_occupancy
  Zn  Zn1       1.0  0.47041  0.99985  0.31512  1.0000
  Zn  Zn2       1.0  0.52959  0.00015  0.81512  1.0000
  Zn  Zn3       1.0  0.02959  0.49985  0.81512  1.0000
  Zn  Zn4       1.0  0.97041  0.50015  0.31512  1.0000
  O   O1        1.0  0.25912  0.08195  0.38689  1.0000
  O   O2        1.0  0.74088  0.91805  0.88689  1.0000
  O   O3        1.0  0.24088  0.58195  0.88689  1.0000
  O   O4        1.0  0.75912  0.41805  0.38689  1.0000
  O   O5        1.0  0.18505  0.57817  0.24877  1.0000
  O   O6        1.0  0.81495  0.42183  0.74877  1.0000
  O   O7        1.0  0.31495  0.07817  0.74877  1.0000
  O   O8        1.0  0.68505  0.92183  0.24877  1.0000
  O   O9        1.0  0.37500  0.77056  0.24788  1.0000
  O   O10       1.0  0.62500  0.22944  0.74788  1.0000
  O   O11       1.0  0.12500  0.27056  0.74788  1.0000
  O   O12       1.0  0.87500  0.72944  0.24788  1.0000
  O   O13       1.0  0.06780  0.27376  0.38594  1.0000
  O   O14       1.0  0.93220  0.72624  0.88594  1.0000
  O   O15       1.0  0.43220  0.77376  0.88594  1.0000
  O   O16       1.0  0.56780  0.22624  0.38594  1.0000
  O   O17       1.0  0.44405  0.14250  0.16011  1.0000
  O   O18       1.0  0.55595  0.85750  0.66011  1.0000
  O   O19       1.0  0.05595  0.64250  0.66011  1.0000
  O   O20       1.0  0.94405  0.35750  0.16011  1.0000
  O   O21       1.0  0.48726  0.13739  0.96952  1.0000
  O   O22       1.0  0.51274  0.86261  0.46952  1.0000
  O   O23       1.0  0.01274  0.63739  0.46952  1.0000
  O   O24       1.0  0.98726  0.36261  0.96952  1.0000
  C   C1        1.0  0.46809  0.06340  0.06560  1.0000
  C   C2        1.0  0.53191  0.93660  0.56560  1.0000
  C   C3        1.0  0.03191  0.56340  0.56560  1.0000
  C   C4        1.0  0.96809  0.43660  0.06560  1.0000
  H   H1        1.0  0.47180  0.94300  0.06740  1.0000
  H   H2        1.0  0.52820  0.05700  0.56740  1.0000
  H   H3        1.0  0.02820  0.44300  0.56740  1.0000
  H   H4        1.0  0.97180  0.55700  0.06740  1.0000
  C   C5        1.0  0.23963  0.72371  0.27379  1.0000
  C   C6        1.0  0.76037  0.27629  0.77379  1.0000
  C   C7        1.0  0.26037  0.22371  0.77379  1.0000
  C   C8        1.0  0.73963  0.77629  0.27379  1.0000
  H   H5        1.0  0.17710  0.80160  0.31360  1.0000
  H   H6        1.0  0.82290  0.19840  0.81360  1.0000
  H   H7        1.0  0.32290  0.30160  0.81360  1.0000
  H   H8        1.0  0.67710  0.69840  0.31360  1.0000
  C   C9        1.0  0.18843  0.20970  0.34389  1.0000
  C   C10       1.0  0.81157  0.79030  0.84389  1.0000
  C   C11       1.0  0.31157  0.70970  0.84389  1.0000
  C   C12       1.0  0.68843  0.29030  0.34389  1.0000
  H   H9        1.0  0.22840  0.25960  0.27670  1.0000
  H   H10       1.0  0.77160  0.74040  0.77670  1.0000
  H   H11       1.0  0.27160  0.75960  0.77670  1.0000
  H   H12       1.0  0.72840  0.24040  0.27670  1.0000
