data_image0
_chemical_formula_structural       Mg2O12C6H6
_chemical_formula_sum              "Mg2 O12 C6 H6"
_cell_length_a       7.8798
_cell_length_b       7.8798
_cell_length_c       7.5682
_cell_angle_alpha    90
_cell_angle_beta     90
_cell_angle_gamma    120

_space_group_name_H-M_alt    "P 1"
_space_group_IT_number       1

loop_
  _space_group_symop_operation_xyz
  'x, y, z'

loop_
  _atom_site_type_symbol
  _atom_site_label
  _atom_site_symmetry_multiplicity
  _atom_site_fract_x
  _atom_site_fract_y
  _atom_site_fract_z
  _atom_site_occupancy
  Mg  Mg1       1.0  0.33330  0.66670  0.23208  1.0000
  Mg  Mg2       1.0  0.66660  0.33330  0.73208  1.0000
  O   O1        1.0  0.32024  0.44120  0.07915  1.0000
  O   O2        1.0  0.87904  0.32024  0.57915  1.0000
  O   O3        1.0  0.55880  0.87904  0.07915  1.0000
  O   O4        1.0  0.67976  0.55880  0.57915  1.0000
  O   O5        1.0  0.12096  0.67976  0.07915  1.0000
  O   O6        1.0  0.44120  0.12096  0.57915  1.0000
  O   O7        1.0  0.44111  0.32033  0.88454  1.0000
  O   O8        1.0  0.12078  0.44111  0.38454  1.0000
  O   O9        1.0  0.67967  0.12078  0.88454  1.0000
  O   O10       1.0  0.55889  0.67967  0.38454  1.0000
  O   O11       1.0  0.87922  0.55889  0.88454  1.0000
  O   O12       1.0  0.32033  0.87922  0.38454  1.0000
  C   C1        1.0  0.44820  0.44820  0.98220  1.0000
  C   C2        1.0  1.00000  0.44820  0.48220  1.0000
  C   C3        1.0  0.55180  0.00000  0.98220  1.0000
  C   C4        1.0  0.55180  0.55180  0.48220  1.0000
  C   C5        1.0  0.00000  0.55180  0.98220  1.0000
  C   C6        1.0  0.44820  0.00000  0.48220  1.0000
  H   H1        1.0  0.56640  0.56600  0.98260  1.0000
  H   H2        1.0  0.00040  0.56640  0.48260  1.0000
  H   H3        1.0  0.43400  0.00040  0.98260  1.0000
  H   H4        1.0  0.43360  0.43400  0.48260  1.0000
  H   H5        1.0  0.99960  0.43360  0.98260  1.0000
  H   H6        1.0  0.56600  0.99960  0.48260  1.0000
