data_image0
_chemical_formula_structural       Cd4O32C24H8C24H8C8H8C8H8
_chemical_formula_sum              "Cd4 O32 C64 H32"
_cell_length_a       15.5812
_cell_length_b       13.3064
_cell_length_c       15.4063
_cell_angle_alpha    90
_cell_angle_beta     96.319
_cell_angle_gamma    90

_space_group_name_H-M_alt    "P 1"
_space_group_IT_number       1

loop_
  _space_group_symop_operation_xyz
  'x, y, z'

loop_
  _atom_site_type_symbol
  _atom_site_label
  _atom_site_symmetry_multiplicity
  _atom_site_fract_x
  _atom_site_fract_y
  _atom_site_fract_z
  _atom_site_occupancy
  Cd  Cd1       1.0  0.00000  0.52127  0.25000  1.0000
  Cd  Cd2       1.0  0.50000  0.02127  0.25000  1.0000
  Cd  Cd3       1.0  0.00000  0.47873  0.75000  1.0000
  Cd  Cd4       1.0  0.50000  0.97873  0.75000  1.0000
  O   O1        1.0  0.08161  0.44217  0.36980  1.0000
  O   O2        1.0  0.58161  0.94217  0.36980  1.0000
  O   O3        1.0  0.91839  0.44217  0.13020  1.0000
  O   O4        1.0  0.41839  0.94217  0.13020  1.0000
  O   O5        1.0  0.91839  0.55783  0.63020  1.0000
  O   O6        1.0  0.41839  0.05783  0.63020  1.0000
  O   O7        1.0  0.08161  0.55783  0.86980  1.0000
  O   O8        1.0  0.58161  0.05783  0.86980  1.0000
  O   O9        1.0  0.11090  0.39440  0.24000  1.0000
  O   O10       1.0  0.61090  0.89440  0.24000  1.0000
  O   O11       1.0  0.88910  0.39440  0.26000  1.0000
  O   O12       1.0  0.38910  0.89440  0.26000  1.0000
  O   O13       1.0  0.88910  0.60560  0.76000  1.0000
  O   O14       1.0  0.38910  0.10560  0.76000  1.0000
  O   O15       1.0  0.11090  0.60560  0.74000  1.0000
  O   O16       1.0  0.61090  0.10560  0.74000  1.0000
  O   O17       1.0  0.35589  0.14390  0.22978  1.0000
  O   O18       1.0  0.85589  0.64390  0.22978  1.0000
  O   O19       1.0  0.64411  0.14390  0.27022  1.0000
  O   O20       1.0  0.14411  0.64390  0.27022  1.0000
  O   O21       1.0  0.64411  0.85610  0.77022  1.0000
  O   O22       1.0  0.14411  0.35610  0.77022  1.0000
  O   O23       1.0  0.35589  0.85610  0.72978  1.0000
  O   O24       1.0  0.85589  0.35610  0.72978  1.0000
  O   O25       1.0  0.44786  0.12355  0.34733  1.0000
  O   O26       1.0  0.94786  0.62355  0.34733  1.0000
  O   O27       1.0  0.55214  0.12355  0.15267  1.0000
  O   O28       1.0  0.05214  0.62355  0.15267  1.0000
  O   O29       1.0  0.55214  0.87645  0.65267  1.0000
  O   O30       1.0  0.05214  0.37645  0.65267  1.0000
  O   O31       1.0  0.44786  0.87645  0.84733  1.0000
  O   O32       1.0  0.94786  0.37645  0.84733  1.0000
  C   C1        1.0  0.12927  0.39770  0.32190  1.0000
  C   C2        1.0  0.62927  0.89770  0.32190  1.0000
  C   C3        1.0  0.87073  0.39770  0.17810  1.0000
  C   C4        1.0  0.37073  0.89770  0.17810  1.0000
  C   C5        1.0  0.87073  0.60230  0.67810  1.0000
  C   C6        1.0  0.37073  0.10230  0.67810  1.0000
  C   C7        1.0  0.12927  0.60230  0.82190  1.0000
  C   C8        1.0  0.62927  0.10230  0.82190  1.0000
  C   C9        1.0  0.21170  0.35090  0.36240  1.0000
  C   C10       1.0  0.71170  0.85090  0.36240  1.0000
  C   C11       1.0  0.78830  0.35090  0.13760  1.0000
  C   C12       1.0  0.28830  0.85090  0.13760  1.0000
  C   C13       1.0  0.78830  0.64910  0.63760  1.0000
  C   C14       1.0  0.28830  0.14910  0.63760  1.0000
  C   C15       1.0  0.21170  0.64910  0.86240  1.0000
  C   C16       1.0  0.71170  0.14910  0.86240  1.0000
  C   C17       1.0  0.25730  0.28250  0.31680  1.0000
  C   C18       1.0  0.75730  0.78250  0.31680  1.0000
  C   C19       1.0  0.74270  0.28250  0.18320  1.0000
  C   C20       1.0  0.24270  0.78250  0.18320  1.0000
  C   C21       1.0  0.74270  0.71750  0.68320  1.0000
  C   C22       1.0  0.24270  0.21750  0.68320  1.0000
  C   C23       1.0  0.25730  0.71750  0.81680  1.0000
  C   C24       1.0  0.75730  0.21750  0.81680  1.0000
  H   H1        1.0  0.23570  0.26350  0.26050  1.0000
  H   H2        1.0  0.73570  0.76350  0.26050  1.0000
  H   H3        1.0  0.76430  0.26350  0.23950  1.0000
  H   H4        1.0  0.26430  0.76350  0.23950  1.0000
  H   H5        1.0  0.76430  0.73650  0.73950  1.0000
  H   H6        1.0  0.26430  0.23650  0.73950  1.0000
  H   H7        1.0  0.23570  0.73650  0.76050  1.0000
  H   H8        1.0  0.73570  0.23650  0.76050  1.0000
  C   C25       1.0  0.33489  0.24230  0.35480  1.0000
  C   C26       1.0  0.83489  0.74230  0.35480  1.0000
  C   C27       1.0  0.66511  0.24230  0.14520  1.0000
  C   C28       1.0  0.16511  0.74230  0.14520  1.0000
  C   C29       1.0  0.66511  0.75770  0.64520  1.0000
  C   C30       1.0  0.16511  0.25770  0.64520  1.0000
  C   C31       1.0  0.33489  0.75770  0.85480  1.0000
  C   C32       1.0  0.83489  0.25770  0.85480  1.0000
  C   C33       1.0  0.38220  0.16490  0.30650  1.0000
  C   C34       1.0  0.88220  0.66490  0.30650  1.0000
  C   C35       1.0  0.61780  0.16490  0.19350  1.0000
  C   C36       1.0  0.11780  0.66490  0.19350  1.0000
  C   C37       1.0  0.61780  0.83510  0.69350  1.0000
  C   C38       1.0  0.11780  0.33510  0.69350  1.0000
  C   C39       1.0  0.38220  0.83510  0.80650  1.0000
  C   C40       1.0  0.88220  0.33510  0.80650  1.0000
  C   C41       1.0  0.36790  0.27390  0.43790  1.0000
  C   C42       1.0  0.86790  0.77390  0.43790  1.0000
  C   C43       1.0  0.63210  0.27390  0.06210  1.0000
  C   C44       1.0  0.13210  0.77390  0.06210  1.0000
  C   C45       1.0  0.63210  0.72610  0.56210  1.0000
  C   C46       1.0  0.13210  0.22610  0.56210  1.0000
  C   C47       1.0  0.36790  0.72610  0.93790  1.0000
  C   C48       1.0  0.86790  0.22610  0.93790  1.0000
  H   H9        1.0  0.42030  0.24820  0.46330  1.0000
  H   H10       1.0  0.92030  0.74820  0.46330  1.0000
  H   H11       1.0  0.57970  0.24820  0.03670  1.0000
  H   H12       1.0  0.07970  0.74820  0.03670  1.0000
  H   H13       1.0  0.57970  0.75180  0.53670  1.0000
  H   H14       1.0  0.07970  0.25180  0.53670  1.0000
  H   H15       1.0  0.42030  0.75180  0.96330  1.0000
  H   H16       1.0  0.92030  0.25180  0.96330  1.0000
  C   C49       1.0  0.32390  0.34310  0.48330  1.0000
  C   C50       1.0  0.82390  0.84310  0.48330  1.0000
  C   C51       1.0  0.67610  0.34310  0.01670  1.0000
  C   C52       1.0  0.17610  0.84310  0.01670  1.0000
  C   C53       1.0  0.67610  0.65690  0.51670  1.0000
  C   C54       1.0  0.17610  0.15690  0.51670  1.0000
  C   C55       1.0  0.32390  0.65690  0.98330  1.0000
  C   C56       1.0  0.82390  0.15690  0.98330  1.0000
  H   H17       1.0  0.34700  0.36490  0.53830  1.0000
  H   H18       1.0  0.84700  0.86490  0.53830  1.0000
  H   H19       1.0  0.65300  0.36490  0.96170  1.0000
  H   H20       1.0  0.15300  0.86490  0.96170  1.0000
  H   H21       1.0  0.65300  0.63510  0.46170  1.0000
  H   H22       1.0  0.15300  0.13510  0.46170  1.0000
  H   H23       1.0  0.34700  0.63510  0.03830  1.0000
  H   H24       1.0  0.84700  0.13510  0.03830  1.0000
  C   C57       1.0  0.24480  0.38000  0.44620  1.0000
  C   C58       1.0  0.74480  0.88000  0.44620  1.0000
  C   C59       1.0  0.75520  0.38000  0.05380  1.0000
  C   C60       1.0  0.25520  0.88000  0.05380  1.0000
  C   C61       1.0  0.75520  0.62000  0.55380  1.0000
  C   C62       1.0  0.25520  0.12000  0.55380  1.0000
  C   C63       1.0  0.24480  0.62000  0.94620  1.0000
  C   C64       1.0  0.74480  0.12000  0.94620  1.0000
  H   H25       1.0  0.21380  0.42440  0.47750  1.0000
  H   H26       1.0  0.71380  0.92440  0.47750  1.0000
  H   H27       1.0  0.78620  0.42440  0.02250  1.0000
  H   H28       1.0  0.28620  0.92440  0.02250  1.0000
  H   H29       1.0  0.78620  0.57560  0.52250  1.0000
  H   H30       1.0  0.28620  0.07560  0.52250  1.0000
  H   H31       1.0  0.21380  0.57560  0.97750  1.0000
  H   H32       1.0  0.71380  0.07560  0.97750  1.0000
