data_image0
_chemical_formula_structural       Cd8C16H8O24C24O8C8H8C8H8C16O16
_chemical_formula_sum              "Cd8 C72 H24 O48"
_cell_length_a       12.6139
_cell_length_b       15.7005
_cell_length_c       16.6473
_cell_angle_alpha    90
_cell_angle_beta     90
_cell_angle_gamma    90

_space_group_name_H-M_alt    "P 1"
_space_group_IT_number       1

loop_
  _space_group_symop_operation_xyz
  'x, y, z'

loop_
  _atom_site_type_symbol
  _atom_site_label
  _atom_site_symmetry_multiplicity
  _atom_site_fract_x
  _atom_site_fract_y
  _atom_site_fract_z
  _atom_site_occupancy
  Cd  Cd1       1.0  0.89942  0.00386  0.58115  1.0000
  Cd  Cd2       1.0  0.60058  0.99614  0.08115  1.0000
  Cd  Cd3       1.0  0.10058  0.50386  0.91885  1.0000
  Cd  Cd4       1.0  0.39942  0.49614  0.41885  1.0000
  Cd  Cd5       1.0  0.10058  0.99614  0.41885  1.0000
  Cd  Cd6       1.0  0.39942  0.00386  0.91885  1.0000
  Cd  Cd7       1.0  0.89942  0.49614  0.08115  1.0000
  Cd  Cd8       1.0  0.60058  0.50386  0.58115  1.0000
  C   C1        1.0  0.90338  0.26358  0.90928  1.0000
  C   C2        1.0  0.59662  0.73642  0.40928  1.0000
  C   C3        1.0  0.09662  0.76358  0.59072  1.0000
  C   C4        1.0  0.40338  0.23642  0.09072  1.0000
  C   C5        1.0  0.09662  0.73642  0.09072  1.0000
  C   C6        1.0  0.40338  0.26358  0.59072  1.0000
  C   C7        1.0  0.90338  0.23642  0.40928  1.0000
  C   C8        1.0  0.59662  0.76358  0.90928  1.0000
  C   C9        1.0  0.80388  0.08980  0.86693  1.0000
  C   C10       1.0  0.69612  0.91020  0.36693  1.0000
  C   C11       1.0  0.19612  0.58980  0.63307  1.0000
  C   C12       1.0  0.30388  0.41020  0.13307  1.0000
  C   C13       1.0  0.19612  0.91020  0.13307  1.0000
  C   C14       1.0  0.30388  0.08980  0.63307  1.0000
  C   C15       1.0  0.80388  0.41020  0.36693  1.0000
  C   C16       1.0  0.69612  0.58980  0.86693  1.0000
  H   H1        1.0  0.77420  0.03650  0.85780  1.0000
  H   H2        1.0  0.72580  0.96350  0.35780  1.0000
  H   H3        1.0  0.22580  0.53650  0.64220  1.0000
  H   H4        1.0  0.27420  0.46350  0.14220  1.0000
  H   H5        1.0  0.22580  0.96350  0.14220  1.0000
  H   H6        1.0  0.27420  0.03650  0.64220  1.0000
  H   H7        1.0  0.77420  0.46350  0.35780  1.0000
  H   H8        1.0  0.72580  0.53650  0.85780  1.0000
  O   O1        1.0  0.90817  0.13507  0.67619  1.0000
  O   O2        1.0  0.59183  0.86493  0.17619  1.0000
  O   O3        1.0  0.09183  0.63507  0.82381  1.0000
  O   O4        1.0  0.40817  0.36493  0.32381  1.0000
  O   O5        1.0  0.09183  0.86493  0.32381  1.0000
  O   O6        1.0  0.40817  0.13507  0.82381  1.0000
  O   O7        1.0  0.90817  0.36493  0.17619  1.0000
  O   O8        1.0  0.59183  0.63507  0.67619  1.0000
  O   O9        1.0  0.97377  0.37538  0.00314  1.0000
  O   O10       1.0  0.52623  0.62462  0.50314  1.0000
  O   O11       1.0  0.02623  0.87538  0.49686  1.0000
  O   O12       1.0  0.47377  0.12462  0.99686  1.0000
  O   O13       1.0  0.02623  0.62462  0.99686  1.0000
  O   O14       1.0  0.47377  0.37538  0.49686  1.0000
  O   O15       1.0  0.97377  0.12462  0.50314  1.0000
  O   O16       1.0  0.52623  0.87538  0.00314  1.0000
  O   O17       1.0  0.99608  0.40238  0.87339  1.0000
  O   O18       1.0  0.50392  0.59762  0.37339  1.0000
  O   O19       1.0  0.00392  0.90238  0.62661  1.0000
  O   O20       1.0  0.49608  0.09762  0.12661  1.0000
  O   O21       1.0  0.00392  0.59762  0.12661  1.0000
  O   O22       1.0  0.49608  0.40238  0.62661  1.0000
  O   O23       1.0  0.99608  0.09762  0.37339  1.0000
  O   O24       1.0  0.50392  0.90238  0.87339  1.0000
  C   C17       1.0  0.85954  0.13297  0.81125  1.0000
  C   C18       1.0  0.64046  0.86703  0.31125  1.0000
  C   C19       1.0  0.14046  0.63297  0.68875  1.0000
  C   C20       1.0  0.35954  0.36703  0.18875  1.0000
  C   C21       1.0  0.14046  0.86703  0.18875  1.0000
  C   C22       1.0  0.35954  0.13297  0.68875  1.0000
  C   C23       1.0  0.85954  0.36703  0.31125  1.0000
  C   C24       1.0  0.64046  0.63297  0.81125  1.0000
  C   C25       1.0  0.96079  0.35424  0.93098  1.0000
  C   C26       1.0  0.53921  0.64576  0.43098  1.0000
  C   C27       1.0  0.03921  0.85424  0.56902  1.0000
  C   C28       1.0  0.46079  0.14576  0.06902  1.0000
  C   C29       1.0  0.03921  0.64576  0.06902  1.0000
  C   C30       1.0  0.46079  0.35424  0.56902  1.0000
  C   C31       1.0  0.96079  0.14576  0.43098  1.0000
  C   C32       1.0  0.53921  0.85424  0.93098  1.0000
  C   C33       1.0  0.86754  0.08401  0.72909  1.0000
  C   C34       1.0  0.63246  0.91599  0.22909  1.0000
  C   C35       1.0  0.13246  0.58401  0.77091  1.0000
  C   C36       1.0  0.36754  0.41599  0.27091  1.0000
  C   C37       1.0  0.13246  0.91599  0.27091  1.0000
  C   C38       1.0  0.36754  0.08401  0.77091  1.0000
  C   C39       1.0  0.86754  0.41599  0.22909  1.0000
  C   C40       1.0  0.63246  0.58401  0.72909  1.0000
  O   O25       1.0  0.70677  0.14232  0.05872  1.0000
  O   O26       1.0  0.79323  0.85768  0.55872  1.0000
  O   O27       1.0  0.29323  0.64232  0.44128  1.0000
  O   O28       1.0  0.20677  0.35768  0.94128  1.0000
  O   O29       1.0  0.29323  0.85768  0.94128  1.0000
  O   O30       1.0  0.20677  0.14232  0.44128  1.0000
  O   O31       1.0  0.70677  0.35768  0.55872  1.0000
  O   O32       1.0  0.79323  0.64232  0.05872  1.0000
  C   C41       1.0  0.84576  0.22031  0.96408  1.0000
  C   C42       1.0  0.65424  0.77969  0.46408  1.0000
  C   C43       1.0  0.15424  0.72031  0.53592  1.0000
  C   C44       1.0  0.34576  0.27969  0.03592  1.0000
  C   C45       1.0  0.15424  0.77969  0.03592  1.0000
  C   C46       1.0  0.34576  0.22031  0.53592  1.0000
  C   C47       1.0  0.84576  0.27969  0.46408  1.0000
  C   C48       1.0  0.65424  0.72031  0.96408  1.0000
  H   H9        1.0  0.83690  0.24270  0.01540  1.0000
  H   H10       1.0  0.66310  0.75730  0.51540  1.0000
  H   H11       1.0  0.16310  0.74270  0.48460  1.0000
  H   H12       1.0  0.33690  0.25730  0.98460  1.0000
  H   H13       1.0  0.16310  0.75730  0.98460  1.0000
  H   H14       1.0  0.33690  0.24270  0.48460  1.0000
  H   H15       1.0  0.83690  0.25730  0.51540  1.0000
  H   H16       1.0  0.66310  0.74270  0.01540  1.0000
  C   C49       1.0  0.90788  0.21918  0.83267  1.0000
  C   C50       1.0  0.59212  0.78082  0.33267  1.0000
  C   C51       1.0  0.09212  0.71918  0.66733  1.0000
  C   C52       1.0  0.40788  0.28082  0.16733  1.0000
  C   C53       1.0  0.09212  0.78082  0.16733  1.0000
  C   C54       1.0  0.40788  0.21918  0.66733  1.0000
  C   C55       1.0  0.90788  0.28082  0.33267  1.0000
  C   C56       1.0  0.59212  0.71918  0.83267  1.0000
  H   H17       1.0  0.94470  0.24660  0.79180  1.0000
  H   H18       1.0  0.55530  0.75340  0.29180  1.0000
  H   H19       1.0  0.05530  0.74660  0.70820  1.0000
  H   H20       1.0  0.44470  0.25340  0.20820  1.0000
  H   H21       1.0  0.05530  0.75340  0.20820  1.0000
  H   H22       1.0  0.44470  0.24660  0.70820  1.0000
  H   H23       1.0  0.94470  0.25340  0.29180  1.0000
  H   H24       1.0  0.55530  0.74660  0.79180  1.0000
  C   C57       1.0  0.79502  0.13510  0.94269  1.0000
  C   C58       1.0  0.70498  0.86490  0.44269  1.0000
  C   C59       1.0  0.20498  0.63510  0.55731  1.0000
  C   C60       1.0  0.29502  0.36490  0.05731  1.0000
  C   C61       1.0  0.20498  0.86490  0.05731  1.0000
  C   C62       1.0  0.29502  0.13510  0.55731  1.0000
  C   C63       1.0  0.79502  0.36490  0.44269  1.0000
  C   C64       1.0  0.70498  0.63510  0.94269  1.0000
  C   C65       1.0  0.72928  0.08998  0.99974  1.0000
  C   C66       1.0  0.77072  0.91002  0.49974  1.0000
  C   C67       1.0  0.27072  0.58998  0.50026  1.0000
  C   C68       1.0  0.22928  0.41002  0.00026  1.0000
  C   C69       1.0  0.27072  0.91002  0.00026  1.0000
  C   C70       1.0  0.22928  0.08998  0.50026  1.0000
  C   C71       1.0  0.72928  0.41002  0.49974  1.0000
  C   C72       1.0  0.77072  0.58998  0.99974  1.0000
  O   O33       1.0  0.83468  0.99731  0.71499  1.0000
  O   O34       1.0  0.66532  0.00269  0.21499  1.0000
  O   O35       1.0  0.16532  0.49731  0.78501  1.0000
  O   O36       1.0  0.33468  0.50269  0.28501  1.0000
  O   O37       1.0  0.16532  0.00269  0.28501  1.0000
  O   O38       1.0  0.33468  0.99731  0.78501  1.0000
  O   O39       1.0  0.83468  0.50269  0.21499  1.0000
  O   O40       1.0  0.66532  0.49731  0.71499  1.0000
  O   O41       1.0  0.69655  0.00315  0.98289  1.0000
  O   O42       1.0  0.80345  0.99685  0.48289  1.0000
  O   O43       1.0  0.30345  0.50315  0.51711  1.0000
  O   O44       1.0  0.19655  0.49685  0.01711  1.0000
  O   O45       1.0  0.30345  0.99685  0.01711  1.0000
  O   O46       1.0  0.19655  0.00315  0.51711  1.0000
  O   O47       1.0  0.69655  0.49685  0.48289  1.0000
  O   O48       1.0  0.80345  0.50315  0.98289  1.0000
