data_image0
_chemical_formula_structural       Cd4C4H2C4H2C4H2C6O12Cl4
_chemical_formula_sum              "Cd4 C18 H6 O12 Cl4"
_cell_length_a       9.3803
_cell_length_b       10.1395
_cell_length_c       10.9816
_cell_angle_alpha    87.659
_cell_angle_beta     81.273
_cell_angle_gamma    63.599

_space_group_name_H-M_alt    "P 1"
_space_group_IT_number       1

loop_
  _space_group_symop_operation_xyz
  'x, y, z'

loop_
  _atom_site_type_symbol
  _atom_site_label
  _atom_site_symmetry_multiplicity
  _atom_site_fract_x
  _atom_site_fract_y
  _atom_site_fract_z
  _atom_site_occupancy
  Cd  Cd1       1.0  0.20189  0.37602  0.37999  1.0000
  Cd  Cd2       1.0  0.79811  0.62398  0.62001  1.0000
  Cd  Cd3       1.0  0.40147  0.10063  0.15032  1.0000
  Cd  Cd4       1.0  0.59854  0.89937  0.84968  1.0000
  C   C1        1.0  0.97216  0.06691  0.34456  1.0000
  C   C2        1.0  0.02784  0.93309  0.65544  1.0000
  C   C3        1.0  0.02899  0.91501  0.34987  1.0000
  C   C4        1.0  0.97101  0.08499  0.65013  1.0000
  H   H1        1.0  0.14040  0.85380  0.33680  1.0000
  H   H2        1.0  0.85960  0.14620  0.66320  1.0000
  C   C5        1.0  0.92212  0.85260  0.37436  1.0000
  C   C6        1.0  0.07788  0.14740  0.62564  1.0000
  C   C7        1.0  0.75657  0.94353  0.38615  1.0000
  C   C8        1.0  0.24343  0.05647  0.61385  1.0000
  H   H3        1.0  0.68390  0.90200  0.39880  1.0000
  H   H4        1.0  0.31610  0.09800  0.60120  1.0000
  C   C9        1.0  0.69931  0.09563  0.37913  1.0000
  C   C10       1.0  0.30069  0.90437  0.62087  1.0000
  C   C11       1.0  0.80733  0.15757  0.36346  1.0000
  C   C12       1.0  0.19267  0.84243  0.63654  1.0000
  H   H5        1.0  0.76850  0.26050  0.36570  1.0000
  H   H6        1.0  0.23150  0.73950  0.63430  1.0000
  C   C13       1.0  0.09148  0.12950  0.31092  1.0000
  C   C14       1.0  0.90852  0.87050  0.68908  1.0000
  C   C15       1.0  0.98678  0.68901  0.38585  1.0000
  C   C16       1.0  0.01322  0.31099  0.61415  1.0000
  C   C17       1.0  0.52289  0.19233  0.38266  1.0000
  C   C18       1.0  0.47711  0.80767  0.61734  1.0000
  O   O1        1.0  0.21803  0.04463  0.24434  1.0000
  O   O2        1.0  0.78197  0.95537  0.75566  1.0000
  O   O3        1.0  0.05511  0.25630  0.34903  1.0000
  O   O4        1.0  0.94489  0.74370  0.65097  1.0000
  O   O5        1.0  0.89057  0.63273  0.41712  1.0000
  O   O6        1.0  0.10943  0.36727  0.58288  1.0000
  O   O7        1.0  0.13660  0.61285  0.36056  1.0000
  O   O8        1.0  0.86340  0.38715  0.63944  1.0000
  O   O9        1.0  0.46400  0.32602  0.41155  1.0000
  O   O10       1.0  0.53600  0.67398  0.58845  1.0000
  O   O11       1.0  0.43587  0.13482  0.35384  1.0000
  O   O12       1.0  0.56413  0.86518  0.64616  1.0000
  Cl  Cl1       1.0  0.29976  0.37051  0.12957  1.0000
  Cl  Cl2       1.0  0.70024  0.62949  0.87043  1.0000
  Cl  Cl3       1.0  0.68164  0.94563  0.06398  1.0000
  Cl  Cl4       1.0  0.31836  0.05437  0.93602  1.0000
