data_image0
_chemical_formula_structural       Co2O12C6H6
_chemical_formula_sum              "Co2 O12 C6 H6"
_cell_length_a       7.9157
_cell_length_b       7.9157
_cell_length_c       7.4836
_cell_angle_alpha    90
_cell_angle_beta     90
_cell_angle_gamma    120

_space_group_name_H-M_alt    "P 1"
_space_group_IT_number       1

loop_
  _space_group_symop_operation_xyz
  'x, y, z'

loop_
  _atom_site_type_symbol
  _atom_site_label
  _atom_site_symmetry_multiplicity
  _atom_site_fract_x
  _atom_site_fract_y
  _atom_site_fract_z
  _atom_site_occupancy
  Co  Co1       1.0  0.33330  0.66670  0.26906  1.0000
  Co  Co2       1.0  0.66660  0.33330  0.76906  1.0000
  O   O1        1.0  0.31590  0.43760  0.42257  1.0000
  O   O2        1.0  0.87830  0.31590  0.92257  1.0000
  O   O3        1.0  0.56240  0.87830  0.42257  1.0000
  O   O4        1.0  0.68410  0.56240  0.92257  1.0000
  O   O5        1.0  0.12170  0.68410  0.42257  1.0000
  O   O6        1.0  0.43760  0.12170  0.92257  1.0000
  O   O7        1.0  0.43770  0.31590  0.61523  1.0000
  O   O8        1.0  0.12180  0.43770  0.11523  1.0000
  O   O9        1.0  0.68410  0.12180  0.61523  1.0000
  O   O10       1.0  0.56230  0.68410  0.11523  1.0000
  O   O11       1.0  0.87820  0.56230  0.61523  1.0000
  O   O12       1.0  0.31590  0.87820  0.11523  1.0000
  C   C1        1.0  0.44710  0.44720  0.51850  1.0000
  C   C2        1.0  0.99990  0.44710  0.01850  1.0000
  C   C3        1.0  0.55280  0.99990  0.51850  1.0000
  C   C4        1.0  0.55290  0.55280  0.01850  1.0000
  C   C5        1.0  0.00010  0.55290  0.51850  1.0000
  C   C6        1.0  0.44720  0.00010  0.01850  1.0000
  H   H1        1.0  0.56460  0.56460  0.51810  1.0000
  H   H2        1.0  0.00000  0.56460  0.01810  1.0000
  H   H3        1.0  0.43540  0.00000  0.51810  1.0000
  H   H4        1.0  0.43540  0.43540  0.01810  1.0000
  H   H5        1.0  0.00000  0.43540  0.51810  1.0000
  H   H6        1.0  0.56460  0.00000  0.01810  1.0000
