data_image0
_chemical_formula_structural       Co4O4C4H4O8C4H4O8C4H4O4
_chemical_formula_sum              "Co4 O24 C12 H12"
_cell_length_a       8.6505
_cell_length_b       7.7272
_cell_length_c       11.4884
_cell_angle_alpha    90
_cell_angle_beta     90
_cell_angle_gamma    90

_space_group_name_H-M_alt    "P 1"
_space_group_IT_number       1

loop_
  _space_group_symop_operation_xyz
  'x, y, z'

loop_
  _atom_site_type_symbol
  _atom_site_label
  _atom_site_symmetry_multiplicity
  _atom_site_fract_x
  _atom_site_fract_y
  _atom_site_fract_z
  _atom_site_occupancy
  Co  Co1       1.0  0.52872  0.50023  0.51388  1.0000
  Co  Co2       1.0  0.47128  0.49977  0.01388  1.0000
  Co  Co3       1.0  0.97128  0.00023  0.01388  1.0000
  Co  Co4       1.0  0.02872  0.99977  0.51388  1.0000
  O   O1        1.0  0.55350  0.64140  0.66820  1.0000
  O   O2        1.0  0.44650  0.35860  0.16820  1.0000
  O   O3        1.0  0.94650  0.14140  0.16820  1.0000
  O   O4        1.0  0.05350  0.85860  0.66820  1.0000
  C   C1        1.0  0.53040  0.56400  0.76340  1.0000
  C   C2        1.0  0.46960  0.43600  0.26340  1.0000
  C   C3        1.0  0.96960  0.06400  0.26340  1.0000
  C   C4        1.0  0.03040  0.93600  0.76340  1.0000
  H   H1        1.0  0.52725  0.44110  0.76208  1.0000
  H   H2        1.0  0.47275  0.55890  0.26208  1.0000
  H   H3        1.0  0.97275  0.94110  0.26208  1.0000
  H   H4        1.0  0.02725  0.05890  0.76208  1.0000
  O   O5        1.0  0.51130  0.63730  0.85900  1.0000
  O   O6        1.0  0.48870  0.36270  0.35900  1.0000
  O   O7        1.0  0.98870  0.13730  0.35900  1.0000
  O   O8        1.0  0.01130  0.86270  0.85900  1.0000
  O   O9        1.0  0.43240  0.72610  0.44280  1.0000
  O   O10       1.0  0.56760  0.27390  0.94280  1.0000
  O   O11       1.0  0.06760  0.22610  0.94280  1.0000
  O   O12       1.0  0.93240  0.77390  0.44280  1.0000
  C   C5        1.0  0.31060  0.78930  0.48380  1.0000
  C   C6        1.0  0.68940  0.21070  0.98380  1.0000
  C   C7        1.0  0.18940  0.28930  0.98380  1.0000
  C   C8        1.0  0.81060  0.71070  0.48380  1.0000
  H   H5        1.0  0.26822  0.73710  0.55156  1.0000
  H   H6        1.0  0.73178  0.26290  0.05156  1.0000
  H   H7        1.0  0.23178  0.23710  0.05156  1.0000
  H   H8        1.0  0.76822  0.76290  0.55156  1.0000
  O   O13       1.0  0.24050  0.91790  0.44120  1.0000
  O   O14       1.0  0.75950  0.08210  0.94120  1.0000
  O   O15       1.0  0.25950  0.41790  0.94120  1.0000
  O   O16       1.0  0.74050  0.58210  0.44120  1.0000
  O   O17       1.0  0.31370  0.42120  0.57950  1.0000
  O   O18       1.0  0.68630  0.57880  0.07950  1.0000
  O   O19       1.0  0.18630  0.92120  0.07950  1.0000
  O   O20       1.0  0.81370  0.07880  0.57950  1.0000
  C   C9        1.0  0.25840  0.27640  0.55330  1.0000
  C   C10       1.0  0.74160  0.72360  0.05330  1.0000
  C   C11       1.0  0.24160  0.77640  0.05330  1.0000
  C   C12       1.0  0.75840  0.22360  0.55330  1.0000
  H   H9        1.0  0.32126  0.19800  0.51075  1.0000
  H   H10       1.0  0.67874  0.80200  0.01075  1.0000
  H   H11       1.0  0.17874  0.69800  0.01075  1.0000
  H   H12       1.0  0.82126  0.30200  0.51075  1.0000
  O   O21       1.0  0.12350  0.22940  0.58060  1.0000
  O   O22       1.0  0.87650  0.77060  0.08060  1.0000
  O   O23       1.0  0.37650  0.72940  0.08060  1.0000
  O   O24       1.0  0.62350  0.27060  0.58060  1.0000
