data_image0
_chemical_formula_structural       Co4O24C4H4C8H8
_chemical_formula_sum              "Co4 O24 C12 H12"
_cell_length_a       8.5725
_cell_length_b       11.6308
_cell_length_c       7.8437
_cell_angle_alpha    90
_cell_angle_beta     90
_cell_angle_gamma    90

_space_group_name_H-M_alt    "P 1"
_space_group_IT_number       1

loop_
  _space_group_symop_operation_xyz
  'x, y, z'

loop_
  _atom_site_type_symbol
  _atom_site_label
  _atom_site_symmetry_multiplicity
  _atom_site_fract_x
  _atom_site_fract_y
  _atom_site_fract_z
  _atom_site_occupancy
  Co  Co1       1.0  0.50000  0.50000  0.50000  1.0000
  Co  Co2       1.0  0.00000  0.50000  0.00000  1.0000
  Co  Co3       1.0  0.50000  0.00000  0.50000  1.0000
  Co  Co4       1.0  0.00000  0.00000  0.00000  1.0000
  O   O1        1.0  0.40427  0.56764  0.27461  1.0000
  O   O2        1.0  0.09573  0.43236  0.77461  1.0000
  O   O3        1.0  0.59573  0.06764  0.72539  1.0000
  O   O4        1.0  0.90427  0.93236  0.22539  1.0000
  O   O5        1.0  0.59573  0.43236  0.72539  1.0000
  O   O6        1.0  0.90427  0.56764  0.22539  1.0000
  O   O7        1.0  0.40427  0.93236  0.27461  1.0000
  O   O8        1.0  0.09573  0.06764  0.77461  1.0000
  O   O9        1.0  0.53164  0.34463  0.36727  1.0000
  O   O10       1.0  0.96836  0.65537  0.86727  1.0000
  O   O11       1.0  0.46836  0.84463  0.63273  1.0000
  O   O12       1.0  0.03164  0.15537  0.13273  1.0000
  O   O13       1.0  0.46836  0.65537  0.63273  1.0000
  O   O14       1.0  0.03164  0.34463  0.13273  1.0000
  O   O15       1.0  0.53164  0.15537  0.36727  1.0000
  O   O16       1.0  0.96836  0.84463  0.86727  1.0000
  O   O17       1.0  0.21719  0.56512  0.08168  1.0000
  O   O18       1.0  0.28281  0.43488  0.58168  1.0000
  O   O19       1.0  0.78281  0.06512  0.91832  1.0000
  O   O20       1.0  0.71719  0.93488  0.41832  1.0000
  O   O21       1.0  0.78281  0.43488  0.91832  1.0000
  O   O22       1.0  0.71719  0.56512  0.41832  1.0000
  O   O23       1.0  0.21719  0.93488  0.08168  1.0000
  O   O24       1.0  0.28281  0.06512  0.58168  1.0000
  C   C1        1.0  0.52320  0.25000  0.44050  1.0000
  C   C2        1.0  0.97680  0.75000  0.94050  1.0000
  C   C3        1.0  0.47680  0.75000  0.55950  1.0000
  C   C4        1.0  0.02320  0.25000  0.05950  1.0000
  H   H1        1.0  0.50958  0.25000  0.55816  1.0000
  H   H2        1.0  0.99042  0.75000  0.05816  1.0000
  H   H3        1.0  0.49042  0.75000  0.44184  1.0000
  H   H4        1.0  0.00958  0.25000  0.94184  1.0000
  C   C5        1.0  0.28010  0.53124  0.21500  1.0000
  C   C6        1.0  0.21990  0.46876  0.71500  1.0000
  C   C7        1.0  0.71990  0.03124  0.78500  1.0000
  C   C8        1.0  0.78010  0.96876  0.28500  1.0000
  C   C9        1.0  0.71990  0.46876  0.78500  1.0000
  C   C10       1.0  0.78010  0.53124  0.28500  1.0000
  C   C11       1.0  0.28010  0.96876  0.21500  1.0000
  C   C12       1.0  0.21990  0.03124  0.71500  1.0000
  H   H5        1.0  0.22944  0.47343  0.27538  1.0000
  H   H6        1.0  0.27056  0.52657  0.77538  1.0000
  H   H7        1.0  0.77056  0.97343  0.72462  1.0000
  H   H8        1.0  0.72944  0.02657  0.22462  1.0000
  H   H9        1.0  0.77056  0.52657  0.72462  1.0000
  H   H10       1.0  0.72944  0.47343  0.22462  1.0000
  H   H11       1.0  0.22944  0.02657  0.27538  1.0000
  H   H12       1.0  0.27056  0.97343  0.77538  1.0000
