data_image0
_chemical_formula_structural       Co4O24C4H4C4H4C4H4
_chemical_formula_sum              "Co4 O24 C12 H12"
_cell_length_a       7.9435
_cell_length_b       13.8339
_cell_length_c       7.3016
_cell_angle_alpha    90
_cell_angle_beta     90
_cell_angle_gamma    90

_space_group_name_H-M_alt    "P 1"
_space_group_IT_number       1

loop_
  _space_group_symop_operation_xyz
  'x, y, z'

loop_
  _atom_site_type_symbol
  _atom_site_label
  _atom_site_symmetry_multiplicity
  _atom_site_fract_x
  _atom_site_fract_y
  _atom_site_fract_z
  _atom_site_occupancy
  Co  Co1       1.0  0.21919  0.33541  0.75969  1.0000
  Co  Co2       1.0  0.28081  0.66459  0.25969  1.0000
  Co  Co3       1.0  0.78081  0.83541  0.74031  1.0000
  Co  Co4       1.0  0.71919  0.16459  0.24031  1.0000
  O   O1        1.0  0.10451  0.22848  0.60839  1.0000
  O   O2        1.0  0.39549  0.77152  0.10839  1.0000
  O   O3        1.0  0.89549  0.72848  0.89161  1.0000
  O   O4        1.0  0.60451  0.27152  0.39161  1.0000
  O   O5        1.0  0.92571  0.16384  0.41139  1.0000
  O   O6        1.0  0.57429  0.83616  0.91139  1.0000
  O   O7        1.0  0.07429  0.66384  0.08861  1.0000
  O   O8        1.0  0.42571  0.33616  0.58861  1.0000
  O   O9        1.0  0.30674  0.21147  0.90291  1.0000
  O   O10       1.0  0.19326  0.78853  0.40291  1.0000
  O   O11       1.0  0.69326  0.71147  0.59709  1.0000
  O   O12       1.0  0.80674  0.28853  0.09709  1.0000
  O   O13       1.0  0.50341  0.14450  0.07831  1.0000
  O   O14       1.0  0.99659  0.85550  0.57831  1.0000
  O   O15       1.0  0.49659  0.64450  0.42169  1.0000
  O   O16       1.0  0.00341  0.35550  0.92169  1.0000
  O   O17       1.0  0.11168  0.45314  0.61960  1.0000
  O   O18       1.0  0.38832  0.54686  0.11960  1.0000
  O   O19       1.0  0.88832  0.95314  0.88040  1.0000
  O   O20       1.0  0.61168  0.04686  0.38040  1.0000
  O   O21       1.0  0.13201  0.57273  0.41822  1.0000
  O   O22       1.0  0.36799  0.42727  0.91822  1.0000
  O   O23       1.0  0.86799  0.07273  0.08178  1.0000
  O   O24       1.0  0.63201  0.92727  0.58178  1.0000
  C   C1        1.0  0.98440  0.23405  0.49870  1.0000
  C   C2        1.0  0.51560  0.76595  0.99870  1.0000
  C   C3        1.0  0.01560  0.73405  0.00130  1.0000
  C   C4        1.0  0.48440  0.26595  0.50130  1.0000
  H   H1        1.0  0.93420  0.29560  0.48020  1.0000
  H   H2        1.0  0.56580  0.70440  0.98020  1.0000
  H   H3        1.0  0.06580  0.79560  0.01980  1.0000
  H   H4        1.0  0.43420  0.20440  0.51980  1.0000
  C   C5        1.0  0.44280  0.21412  0.99100  1.0000
  C   C6        1.0  0.05720  0.78588  0.49100  1.0000
  C   C7        1.0  0.55720  0.71412  0.50900  1.0000
  C   C8        1.0  0.94280  0.28588  0.00900  1.0000
  H   H5        1.0  0.50380  0.27320  0.99120  1.0000
  H   H6        1.0  0.99620  0.72680  0.49120  1.0000
  H   H7        1.0  0.49620  0.77320  0.50880  1.0000
  H   H8        1.0  0.00380  0.22680  0.00880  1.0000
  C   C9        1.0  0.19410  0.50501  0.50940  1.0000
  C   C10       1.0  0.30590  0.49499  0.00940  1.0000
  C   C11       1.0  0.80590  0.00501  0.99060  1.0000
  C   C12       1.0  0.69410  0.99499  0.49060  1.0000
  H   H9        1.0  0.31070  0.49180  0.49470  1.0000
  H   H10       1.0  0.18930  0.50820  0.99470  1.0000
  H   H11       1.0  0.68930  0.99180  0.00530  1.0000
  H   H12       1.0  0.81070  0.00820  0.50530  1.0000
