data_image0
_chemical_formula_structural       In4S8O32C16H8C8H8C24
_chemical_formula_sum              "In4 S8 O32 C48 H16"
_cell_length_a       13.577
_cell_length_b       13.577
_cell_length_c       15.5394
_cell_angle_alpha    90
_cell_angle_beta     90
_cell_angle_gamma    90

_space_group_name_H-M_alt    "P 1"
_space_group_IT_number       1

loop_
  _space_group_symop_operation_xyz
  'x, y, z'

loop_
  _atom_site_type_symbol
  _atom_site_label
  _atom_site_symmetry_multiplicity
  _atom_site_fract_x
  _atom_site_fract_y
  _atom_site_fract_z
  _atom_site_occupancy
  In  In1       1.0  0.42385  0.00000  0.25000  1.0000
  In  In2       1.0  0.57615  0.00000  0.75000  1.0000
  In  In3       1.0  0.00000  0.42385  0.50000  1.0000
  In  In4       1.0  0.00000  0.57615  0.00000  1.0000
  S   S1        1.0  0.22330  0.28496  0.10754  1.0000
  S   S2        1.0  0.77670  0.71504  0.60754  1.0000
  S   S3        1.0  0.71504  0.22330  0.35754  1.0000
  S   S4        1.0  0.28496  0.77670  0.85754  1.0000
  S   S5        1.0  0.77670  0.28496  0.89246  1.0000
  S   S6        1.0  0.22330  0.71504  0.39246  1.0000
  S   S7        1.0  0.28496  0.22330  0.64246  1.0000
  S   S8        1.0  0.71504  0.77670  0.14246  1.0000
  O   O1        1.0  0.30670  0.10520  0.29030  1.0000
  O   O2        1.0  0.69330  0.89480  0.79030  1.0000
  O   O3        1.0  0.89480  0.30670  0.54030  1.0000
  O   O4        1.0  0.10520  0.69330  0.04030  1.0000
  O   O5        1.0  0.69330  0.10520  0.70970  1.0000
  O   O6        1.0  0.30670  0.89480  0.20970  1.0000
  O   O7        1.0  0.10520  0.30670  0.45970  1.0000
  O   O8        1.0  0.89480  0.69330  0.95970  1.0000
  O   O9        1.0  0.35290  0.11490  0.15600  1.0000
  O   O10       1.0  0.64710  0.88510  0.65600  1.0000
  O   O11       1.0  0.88510  0.35290  0.40600  1.0000
  O   O12       1.0  0.11490  0.64710  0.90600  1.0000
  O   O13       1.0  0.64710  0.11490  0.84400  1.0000
  O   O14       1.0  0.35290  0.88510  0.34400  1.0000
  O   O15       1.0  0.11490  0.35290  0.59400  1.0000
  O   O16       1.0  0.88510  0.64710  0.09400  1.0000
  O   O17       1.0  0.02620  0.49700  0.12330  1.0000
  O   O18       1.0  0.97380  0.50300  0.62330  1.0000
  O   O19       1.0  0.50300  0.02620  0.37330  1.0000
  O   O20       1.0  0.49700  0.97380  0.87330  1.0000
  O   O21       1.0  0.97380  0.49700  0.87670  1.0000
  O   O22       1.0  0.02620  0.50300  0.37670  1.0000
  O   O23       1.0  0.49700  0.02620  0.62670  1.0000
  O   O24       1.0  0.50300  0.97380  0.12670  1.0000
  O   O25       1.0  0.12070  0.45310  0.01550  1.0000
  O   O26       1.0  0.87930  0.54690  0.51550  1.0000
  O   O27       1.0  0.54690  0.12070  0.26550  1.0000
  O   O28       1.0  0.45310  0.87930  0.76550  1.0000
  O   O29       1.0  0.87930  0.45310  0.98450  1.0000
  O   O30       1.0  0.12070  0.54690  0.48450  1.0000
  O   O31       1.0  0.45310  0.12070  0.73450  1.0000
  O   O32       1.0  0.54690  0.87930  0.23450  1.0000
  C   C1        1.0  0.23000  0.22490  0.20360  1.0000
  C   C2        1.0  0.77000  0.77510  0.70360  1.0000
  C   C3        1.0  0.77510  0.23000  0.45360  1.0000
  C   C4        1.0  0.22490  0.77000  0.95360  1.0000
  C   C5        1.0  0.77000  0.22490  0.79640  1.0000
  C   C6        1.0  0.23000  0.77510  0.29640  1.0000
  C   C7        1.0  0.22490  0.23000  0.54640  1.0000
  C   C8        1.0  0.77510  0.77000  0.04640  1.0000
  C   C9        1.0  0.16520  0.26250  0.26270  1.0000
  C   C10       1.0  0.83480  0.73750  0.76270  1.0000
  C   C11       1.0  0.73750  0.16520  0.51270  1.0000
  C   C12       1.0  0.26250  0.83480  0.01270  1.0000
  C   C13       1.0  0.83480  0.26250  0.73730  1.0000
  C   C14       1.0  0.16520  0.73750  0.23730  1.0000
  C   C15       1.0  0.26250  0.16520  0.48730  1.0000
  C   C16       1.0  0.73750  0.83480  0.98730  1.0000
  H   H1        1.0  0.15540  0.23680  0.31750  1.0000
  H   H2        1.0  0.84460  0.76320  0.81750  1.0000
  H   H3        1.0  0.76320  0.15540  0.56750  1.0000
  H   H4        1.0  0.23680  0.84460  0.06750  1.0000
  H   H5        1.0  0.84460  0.23680  0.68250  1.0000
  H   H6        1.0  0.15540  0.76320  0.18250  1.0000
  H   H7        1.0  0.23680  0.15540  0.43250  1.0000
  H   H8        1.0  0.76320  0.84460  0.93250  1.0000
  C   C17       1.0  0.11500  0.34570  0.22930  1.0000
  C   C18       1.0  0.88500  0.65430  0.72930  1.0000
  C   C19       1.0  0.65430  0.11500  0.47930  1.0000
  C   C20       1.0  0.34570  0.88500  0.97930  1.0000
  C   C21       1.0  0.88500  0.34570  0.77070  1.0000
  C   C22       1.0  0.11500  0.65430  0.27070  1.0000
  C   C23       1.0  0.34570  0.11500  0.52070  1.0000
  C   C24       1.0  0.65430  0.88500  0.02070  1.0000
  H   H9        1.0  0.07150  0.38360  0.26150  1.0000
  H   H10       1.0  0.92850  0.61640  0.76150  1.0000
  H   H11       1.0  0.61640  0.07150  0.51150  1.0000
  H   H12       1.0  0.38360  0.92850  0.01150  1.0000
  H   H13       1.0  0.92850  0.38360  0.73850  1.0000
  H   H14       1.0  0.07150  0.61640  0.23850  1.0000
  H   H15       1.0  0.38360  0.07150  0.48850  1.0000
  H   H16       1.0  0.61640  0.92850  0.98850  1.0000
  C   C25       1.0  0.13660  0.36440  0.14640  1.0000
  C   C26       1.0  0.86340  0.63560  0.64640  1.0000
  C   C27       1.0  0.63560  0.13660  0.39640  1.0000
  C   C28       1.0  0.36440  0.86340  0.89640  1.0000
  C   C29       1.0  0.86340  0.36440  0.85360  1.0000
  C   C30       1.0  0.13660  0.63560  0.35360  1.0000
  C   C31       1.0  0.36440  0.13660  0.60360  1.0000
  C   C32       1.0  0.63560  0.86340  0.10360  1.0000
  C   C33       1.0  0.29980  0.14320  0.21670  1.0000
  C   C34       1.0  0.70020  0.85680  0.71670  1.0000
  C   C35       1.0  0.85680  0.29980  0.46670  1.0000
  C   C36       1.0  0.14320  0.70020  0.96670  1.0000
  C   C37       1.0  0.70020  0.14320  0.78330  1.0000
  C   C38       1.0  0.29980  0.85680  0.28330  1.0000
  C   C39       1.0  0.14320  0.29980  0.53330  1.0000
  C   C40       1.0  0.85680  0.70020  0.03330  1.0000
  C   C41       1.0  0.09250  0.44290  0.09130  1.0000
  C   C42       1.0  0.90750  0.55710  0.59130  1.0000
  C   C43       1.0  0.55710  0.09250  0.34130  1.0000
  C   C44       1.0  0.44290  0.90750  0.84130  1.0000
  C   C45       1.0  0.90750  0.44290  0.90870  1.0000
  C   C46       1.0  0.09250  0.55710  0.40870  1.0000
  C   C47       1.0  0.44290  0.09250  0.65870  1.0000
  C   C48       1.0  0.55710  0.90750  0.15870  1.0000
