data_image0
_chemical_formula_structural       In4S8O32C8H8C24H8C16
_chemical_formula_sum              "In4 S8 O32 C48 H16"
_cell_length_a       13.559
_cell_length_b       13.559
_cell_length_c       15.6782
_cell_angle_alpha    90
_cell_angle_beta     90
_cell_angle_gamma    90

_space_group_name_H-M_alt    "P 1"
_space_group_IT_number       1

loop_
  _space_group_symop_operation_xyz
  'x, y, z'

loop_
  _atom_site_type_symbol
  _atom_site_label
  _atom_site_symmetry_multiplicity
  _atom_site_fract_x
  _atom_site_fract_y
  _atom_site_fract_z
  _atom_site_occupancy
  In  In1       1.0  0.50000  0.07701  0.00000  1.0000
  In  In2       1.0  0.50000  0.92299  0.50000  1.0000
  In  In3       1.0  0.92299  0.50000  0.75000  1.0000
  In  In4       1.0  0.07701  0.50000  0.25000  1.0000
  S   S1        1.0  0.27708  0.78504  0.10828  1.0000
  S   S2        1.0  0.72292  0.21496  0.60828  1.0000
  S   S3        1.0  0.21496  0.27708  0.85828  1.0000
  S   S4        1.0  0.78504  0.72292  0.35828  1.0000
  S   S5        1.0  0.72292  0.78504  0.89172  1.0000
  S   S6        1.0  0.27708  0.21496  0.39172  1.0000
  S   S7        1.0  0.78504  0.27708  0.14172  1.0000
  S   S8        1.0  0.21496  0.72292  0.64172  1.0000
  O   O1        1.0  0.37910  0.95270  0.01600  1.0000
  O   O2        1.0  0.62090  0.04730  0.51600  1.0000
  O   O3        1.0  0.04730  0.37910  0.76600  1.0000
  O   O4        1.0  0.95270  0.62090  0.26600  1.0000
  O   O5        1.0  0.62090  0.95270  0.98400  1.0000
  O   O6        1.0  0.37910  0.04730  0.48400  1.0000
  O   O7        1.0  0.95270  0.37910  0.23400  1.0000
  O   O8        1.0  0.04730  0.62090  0.73400  1.0000
  O   O9        1.0  0.47330  0.99790  0.12190  1.0000
  O   O10       1.0  0.52670  0.00210  0.62190  1.0000
  O   O11       1.0  0.00210  0.47330  0.87190  1.0000
  O   O12       1.0  0.99790  0.52670  0.37190  1.0000
  O   O13       1.0  0.52670  0.99790  0.87810  1.0000
  O   O14       1.0  0.47330  0.00210  0.37810  1.0000
  O   O15       1.0  0.99790  0.47330  0.12810  1.0000
  O   O16       1.0  0.00210  0.52670  0.62810  1.0000
  O   O17       1.0  0.14800  0.61560  0.15750  1.0000
  O   O18       1.0  0.85200  0.38440  0.65750  1.0000
  O   O19       1.0  0.38440  0.14800  0.90750  1.0000
  O   O20       1.0  0.61560  0.85200  0.40750  1.0000
  O   O21       1.0  0.85200  0.61560  0.84250  1.0000
  O   O22       1.0  0.14800  0.38440  0.34250  1.0000
  O   O23       1.0  0.61560  0.14800  0.09250  1.0000
  O   O24       1.0  0.38440  0.85200  0.59250  1.0000
  O   O25       1.0  0.19430  0.60600  0.29080  1.0000
  O   O26       1.0  0.80570  0.39400  0.79080  1.0000
  O   O27       1.0  0.39400  0.19430  0.04080  1.0000
  O   O28       1.0  0.60600  0.80570  0.54080  1.0000
  O   O29       1.0  0.80570  0.60600  0.70920  1.0000
  O   O30       1.0  0.19430  0.39400  0.20920  1.0000
  O   O31       1.0  0.60600  0.19430  0.95920  1.0000
  O   O32       1.0  0.39400  0.80570  0.45920  1.0000
  C   C1        1.0  0.38480  0.84910  0.22860  1.0000
  C   C2        1.0  0.61520  0.15090  0.72860  1.0000
  C   C3        1.0  0.15090  0.38480  0.97860  1.0000
  C   C4        1.0  0.84910  0.61520  0.47860  1.0000
  C   C5        1.0  0.61520  0.84910  0.77140  1.0000
  C   C6        1.0  0.38480  0.15090  0.27140  1.0000
  C   C7        1.0  0.84910  0.38480  0.02140  1.0000
  C   C8        1.0  0.15090  0.61520  0.52140  1.0000
  H   H1        1.0  0.42850  0.88750  0.26010  1.0000
  H   H2        1.0  0.57150  0.11250  0.76010  1.0000
  H   H3        1.0  0.11250  0.42850  0.01010  1.0000
  H   H4        1.0  0.88750  0.57150  0.51010  1.0000
  H   H5        1.0  0.57150  0.88750  0.73990  1.0000
  H   H6        1.0  0.42850  0.11250  0.23990  1.0000
  H   H7        1.0  0.88750  0.42850  0.98990  1.0000
  H   H8        1.0  0.11250  0.57150  0.48990  1.0000
  C   C9        1.0  0.27010  0.72760  0.20380  1.0000
  C   C10       1.0  0.72990  0.27240  0.70380  1.0000
  C   C11       1.0  0.27240  0.27010  0.95380  1.0000
  C   C12       1.0  0.72760  0.72990  0.45380  1.0000
  C   C13       1.0  0.72990  0.72760  0.79620  1.0000
  C   C14       1.0  0.27010  0.27240  0.29620  1.0000
  C   C15       1.0  0.72760  0.27010  0.04620  1.0000
  C   C16       1.0  0.27240  0.72990  0.54620  1.0000
  C   C17       1.0  0.36350  0.86600  0.14590  1.0000
  C   C18       1.0  0.63650  0.13400  0.64590  1.0000
  C   C19       1.0  0.13400  0.36350  0.89590  1.0000
  C   C20       1.0  0.86600  0.63650  0.39590  1.0000
  C   C21       1.0  0.63650  0.86600  0.85410  1.0000
  C   C22       1.0  0.36350  0.13400  0.35410  1.0000
  C   C23       1.0  0.86600  0.36350  0.10410  1.0000
  C   C24       1.0  0.13400  0.63650  0.60410  1.0000
  C   C25       1.0  0.33400  0.76690  0.26260  1.0000
  C   C26       1.0  0.66600  0.23310  0.76260  1.0000
  C   C27       1.0  0.23310  0.33400  0.01260  1.0000
  C   C28       1.0  0.76690  0.66600  0.51260  1.0000
  C   C29       1.0  0.66600  0.76690  0.73740  1.0000
  C   C30       1.0  0.33400  0.23310  0.23740  1.0000
  C   C31       1.0  0.76690  0.33400  0.98740  1.0000
  C   C32       1.0  0.23310  0.66600  0.48740  1.0000
  H   H9        1.0  0.34260  0.74270  0.31760  1.0000
  H   H10       1.0  0.65740  0.25730  0.81760  1.0000
  H   H11       1.0  0.25730  0.34260  0.06760  1.0000
  H   H12       1.0  0.74270  0.65740  0.56760  1.0000
  H   H13       1.0  0.65740  0.74270  0.68240  1.0000
  H   H14       1.0  0.34260  0.25730  0.18240  1.0000
  H   H15       1.0  0.74270  0.34260  0.93240  1.0000
  H   H16       1.0  0.25730  0.65740  0.43240  1.0000
  C   C33       1.0  0.40690  0.94290  0.09120  1.0000
  C   C34       1.0  0.59310  0.05710  0.59120  1.0000
  C   C35       1.0  0.05710  0.40690  0.84120  1.0000
  C   C36       1.0  0.94290  0.59310  0.34120  1.0000
  C   C37       1.0  0.59310  0.94290  0.90880  1.0000
  C   C38       1.0  0.40690  0.05710  0.40880  1.0000
  C   C39       1.0  0.94290  0.40690  0.15880  1.0000
  C   C40       1.0  0.05710  0.59310  0.65880  1.0000
  C   C41       1.0  0.20040  0.64500  0.21770  1.0000
  C   C42       1.0  0.79960  0.35500  0.71770  1.0000
  C   C43       1.0  0.35500  0.20040  0.96770  1.0000
  C   C44       1.0  0.64500  0.79960  0.46770  1.0000
  C   C45       1.0  0.79960  0.64500  0.78230  1.0000
  C   C46       1.0  0.20040  0.35500  0.28230  1.0000
  C   C47       1.0  0.64500  0.20040  0.03230  1.0000
  C   C48       1.0  0.35500  0.79960  0.53230  1.0000
