data_image0
_chemical_formula_structural       In8Cl8O8C8O8C8O8C8H8O8C8H8O8C8O8C8H8C8H8C16H8C16H8C16H8C24H8C8H8C16H8C8H8C24H8C8H8C16H8C8H8
_chemical_formula_sum              "In8 Cl8 O48 C216 H120"
_cell_length_a       32.6605
_cell_length_b       11.9586
_cell_length_c       18.655
_cell_angle_alpha    90
_cell_angle_beta     102.002
_cell_angle_gamma    90

_space_group_name_H-M_alt    "P 1"
_space_group_IT_number       1

loop_
  _space_group_symop_operation_xyz
  'x, y, z'

loop_
  _atom_site_type_symbol
  _atom_site_label
  _atom_site_symmetry_multiplicity
  _atom_site_fract_x
  _atom_site_fract_y
  _atom_site_fract_z
  _atom_site_occupancy
  In  In1       1.0  0.63993  0.01176  0.53702  1.0000
  In  In2       1.0  0.36007  0.01176  0.96298  1.0000
  In  In3       1.0  0.13993  0.51176  0.53702  1.0000
  In  In4       1.0  0.86007  0.51176  0.96298  1.0000
  In  In5       1.0  0.36007  0.98824  0.46298  1.0000
  In  In6       1.0  0.63993  0.98824  0.03702  1.0000
  In  In7       1.0  0.86007  0.48824  0.46298  1.0000
  In  In8       1.0  0.13993  0.48824  0.03702  1.0000
  Cl  Cl1       1.0  0.63878  0.05952  0.66146  1.0000
  Cl  Cl2       1.0  0.36122  0.05952  0.83854  1.0000
  Cl  Cl3       1.0  0.13878  0.55952  0.66146  1.0000
  Cl  Cl4       1.0  0.86122  0.55952  0.83854  1.0000
  Cl  Cl5       1.0  0.36122  0.94048  0.33854  1.0000
  Cl  Cl6       1.0  0.63878  0.94048  0.16146  1.0000
  Cl  Cl7       1.0  0.86122  0.44048  0.33854  1.0000
  Cl  Cl8       1.0  0.13878  0.44048  0.16146  1.0000
  O   O1        1.0  0.56884  0.97470  0.51321  1.0000
  O   O2        1.0  0.43116  0.97470  0.98679  1.0000
  O   O3        1.0  0.06884  0.47470  0.51321  1.0000
  O   O4        1.0  0.93116  0.47470  0.98679  1.0000
  O   O5        1.0  0.43116  0.02530  0.48679  1.0000
  O   O6        1.0  0.56884  0.02530  0.01321  1.0000
  O   O7        1.0  0.93116  0.52530  0.48679  1.0000
  O   O8        1.0  0.06884  0.52530  0.01321  1.0000
  C   C1        1.0  0.57761  0.87180  0.51010  1.0000
  C   C2        1.0  0.42239  0.87180  0.98990  1.0000
  C   C3        1.0  0.07761  0.37180  0.51010  1.0000
  C   C4        1.0  0.92239  0.37180  0.98990  1.0000
  C   C5        1.0  0.42239  0.12820  0.48990  1.0000
  C   C6        1.0  0.57761  0.12820  0.01010  1.0000
  C   C7        1.0  0.92239  0.62820  0.48990  1.0000
  C   C8        1.0  0.07761  0.62820  0.01010  1.0000
  O   O9        1.0  0.61413  0.83910  0.52438  1.0000
  O   O10       1.0  0.38587  0.83910  0.97562  1.0000
  O   O11       1.0  0.11413  0.33910  0.52438  1.0000
  O   O12       1.0  0.88587  0.33910  0.97562  1.0000
  O   O13       1.0  0.38587  0.16090  0.47562  1.0000
  O   O14       1.0  0.61413  0.16090  0.02438  1.0000
  O   O15       1.0  0.88587  0.66090  0.47562  1.0000
  O   O16       1.0  0.11413  0.66090  0.02438  1.0000
  C   C9        1.0  0.54234  0.79110  0.48550  1.0000
  C   C10       1.0  0.45766  0.79110  0.01450  1.0000
  C   C11       1.0  0.04234  0.29110  0.48550  1.0000
  C   C12       1.0  0.95766  0.29110  0.01450  1.0000
  C   C13       1.0  0.45766  0.20890  0.51450  1.0000
  C   C14       1.0  0.54234  0.20890  0.98550  1.0000
  C   C15       1.0  0.95766  0.70890  0.51450  1.0000
  C   C16       1.0  0.04234  0.70890  0.98550  1.0000
  O   O17       1.0  0.20015  0.42450  0.53843  1.0000
  O   O18       1.0  0.79985  0.42450  0.96157  1.0000
  O   O19       1.0  0.70015  0.92450  0.53843  1.0000
  O   O20       1.0  0.29985  0.92450  0.96157  1.0000
  O   O21       1.0  0.79985  0.57550  0.46157  1.0000
  O   O22       1.0  0.20015  0.57550  0.03843  1.0000
  O   O23       1.0  0.29985  0.07550  0.46157  1.0000
  O   O24       1.0  0.70015  0.07550  0.03843  1.0000
  C   C17       1.0  0.50090  0.82690  0.47830  1.0000
  C   C18       1.0  0.49910  0.82690  0.02170  1.0000
  C   C19       1.0  0.00090  0.32690  0.47830  1.0000
  C   C20       1.0  0.99910  0.32690  0.02170  1.0000
  C   C21       1.0  0.49910  0.17310  0.52170  1.0000
  C   C22       1.0  0.50090  0.17310  0.97830  1.0000
  C   C23       1.0  0.99910  0.67310  0.52170  1.0000
  C   C24       1.0  0.00090  0.67310  0.97830  1.0000
  H   H1        1.0  0.49520  0.90190  0.48990  1.0000
  H   H2        1.0  0.50480  0.90190  0.01010  1.0000
  H   H3        1.0  0.99520  0.40190  0.48990  1.0000
  H   H4        1.0  0.00480  0.40190  0.01010  1.0000
  H   H5        1.0  0.50480  0.09810  0.51010  1.0000
  H   H6        1.0  0.49520  0.09810  0.98990  1.0000
  H   H7        1.0  0.00480  0.59810  0.51010  1.0000
  H   H8        1.0  0.99520  0.59810  0.98990  1.0000
  O   O25       1.0  0.20282  0.60640  0.53694  1.0000
  O   O26       1.0  0.79718  0.60640  0.96306  1.0000
  O   O27       1.0  0.70282  0.10640  0.53694  1.0000
  O   O28       1.0  0.29718  0.10640  0.96306  1.0000
  O   O29       1.0  0.79718  0.39360  0.46306  1.0000
  O   O30       1.0  0.20282  0.39360  0.03694  1.0000
  O   O31       1.0  0.29718  0.89360  0.46306  1.0000
  O   O32       1.0  0.70282  0.89360  0.03694  1.0000
  C   C25       1.0  0.46795  0.75320  0.45420  1.0000
  C   C26       1.0  0.53205  0.75320  0.04580  1.0000
  C   C27       1.0  0.96795  0.25320  0.45420  1.0000
  C   C28       1.0  0.03205  0.25320  0.04580  1.0000
  C   C29       1.0  0.53205  0.24680  0.54580  1.0000
  C   C30       1.0  0.46795  0.24680  0.95420  1.0000
  C   C31       1.0  0.03205  0.74680  0.54580  1.0000
  C   C32       1.0  0.96795  0.74680  0.95420  1.0000
  H   H9        1.0  0.43990  0.77780  0.44980  1.0000
  H   H10       1.0  0.56010  0.77780  0.05020  1.0000
  H   H11       1.0  0.93990  0.27780  0.44980  1.0000
  H   H12       1.0  0.06010  0.27780  0.05020  1.0000
  H   H13       1.0  0.56010  0.22220  0.55020  1.0000
  H   H14       1.0  0.43990  0.22220  0.94980  1.0000
  H   H15       1.0  0.06010  0.72220  0.55020  1.0000
  H   H16       1.0  0.93990  0.72220  0.94980  1.0000
  O   O33       1.0  0.38472  0.17110  0.02162  1.0000
  O   O34       1.0  0.61528  0.17110  0.47838  1.0000
  O   O35       1.0  0.88472  0.67110  0.02162  1.0000
  O   O36       1.0  0.11528  0.67110  0.47838  1.0000
  O   O37       1.0  0.61528  0.82890  0.97838  1.0000
  O   O38       1.0  0.38472  0.82890  0.52162  1.0000
  O   O39       1.0  0.11528  0.32890  0.97838  1.0000
  O   O40       1.0  0.88472  0.32890  0.52162  1.0000
  C   C33       1.0  0.47611  0.64290  0.43657  1.0000
  C   C34       1.0  0.52389  0.64290  0.06343  1.0000
  C   C35       1.0  0.97611  0.14290  0.43657  1.0000
  C   C36       1.0  0.02389  0.14290  0.06343  1.0000
  C   C37       1.0  0.52389  0.35710  0.56343  1.0000
  C   C38       1.0  0.47611  0.35710  0.93657  1.0000
  C   C39       1.0  0.02389  0.85710  0.56343  1.0000
  C   C40       1.0  0.97611  0.85710  0.93657  1.0000
  O   O41       1.0  0.36993  0.02920  0.08554  1.0000
  O   O42       1.0  0.63007  0.02920  0.41446  1.0000
  O   O43       1.0  0.86993  0.52920  0.08554  1.0000
  O   O44       1.0  0.13007  0.52920  0.41446  1.0000
  O   O45       1.0  0.63007  0.97080  0.91446  1.0000
  O   O46       1.0  0.36993  0.97080  0.58554  1.0000
  O   O47       1.0  0.13007  0.47080  0.91446  1.0000
  O   O48       1.0  0.86993  0.47080  0.58554  1.0000
  C   C41       1.0  0.51781  0.60890  0.44240  1.0000
  C   C42       1.0  0.48219  0.60890  0.05760  1.0000
  C   C43       1.0  0.01781  0.10890  0.44240  1.0000
  C   C44       1.0  0.98219  0.10890  0.05760  1.0000
  C   C45       1.0  0.48219  0.39110  0.55760  1.0000
  C   C46       1.0  0.51781  0.39110  0.94240  1.0000
  C   C47       1.0  0.98219  0.89110  0.55760  1.0000
  C   C48       1.0  0.01781  0.89110  0.94240  1.0000
  H   H17       1.0  0.52370  0.53480  0.42930  1.0000
  H   H18       1.0  0.47630  0.53480  0.07070  1.0000
  H   H19       1.0  0.02370  0.03480  0.42930  1.0000
  H   H20       1.0  0.97630  0.03480  0.07070  1.0000
  H   H21       1.0  0.47630  0.46520  0.57070  1.0000
  H   H22       1.0  0.52370  0.46520  0.92930  1.0000
  H   H23       1.0  0.97630  0.96520  0.57070  1.0000
  H   H24       1.0  0.02370  0.96520  0.92930  1.0000
  C   C49       1.0  0.55034  0.68250  0.46700  1.0000
  C   C50       1.0  0.44966  0.68250  0.03300  1.0000
  C   C51       1.0  0.05034  0.18250  0.46700  1.0000
  C   C52       1.0  0.94966  0.18250  0.03300  1.0000
  C   C53       1.0  0.44966  0.31750  0.53300  1.0000
  C   C54       1.0  0.55034  0.31750  0.96700  1.0000
  C   C55       1.0  0.94966  0.81750  0.53300  1.0000
  C   C56       1.0  0.05034  0.81750  0.96700  1.0000
  H   H25       1.0  0.57840  0.65830  0.47120  1.0000
  H   H26       1.0  0.42160  0.65830  0.02880  1.0000
  H   H27       1.0  0.07840  0.15830  0.47120  1.0000
  H   H28       1.0  0.92160  0.15830  0.02880  1.0000
  H   H29       1.0  0.42160  0.34170  0.52880  1.0000
  H   H30       1.0  0.57840  0.34170  0.97120  1.0000
  H   H31       1.0  0.92160  0.84170  0.52880  1.0000
  H   H32       1.0  0.07840  0.84170  0.97120  1.0000
  C   C57       1.0  0.44087  0.56420  0.41240  1.0000
  C   C58       1.0  0.55913  0.56420  0.08760  1.0000
  C   C59       1.0  0.94087  0.06420  0.41240  1.0000
  C   C60       1.0  0.05913  0.06420  0.08760  1.0000
  C   C61       1.0  0.55913  0.43580  0.58760  1.0000
  C   C62       1.0  0.44087  0.43580  0.91240  1.0000
  C   C63       1.0  0.05913  0.93580  0.58760  1.0000
  C   C64       1.0  0.94087  0.93580  0.91240  1.0000
  C   C65       1.0  0.40609  0.56910  0.44510  1.0000
  C   C66       1.0  0.59391  0.56910  0.05490  1.0000
  C   C67       1.0  0.90609  0.06910  0.44510  1.0000
  C   C68       1.0  0.09391  0.06910  0.05490  1.0000
  C   C69       1.0  0.59391  0.43090  0.55490  1.0000
  C   C70       1.0  0.40609  0.43090  0.94510  1.0000
  C   C71       1.0  0.09391  0.93090  0.55490  1.0000
  C   C72       1.0  0.90609  0.93090  0.94510  1.0000
  H   H33       1.0  0.40460  0.62590  0.48010  1.0000
  H   H34       1.0  0.59540  0.62590  0.01990  1.0000
  H   H35       1.0  0.90460  0.12590  0.48010  1.0000
  H   H36       1.0  0.09540  0.12590  0.01990  1.0000
  H   H37       1.0  0.59540  0.37410  0.51990  1.0000
  H   H38       1.0  0.40460  0.37410  0.98010  1.0000
  H   H39       1.0  0.09540  0.87410  0.51990  1.0000
  H   H40       1.0  0.90460  0.87410  0.98010  1.0000
  C   C73       1.0  0.37345  0.49200  0.42730  1.0000
  C   C74       1.0  0.62655  0.49200  0.07270  1.0000
  C   C75       1.0  0.87345  0.99200  0.42730  1.0000
  C   C76       1.0  0.12655  0.99200  0.07270  1.0000
  C   C77       1.0  0.62655  0.50800  0.57270  1.0000
  C   C78       1.0  0.37345  0.50800  0.92730  1.0000
  C   C79       1.0  0.12655  0.00800  0.57270  1.0000
  C   C80       1.0  0.87345  0.00800  0.92730  1.0000
  C   C81       1.0  0.37548  0.41220  0.37390  1.0000
  C   C82       1.0  0.62452  0.41220  0.12610  1.0000
  C   C83       1.0  0.87548  0.91220  0.37390  1.0000
  C   C84       1.0  0.12452  0.91220  0.12610  1.0000
  C   C85       1.0  0.62452  0.58780  0.62610  1.0000
  C   C86       1.0  0.37548  0.58780  0.87390  1.0000
  C   C87       1.0  0.12452  0.08780  0.62610  1.0000
  C   C88       1.0  0.87548  0.08780  0.87390  1.0000
  H   H41       1.0  0.35350  0.35910  0.36140  1.0000
  H   H42       1.0  0.64650  0.35910  0.13860  1.0000
  H   H43       1.0  0.85350  0.85910  0.36140  1.0000
  H   H44       1.0  0.14650  0.85910  0.13860  1.0000
  H   H45       1.0  0.64650  0.64090  0.63860  1.0000
  H   H46       1.0  0.35350  0.64090  0.86140  1.0000
  H   H47       1.0  0.14650  0.14090  0.63860  1.0000
  H   H48       1.0  0.85350  0.14090  0.86140  1.0000
  C   C89       1.0  0.40896  0.40810  0.33830  1.0000
  C   C90       1.0  0.59104  0.40810  0.16170  1.0000
  C   C91       1.0  0.90896  0.90810  0.33830  1.0000
  C   C92       1.0  0.09104  0.90810  0.16170  1.0000
  C   C93       1.0  0.59104  0.59190  0.66170  1.0000
  C   C94       1.0  0.40896  0.59190  0.83830  1.0000
  C   C95       1.0  0.09104  0.09190  0.66170  1.0000
  C   C96       1.0  0.90896  0.09190  0.83830  1.0000
  C   C97       1.0  0.44186  0.48450  0.35850  1.0000
  C   C98       1.0  0.55814  0.48450  0.14150  1.0000
  C   C99       1.0  0.94186  0.98450  0.35850  1.0000
  C   C100      1.0  0.05814  0.98450  0.14150  1.0000
  C   C101      1.0  0.55814  0.51550  0.64150  1.0000
  C   C102      1.0  0.44186  0.51550  0.85850  1.0000
  C   C103      1.0  0.05814  0.01550  0.64150  1.0000
  C   C104      1.0  0.94186  0.01550  0.85850  1.0000
  H   H49       1.0  0.46510  0.48170  0.33510  1.0000
  H   H50       1.0  0.53490  0.48170  0.16490  1.0000
  H   H51       1.0  0.96510  0.98170  0.33510  1.0000
  H   H52       1.0  0.03490  0.98170  0.16490  1.0000
  H   H53       1.0  0.53490  0.51830  0.66490  1.0000
  H   H54       1.0  0.46510  0.51830  0.83510  1.0000
  H   H55       1.0  0.03490  0.01830  0.66490  1.0000
  H   H56       1.0  0.96510  0.01830  0.83510  1.0000
  C   C105      1.0  0.21950  0.51220  0.53240  1.0000
  C   C106      1.0  0.78050  0.51220  0.96760  1.0000
  C   C107      1.0  0.71950  0.01220  0.53240  1.0000
  C   C108      1.0  0.28050  0.01220  0.96760  1.0000
  C   C109      1.0  0.78050  0.48780  0.46760  1.0000
  C   C110      1.0  0.21950  0.48780  0.03240  1.0000
  C   C111      1.0  0.28050  0.98780  0.46760  1.0000
  C   C112      1.0  0.71950  0.98780  0.03240  1.0000
  C   C113      1.0  0.26210  0.50710  0.51420  1.0000
  C   C114      1.0  0.73790  0.50710  0.98580  1.0000
  C   C115      1.0  0.76210  0.00710  0.51420  1.0000
  C   C116      1.0  0.23790  0.00710  0.98580  1.0000
  C   C117      1.0  0.73790  0.49290  0.48580  1.0000
  C   C118      1.0  0.26210  0.49290  0.01420  1.0000
  C   C119      1.0  0.23790  0.99290  0.48580  1.0000
  C   C120      1.0  0.76210  0.99290  0.01420  1.0000
  C   C121      1.0  0.28448  0.60450  0.50640  1.0000
  C   C122      1.0  0.71552  0.60450  0.99360  1.0000
  C   C123      1.0  0.78448  0.10450  0.50640  1.0000
  C   C124      1.0  0.21552  0.10450  0.99360  1.0000
  C   C125      1.0  0.71552  0.39550  0.49360  1.0000
  C   C126      1.0  0.28448  0.39550  0.00640  1.0000
  C   C127      1.0  0.21552  0.89550  0.49360  1.0000
  C   C128      1.0  0.78448  0.89550  0.00640  1.0000
  H   H57       1.0  0.27420  0.67480  0.51860  1.0000
  H   H58       1.0  0.72580  0.67480  0.98140  1.0000
  H   H59       1.0  0.77420  0.17480  0.51860  1.0000
  H   H60       1.0  0.22580  0.17480  0.98140  1.0000
  H   H61       1.0  0.72580  0.32520  0.48140  1.0000
  H   H62       1.0  0.27420  0.32520  0.01860  1.0000
  H   H63       1.0  0.22580  0.82520  0.48140  1.0000
  H   H64       1.0  0.77420  0.82520  0.01860  1.0000
  C   C129      1.0  0.32120  0.59970  0.48110  1.0000
  C   C130      1.0  0.67880  0.59970  0.01890  1.0000
  C   C131      1.0  0.82120  0.09970  0.48110  1.0000
  C   C132      1.0  0.17880  0.09970  0.01890  1.0000
  C   C133      1.0  0.67880  0.40030  0.51890  1.0000
  C   C134      1.0  0.32120  0.40030  0.98110  1.0000
  C   C135      1.0  0.17880  0.90030  0.51890  1.0000
  C   C136      1.0  0.82120  0.90030  0.98110  1.0000
  H   H65       1.0  0.33630  0.66630  0.47690  1.0000
  H   H66       1.0  0.66370  0.66630  0.02310  1.0000
  H   H67       1.0  0.83630  0.16630  0.47690  1.0000
  H   H68       1.0  0.16370  0.16630  0.02310  1.0000
  H   H69       1.0  0.66370  0.33370  0.52310  1.0000
  H   H70       1.0  0.33630  0.33370  0.97690  1.0000
  H   H71       1.0  0.16370  0.83370  0.52310  1.0000
  H   H72       1.0  0.83630  0.83370  0.97690  1.0000
  C   C137      1.0  0.33630  0.49710  0.46170  1.0000
  C   C138      1.0  0.66370  0.49710  0.03830  1.0000
  C   C139      1.0  0.83630  0.99710  0.46170  1.0000
  C   C140      1.0  0.16370  0.99710  0.03830  1.0000
  C   C141      1.0  0.66370  0.50290  0.53830  1.0000
  C   C142      1.0  0.33630  0.50290  0.96170  1.0000
  C   C143      1.0  0.16370  0.00290  0.53830  1.0000
  C   C144      1.0  0.83630  0.00290  0.96170  1.0000
  C   C145      1.0  0.31556  0.39890  0.47400  1.0000
  C   C146      1.0  0.68444  0.39890  0.02600  1.0000
  C   C147      1.0  0.81556  0.89890  0.47400  1.0000
  C   C148      1.0  0.18444  0.89890  0.02600  1.0000
  C   C149      1.0  0.68444  0.60110  0.52600  1.0000
  C   C150      1.0  0.31556  0.60110  0.97400  1.0000
  C   C151      1.0  0.18444  0.10110  0.52600  1.0000
  C   C152      1.0  0.81556  0.10110  0.97400  1.0000
  H   H73       1.0  0.32670  0.32820  0.46500  1.0000
  H   H74       1.0  0.67330  0.32820  0.03500  1.0000
  H   H75       1.0  0.82670  0.82820  0.46500  1.0000
  H   H76       1.0  0.17330  0.82820  0.03500  1.0000
  H   H77       1.0  0.67330  0.67180  0.53500  1.0000
  H   H78       1.0  0.32670  0.67180  0.96500  1.0000
  H   H79       1.0  0.17330  0.17180  0.53500  1.0000
  H   H80       1.0  0.82670  0.17180  0.96500  1.0000
  C   C153      1.0  0.27876  0.40480  0.49930  1.0000
  C   C154      1.0  0.72124  0.40480  0.00070  1.0000
  C   C155      1.0  0.77876  0.90480  0.49930  1.0000
  C   C156      1.0  0.22124  0.90480  0.00070  1.0000
  C   C157      1.0  0.72124  0.59520  0.50070  1.0000
  C   C158      1.0  0.27876  0.59520  0.99930  1.0000
  C   C159      1.0  0.22124  0.09520  0.50070  1.0000
  C   C160      1.0  0.77876  0.09520  0.99930  1.0000
  H   H81       1.0  0.26460  0.33780  0.50670  1.0000
  H   H82       1.0  0.73540  0.33780  0.99330  1.0000
  H   H83       1.0  0.76460  0.83780  0.50670  1.0000
  H   H84       1.0  0.23540  0.83780  0.99330  1.0000
  H   H85       1.0  0.73540  0.66220  0.49330  1.0000
  H   H86       1.0  0.26460  0.66220  0.00670  1.0000
  H   H87       1.0  0.23540  0.16220  0.49330  1.0000
  H   H88       1.0  0.76460  0.16220  0.00670  1.0000
  C   C161      1.0  0.38214  0.12830  0.08100  1.0000
  C   C162      1.0  0.61786  0.12830  0.41900  1.0000
  C   C163      1.0  0.88214  0.62830  0.08100  1.0000
  C   C164      1.0  0.11786  0.62830  0.41900  1.0000
  C   C165      1.0  0.61786  0.87170  0.91900  1.0000
  C   C166      1.0  0.38214  0.87170  0.58100  1.0000
  C   C167      1.0  0.11786  0.37170  0.91900  1.0000
  C   C168      1.0  0.88214  0.37170  0.58100  1.0000
  C   C169      1.0  0.39284  0.19660  0.15012  1.0000
  C   C170      1.0  0.60716  0.19660  0.34988  1.0000
  C   C171      1.0  0.89284  0.69660  0.15012  1.0000
  C   C172      1.0  0.10716  0.69660  0.34988  1.0000
  C   C173      1.0  0.60716  0.80340  0.84988  1.0000
  C   C174      1.0  0.39284  0.80340  0.65012  1.0000
  C   C175      1.0  0.10716  0.30340  0.84988  1.0000
  C   C176      1.0  0.89284  0.30340  0.65012  1.0000
  C   C177      1.0  0.38380  0.15630  0.21490  1.0000
  C   C178      1.0  0.61620  0.15630  0.28510  1.0000
  C   C179      1.0  0.88380  0.65630  0.21490  1.0000
  C   C180      1.0  0.11620  0.65630  0.28510  1.0000
  C   C181      1.0  0.61620  0.84370  0.78510  1.0000
  C   C182      1.0  0.38380  0.84370  0.71490  1.0000
  C   C183      1.0  0.11620  0.34370  0.78510  1.0000
  C   C184      1.0  0.88380  0.34370  0.71490  1.0000
  H   H89       1.0  0.37280  0.08300  0.21660  1.0000
  H   H90       1.0  0.62720  0.08300  0.28340  1.0000
  H   H91       1.0  0.87280  0.58300  0.21660  1.0000
  H   H92       1.0  0.12720  0.58300  0.28340  1.0000
  H   H93       1.0  0.62720  0.91700  0.78340  1.0000
  H   H94       1.0  0.37280  0.91700  0.71660  1.0000
  H   H95       1.0  0.12720  0.41700  0.78340  1.0000
  H   H96       1.0  0.87280  0.41700  0.71660  1.0000
  C   C185      1.0  0.39083  0.22320  0.27730  1.0000
  C   C186      1.0  0.60917  0.22320  0.22270  1.0000
  C   C187      1.0  0.89083  0.72320  0.27730  1.0000
  C   C188      1.0  0.10917  0.72320  0.22270  1.0000
  C   C189      1.0  0.60917  0.77680  0.72270  1.0000
  C   C190      1.0  0.39083  0.77680  0.77730  1.0000
  C   C191      1.0  0.10917  0.27680  0.72270  1.0000
  C   C192      1.0  0.89083  0.27680  0.77730  1.0000
  H   H97       1.0  0.38470  0.19520  0.32150  1.0000
  H   H98       1.0  0.61530  0.19520  0.17850  1.0000
  H   H99       1.0  0.88470  0.69520  0.32150  1.0000
  H   H100      1.0  0.11530  0.69520  0.17850  1.0000
  H   H101      1.0  0.61530  0.80480  0.67850  1.0000
  H   H102      1.0  0.38470  0.80480  0.82150  1.0000
  H   H103      1.0  0.11530  0.30480  0.67850  1.0000
  H   H104      1.0  0.88470  0.30480  0.82150  1.0000
  C   C193      1.0  0.40682  0.33110  0.27530  1.0000
  C   C194      1.0  0.59318  0.33110  0.22470  1.0000
  C   C195      1.0  0.90682  0.83110  0.27530  1.0000
  C   C196      1.0  0.09318  0.83110  0.22470  1.0000
  C   C197      1.0  0.59318  0.66890  0.72470  1.0000
  C   C198      1.0  0.40682  0.66890  0.77530  1.0000
  C   C199      1.0  0.09318  0.16890  0.72470  1.0000
  C   C200      1.0  0.90682  0.16890  0.77530  1.0000
  C   C201      1.0  0.41749  0.36900  0.21070  1.0000
  C   C202      1.0  0.58251  0.36900  0.28930  1.0000
  C   C203      1.0  0.91749  0.86900  0.21070  1.0000
  C   C204      1.0  0.08251  0.86900  0.28930  1.0000
  C   C205      1.0  0.58251  0.63100  0.78930  1.0000
  C   C206      1.0  0.41749  0.63100  0.71070  1.0000
  C   C207      1.0  0.08251  0.13100  0.78930  1.0000
  C   C208      1.0  0.91749  0.13100  0.71070  1.0000
  H   H105      1.0  0.42970  0.44080  0.20930  1.0000
  H   H106      1.0  0.57030  0.44080  0.29070  1.0000
  H   H107      1.0  0.92970  0.94080  0.20930  1.0000
  H   H108      1.0  0.07030  0.94080  0.29070  1.0000
  H   H109      1.0  0.57030  0.55920  0.79070  1.0000
  H   H110      1.0  0.42970  0.55920  0.70930  1.0000
  H   H111      1.0  0.07030  0.05920  0.79070  1.0000
  H   H112      1.0  0.92970  0.05920  0.70930  1.0000
  C   C209      1.0  0.41023  0.30190  0.14890  1.0000
  C   C210      1.0  0.58977  0.30190  0.35110  1.0000
  C   C211      1.0  0.91023  0.80190  0.14890  1.0000
  C   C212      1.0  0.08977  0.80190  0.35110  1.0000
  C   C213      1.0  0.58977  0.69810  0.85110  1.0000
  C   C214      1.0  0.41023  0.69810  0.64890  1.0000
  C   C215      1.0  0.08977  0.19810  0.85110  1.0000
  C   C216      1.0  0.91023  0.19810  0.64890  1.0000
  H   H113      1.0  0.41730  0.32860  0.10500  1.0000
  H   H114      1.0  0.58270  0.32860  0.39500  1.0000
  H   H115      1.0  0.91730  0.82860  0.10500  1.0000
  H   H116      1.0  0.08270  0.82860  0.39500  1.0000
  H   H117      1.0  0.58270  0.67140  0.89500  1.0000
  H   H118      1.0  0.41730  0.67140  0.60500  1.0000
  H   H119      1.0  0.08270  0.17140  0.89500  1.0000
  H   H120      1.0  0.91730  0.17140  0.60500  1.0000
