data_image0
_chemical_formula_structural       Zn16N8O8N16O4C4N4O8C4H4C4N4H8O4C8H4N4C4H4C8H4C4N4C4O4N8C4O4N4H8C12H4C4N8H8C4H4C8H4C4H4C20H4C4H4C4H4O4C8H4C4H4C4H4C4
_chemical_formula_sum              "Zn16 N60 O36 C124 H80"
_cell_length_a       14.4056
_cell_length_b       36.3878
_cell_length_c       9.5535
_cell_angle_alpha    90
_cell_angle_beta     106.076
_cell_angle_gamma    90

_space_group_name_H-M_alt    "P 1"
_space_group_IT_number       1

loop_
  _space_group_symop_operation_xyz
  'x, y, z'

loop_
  _atom_site_type_symbol
  _atom_site_label
  _atom_site_symmetry_multiplicity
  _atom_site_fract_x
  _atom_site_fract_y
  _atom_site_fract_z
  _atom_site_occupancy
  Zn  Zn1       1.0  0.14744  0.35558  0.25649  1.0000
  Zn  Zn2       1.0  0.14744  0.64442  0.75649  1.0000
  Zn  Zn3       1.0  0.64744  0.85558  0.25649  1.0000
  Zn  Zn4       1.0  0.64744  0.14442  0.75649  1.0000
  Zn  Zn5       1.0  0.50557  0.29630  0.18459  1.0000
  Zn  Zn6       1.0  0.50557  0.70370  0.68459  1.0000
  Zn  Zn7       1.0  0.00557  0.79630  0.18459  1.0000
  Zn  Zn8       1.0  0.00557  0.20370  0.68459  1.0000
  Zn  Zn9       1.0  0.00018  0.35451  0.50079  1.0000
  Zn  Zn10      1.0  0.00018  0.64549  0.00079  1.0000
  Zn  Zn11      1.0  0.50018  0.85451  0.50079  1.0000
  Zn  Zn12      1.0  0.50018  0.14549  0.00079  1.0000
  Zn  Zn13      1.0  0.14087  0.20646  0.05777  1.0000
  Zn  Zn14      1.0  0.14087  0.79354  0.55777  1.0000
  Zn  Zn15      1.0  0.64087  0.70646  0.05777  1.0000
  Zn  Zn16      1.0  0.64087  0.29354  0.55777  1.0000
  N   N1        1.0  0.52570  0.32470  0.55690  1.0000
  N   N2        1.0  0.52570  0.67530  0.05690  1.0000
  N   N3        1.0  0.02570  0.82470  0.55690  1.0000
  N   N4        1.0  0.02570  0.17530  0.05690  1.0000
  N   N5        1.0  0.42480  0.31840  0.30430  1.0000
  N   N6        1.0  0.42480  0.68160  0.80430  1.0000
  N   N7        1.0  0.92480  0.81840  0.30430  1.0000
  N   N8        1.0  0.92480  0.18160  0.80430  1.0000
  O   O1        1.0  0.19160  0.21560  0.26490  1.0000
  O   O2        1.0  0.19160  0.78440  0.76490  1.0000
  O   O3        1.0  0.69160  0.71560  0.26490  1.0000
  O   O4        1.0  0.69160  0.28440  0.76490  1.0000
  O   O5        1.0  0.96750  0.57770  0.89550  1.0000
  O   O6        1.0  0.96750  0.42230  0.39550  1.0000
  O   O7        1.0  0.46750  0.07770  0.89550  1.0000
  O   O8        1.0  0.46750  0.92230  0.39550  1.0000
  N   N9        1.0  0.03270  0.31700  0.67130  1.0000
  N   N10       1.0  0.03270  0.68300  0.17130  1.0000
  N   N11       1.0  0.53270  0.81700  0.67130  1.0000
  N   N12       1.0  0.53270  0.18300  0.17130  1.0000
  N   N13       1.0  0.86010  0.34370  0.42160  1.0000
  N   N14       1.0  0.86010  0.65630  0.92160  1.0000
  N   N15       1.0  0.36010  0.84370  0.42160  1.0000
  N   N16       1.0  0.36010  0.15630  0.92160  1.0000
  N   N17       1.0  0.04230  0.25540  0.73270  1.0000
  N   N18       1.0  0.04230  0.74460  0.23270  1.0000
  N   N19       1.0  0.54230  0.75540  0.73270  1.0000
  N   N20       1.0  0.54230  0.24460  0.23270  1.0000
  N   N21       1.0  0.29130  0.34560  0.32410  1.0000
  N   N22       1.0  0.29130  0.65440  0.82410  1.0000
  N   N23       1.0  0.79130  0.84560  0.32410  1.0000
  N   N24       1.0  0.79130  0.15440  0.82410  1.0000
  O   O9        1.0  0.45510  0.28870  0.97790  1.0000
  O   O10       1.0  0.45510  0.71130  0.47790  1.0000
  O   O11       1.0  0.95510  0.78870  0.97790  1.0000
  O   O12       1.0  0.95510  0.21130  0.47790  1.0000
  C   C1        1.0  0.79040  0.34670  0.29070  1.0000
  C   C2        1.0  0.79040  0.65330  0.79070  1.0000
  C   C3        1.0  0.29040  0.84670  0.29070  1.0000
  C   C4        1.0  0.29040  0.15330  0.79070  1.0000
  N   N25       1.0  0.71980  0.31590  0.44410  1.0000
  N   N26       1.0  0.71980  0.68410  0.94410  1.0000
  N   N27       1.0  0.21980  0.81590  0.44410  1.0000
  N   N28       1.0  0.21980  0.18410  0.94410  1.0000
  O   O13       1.0  0.07370  0.33489  0.38480  1.0000
  O   O14       1.0  0.07370  0.66511  0.88480  1.0000
  O   O15       1.0  0.57370  0.83489  0.38480  1.0000
  O   O16       1.0  0.57370  0.16511  0.88480  1.0000
  O   O17       1.0  0.05200  0.60110  0.10410  1.0000
  O   O18       1.0  0.05200  0.39890  0.60410  1.0000
  O   O19       1.0  0.55200  0.10110  0.10410  1.0000
  O   O20       1.0  0.55200  0.89890  0.60410  1.0000
  C   C5        1.0  0.81110  0.32560  0.51110  1.0000
  C   C6        1.0  0.81110  0.67440  0.01110  1.0000
  C   C7        1.0  0.31110  0.82560  0.51110  1.0000
  C   C8        1.0  0.31110  0.17440  0.01110  1.0000
  H   H1        1.0  0.83999  0.32076  0.60905  1.0000
  H   H2        1.0  0.83999  0.67924  0.10905  1.0000
  H   H3        1.0  0.33999  0.82076  0.60905  1.0000
  H   H4        1.0  0.33999  0.17924  0.10905  1.0000
  C   C9        1.0  0.29720  0.23130  0.49380  1.0000
  C   C10       1.0  0.29720  0.76870  0.99380  1.0000
  C   C11       1.0  0.79720  0.73130  0.49380  1.0000
  C   C12       1.0  0.79720  0.26870  0.99380  1.0000
  N   N29       1.0  0.29060  0.38090  0.62820  1.0000
  N   N30       1.0  0.29060  0.61910  0.12820  1.0000
  N   N31       1.0  0.79060  0.88090  0.62820  1.0000
  N   N32       1.0  0.79060  0.11910  0.12820  1.0000
  H   H5        1.0  0.23691  0.38523  0.56354  1.0000
  H   H6        1.0  0.23691  0.61477  0.06354  1.0000
  H   H7        1.0  0.73691  0.88523  0.56354  1.0000
  H   H8        1.0  0.73691  0.11477  0.06354  1.0000
  H   H9        1.0  0.29949  0.38888  0.71575  1.0000
  H   H10       1.0  0.29949  0.61112  0.21575  1.0000
  H   H11       1.0  0.79949  0.88888  0.71575  1.0000
  H   H12       1.0  0.79949  0.11112  0.21575  1.0000
  O   O21       1.0  0.09610  0.40200  0.16790  1.0000
  O   O22       1.0  0.09610  0.59800  0.66790  1.0000
  O   O23       1.0  0.59610  0.90200  0.16790  1.0000
  O   O24       1.0  0.59610  0.09800  0.66790  1.0000
  C   C13       1.0  0.44410  0.32980  0.44310  1.0000
  C   C14       1.0  0.44410  0.67020  0.94310  1.0000
  C   C15       1.0  0.94410  0.82980  0.44310  1.0000
  C   C16       1.0  0.94410  0.17020  0.94310  1.0000
  C   C17       1.0  0.51870  0.33830  0.67910  1.0000
  C   C18       1.0  0.51870  0.66170  0.17910  1.0000
  C   C19       1.0  0.01870  0.83830  0.67910  1.0000
  C   C20       1.0  0.01870  0.16170  0.17910  1.0000
  H   H13       1.0  0.57276  0.33495  0.75800  1.0000
  H   H14       1.0  0.57276  0.66505  0.25800  1.0000
  H   H15       1.0  0.07276  0.83495  0.75800  1.0000
  H   H16       1.0  0.07276  0.16505  0.25800  1.0000
  N   N33       1.0  0.62580  0.32580  0.19600  1.0000
  N   N34       1.0  0.62580  0.67420  0.69600  1.0000
  N   N35       1.0  0.12580  0.82580  0.19600  1.0000
  N   N36       1.0  0.12580  0.17420  0.69600  1.0000
  C   C21       1.0  0.02750  0.47110  0.06050  1.0000
  C   C22       1.0  0.02750  0.52890  0.56050  1.0000
  C   C23       1.0  0.52750  0.97110  0.06050  1.0000
  C   C24       1.0  0.52750  0.02890  0.56050  1.0000
  H   H17       1.0  0.99732  0.45058  0.00965  1.0000
  H   H18       1.0  0.99732  0.54942  0.50965  1.0000
  H   H19       1.0  0.49732  0.95058  0.00965  1.0000
  H   H20       1.0  0.49732  0.04942  0.50965  1.0000
  C   C25       1.0  0.07180  0.27464  0.85670  1.0000
  C   C26       1.0  0.07180  0.72536  0.35670  1.0000
  C   C27       1.0  0.57180  0.77464  0.85670  1.0000
  C   C28       1.0  0.57180  0.22536  0.35670  1.0000
  C   C29       1.0  0.25450  0.27240  0.65890  1.0000
  C   C30       1.0  0.25450  0.72760  0.15890  1.0000
  C   C31       1.0  0.75450  0.77240  0.65890  1.0000
  C   C32       1.0  0.75450  0.22760  0.15890  1.0000
  H   H21       1.0  0.20994  0.28877  0.67812  1.0000
  H   H22       1.0  0.20994  0.71123  0.17812  1.0000
  H   H23       1.0  0.70994  0.78877  0.67812  1.0000
  H   H24       1.0  0.70994  0.21123  0.17812  1.0000
  C   C33       1.0  0.36030  0.36180  0.59270  1.0000
  C   C34       1.0  0.36030  0.63820  0.09270  1.0000
  C   C35       1.0  0.86030  0.86180  0.59270  1.0000
  C   C36       1.0  0.86030  0.13820  0.09270  1.0000
  N   N37       1.0  0.44580  0.35620  0.70870  1.0000
  N   N38       1.0  0.44580  0.64380  0.20870  1.0000
  N   N39       1.0  0.94580  0.85620  0.70870  1.0000
  N   N40       1.0  0.94580  0.14380  0.20870  1.0000
  C   C37       1.0  0.70810  0.32940  0.30370  1.0000
  C   C38       1.0  0.70810  0.67060  0.80370  1.0000
  C   C39       1.0  0.20810  0.82940  0.30370  1.0000
  C   C40       1.0  0.20810  0.17060  0.80370  1.0000
  O   O25       1.0  0.30570  0.29760  0.94720  1.0000
  O   O26       1.0  0.30570  0.70240  0.44720  1.0000
  O   O27       1.0  0.80570  0.79760  0.94720  1.0000
  O   O28       1.0  0.80570  0.20240  0.44720  1.0000
  N   N41       1.0  0.11440  0.32190  0.07110  1.0000
  N   N42       1.0  0.11440  0.67810  0.57110  1.0000
  N   N43       1.0  0.61440  0.82190  0.07110  1.0000
  N   N44       1.0  0.61440  0.17810  0.57110  1.0000
  N   N45       1.0  0.70800  0.35950  0.04950  1.0000
  N   N46       1.0  0.70800  0.64050  0.54950  1.0000
  N   N47       1.0  0.20800  0.85950  0.04950  1.0000
  N   N48       1.0  0.20800  0.14050  0.54950  1.0000
  C   C41       1.0  0.10320  0.46680  0.19730  1.0000
  C   C42       1.0  0.10320  0.53320  0.69730  1.0000
  C   C43       1.0  0.60320  0.96680  0.19730  1.0000
  C   C44       1.0  0.60320  0.03320  0.69730  1.0000
  O   O29       1.0  0.18770  0.42430  0.37490  1.0000
  O   O30       1.0  0.18770  0.57570  0.87490  1.0000
  O   O31       1.0  0.68770  0.92430  0.37490  1.0000
  O   O32       1.0  0.68770  0.07570  0.87490  1.0000
  N   N49       1.0  0.07930  0.37379  0.89630  1.0000
  N   N50       1.0  0.07930  0.62621  0.39630  1.0000
  N   N51       1.0  0.57930  0.87379  0.89630  1.0000
  N   N52       1.0  0.57930  0.12621  0.39630  1.0000
  H   H25       1.0  0.05973  0.38143  0.80782  1.0000
  H   H26       1.0  0.05973  0.61857  0.30782  1.0000
  H   H27       1.0  0.55973  0.88143  0.80782  1.0000
  H   H28       1.0  0.55973  0.11857  0.30782  1.0000
  H   H29       1.0  0.09337  0.38932  0.96689  1.0000
  H   H30       1.0  0.09337  0.61068  0.46689  1.0000
  H   H31       1.0  0.59337  0.88932  0.96689  1.0000
  H   H32       1.0  0.59337  0.11068  0.46689  1.0000
  C   C45       1.0  0.13240  0.42850  0.25420  1.0000
  C   C46       1.0  0.13240  0.57150  0.75420  1.0000
  C   C47       1.0  0.63240  0.92850  0.25420  1.0000
  C   C48       1.0  0.63240  0.07150  0.75420  1.0000
  C   C49       1.0  0.36620  0.28890  0.90290  1.0000
  C   C50       1.0  0.36620  0.71110  0.40290  1.0000
  C   C51       1.0  0.86620  0.78890  0.90290  1.0000
  C   C52       1.0  0.86620  0.21110  0.40290  1.0000
  C   C53       1.0  0.33100  0.32920  0.24340  1.0000
  C   C54       1.0  0.33100  0.67080  0.74340  1.0000
  C   C55       1.0  0.83100  0.82920  0.24340  1.0000
  C   C56       1.0  0.83100  0.17080  0.74340  1.0000
  H   H33       1.0  0.29909  0.32453  0.14626  1.0000
  H   H34       1.0  0.29909  0.67547  0.64626  1.0000
  H   H35       1.0  0.79909  0.82453  0.14626  1.0000
  H   H36       1.0  0.79909  0.17547  0.64626  1.0000
  C   C57       1.0  0.27590  0.21320  0.34740  1.0000
  C   C58       1.0  0.27590  0.78680  0.84740  1.0000
  C   C59       1.0  0.77590  0.71320  0.34740  1.0000
  C   C60       1.0  0.77590  0.28680  0.84740  1.0000
  N   N53       1.0  0.10530  0.26010  0.99570  1.0000
  N   N54       1.0  0.10530  0.73990  0.49570  1.0000
  N   N55       1.0  0.60530  0.76010  0.99570  1.0000
  N   N56       1.0  0.60530  0.23990  0.49570  1.0000
  N   N57       1.0  0.86250  0.37860  0.13420  1.0000
  N   N58       1.0  0.86250  0.62140  0.63420  1.0000
  N   N59       1.0  0.36250  0.87860  0.13420  1.0000
  N   N60       1.0  0.36250  0.12140  0.63420  1.0000
  H   H37       1.0  0.86194  0.38725  0.05031  1.0000
  H   H38       1.0  0.86194  0.61275  0.55031  1.0000
  H   H39       1.0  0.36194  0.88725  0.05031  1.0000
  H   H40       1.0  0.36194  0.11275  0.55031  1.0000
  H   H41       1.0  0.91377  0.38034  0.20603  1.0000
  H   H42       1.0  0.91377  0.61966  0.70603  1.0000
  H   H43       1.0  0.41377  0.88034  0.20603  1.0000
  H   H44       1.0  0.41377  0.11966  0.70603  1.0000
  C   C61       1.0  0.14330  0.49650  0.26290  1.0000
  C   C62       1.0  0.14330  0.50350  0.76290  1.0000
  C   C63       1.0  0.64330  0.99650  0.26290  1.0000
  C   C64       1.0  0.64330  0.00350  0.76290  1.0000
  H   H45       1.0  0.19152  0.49405  0.35016  1.0000
  H   H46       1.0  0.19152  0.50595  0.85016  1.0000
  H   H47       1.0  0.69152  0.99405  0.35016  1.0000
  H   H48       1.0  0.69152  0.00595  0.85016  1.0000
  C   C65       1.0  0.01970  0.57330  0.02260  1.0000
  C   C66       1.0  0.01970  0.42670  0.52260  1.0000
  C   C67       1.0  0.51970  0.07330  0.02260  1.0000
  C   C68       1.0  0.51970  0.92670  0.52260  1.0000
  C   C69       1.0  0.12440  0.28690  0.09060  1.0000
  C   C70       1.0  0.12440  0.71310  0.59060  1.0000
  C   C71       1.0  0.62440  0.78690  0.09060  1.0000
  C   C72       1.0  0.62440  0.21310  0.59060  1.0000
  H   H49       1.0  0.14895  0.27953  0.18704  1.0000
  H   H50       1.0  0.14895  0.72047  0.68704  1.0000
  H   H51       1.0  0.64895  0.77953  0.18704  1.0000
  H   H52       1.0  0.64895  0.22047  0.68704  1.0000
  C   C73       1.0  0.02000  0.28070  0.62140  1.0000
  C   C74       1.0  0.02000  0.71930  0.12140  1.0000
  C   C75       1.0  0.52000  0.78070  0.62140  1.0000
  C   C76       1.0  0.52000  0.21930  0.12140  1.0000
  H   H53       1.0  0.99881  0.27428  0.52338  1.0000
  H   H54       1.0  0.99881  0.72572  0.02338  1.0000
  H   H55       1.0  0.49881  0.77428  0.52338  1.0000
  H   H56       1.0  0.49881  0.22572  0.02338  1.0000
  C   C77       1.0  0.36160  0.34650  0.45970  1.0000
  C   C78       1.0  0.36160  0.65350  0.95970  1.0000
  C   C79       1.0  0.86160  0.84650  0.45970  1.0000
  C   C80       1.0  0.86160  0.15350  0.95970  1.0000
  C   C81       1.0  0.34630  0.26870  0.75900  1.0000
  C   C82       1.0  0.34630  0.73130  0.25900  1.0000
  C   C83       1.0  0.84630  0.76870  0.75900  1.0000
  C   C84       1.0  0.84630  0.23130  0.25900  1.0000
  C   C85       1.0  0.78490  0.36260  0.15280  1.0000
  C   C86       1.0  0.78490  0.63740  0.65280  1.0000
  C   C87       1.0  0.28490  0.86260  0.15280  1.0000
  C   C88       1.0  0.28490  0.13740  0.65280  1.0000
  C   C89       1.0  0.05030  0.53670  0.08680  1.0000
  C   C90       1.0  0.05030  0.46330  0.58680  1.0000
  C   C91       1.0  0.55030  0.03670  0.08680  1.0000
  C   C92       1.0  0.55030  0.96330  0.58680  1.0000
  C   C93       1.0  0.00140  0.50590  0.00780  1.0000
  C   C94       1.0  0.00140  0.49410  0.50780  1.0000
  C   C95       1.0  0.50140  0.00590  0.00780  1.0000
  C   C96       1.0  0.50140  0.99410  0.50780  1.0000
  H   H57       1.0  0.95262  0.50921  0.92171  1.0000
  H   H58       1.0  0.95262  0.49079  0.42171  1.0000
  H   H59       1.0  0.45262  0.00921  0.92171  1.0000
  H   H60       1.0  0.45262  0.99079  0.42171  1.0000
  C   C97       1.0  0.23090  0.25240  0.53440  1.0000
  C   C98       1.0  0.23090  0.74760  0.03440  1.0000
  C   C99       1.0  0.73090  0.75240  0.53440  1.0000
  C   C100      1.0  0.73090  0.24760  0.03440  1.0000
  H   H61       1.0  0.16770  0.25297  0.47517  1.0000
  H   H62       1.0  0.16770  0.74703  0.97517  1.0000
  H   H63       1.0  0.66770  0.75297  0.47517  1.0000
  H   H64       1.0  0.66770  0.24703  0.97517  1.0000
  C   C101      1.0  0.41190  0.24690  0.71820  1.0000
  C   C102      1.0  0.41190  0.75310  0.21820  1.0000
  C   C103      1.0  0.91190  0.74690  0.71820  1.0000
  C   C104      1.0  0.91190  0.25310  0.21820  1.0000
  H   H65       1.0  0.47317  0.24341  0.78149  1.0000
  H   H66       1.0  0.47317  0.75659  0.28149  1.0000
  H   H67       1.0  0.97317  0.74341  0.78149  1.0000
  H   H68       1.0  0.97317  0.25659  0.28149  1.0000
  O   O33       1.0  0.33900  0.19140  0.32230  1.0000
  O   O34       1.0  0.33900  0.80860  0.82230  1.0000
  O   O35       1.0  0.83900  0.69140  0.32230  1.0000
  O   O36       1.0  0.83900  0.30860  0.82230  1.0000
  C   C105      1.0  0.06580  0.31134  0.81180  1.0000
  C   C106      1.0  0.06580  0.68866  0.31180  1.0000
  C   C107      1.0  0.56580  0.81134  0.81180  1.0000
  C   C108      1.0  0.56580  0.18866  0.31180  1.0000
  C   C109      1.0  0.63330  0.34270  0.07000  1.0000
  C   C110      1.0  0.63330  0.65730  0.57000  1.0000
  C   C111      1.0  0.13330  0.84270  0.07000  1.0000
  C   C112      1.0  0.13330  0.15730  0.57000  1.0000
  H   H69       1.0  0.57851  0.34203  0.99077  1.0000
  H   H70       1.0  0.57851  0.65797  0.49077  1.0000
  H   H71       1.0  0.07851  0.84203  0.99077  1.0000
  H   H72       1.0  0.07851  0.15797  0.49077  1.0000
  C   C113      1.0  0.38720  0.23020  0.58350  1.0000
  C   C114      1.0  0.38720  0.76980  0.08350  1.0000
  C   C115      1.0  0.88720  0.73020  0.58350  1.0000
  C   C116      1.0  0.88720  0.26980  0.08350  1.0000
  H   H73       1.0  0.43468  0.21769  0.55359  1.0000
  H   H74       1.0  0.43468  0.78231  0.05359  1.0000
  H   H75       1.0  0.93468  0.71769  0.55359  1.0000
  H   H76       1.0  0.93468  0.28231  0.05359  1.0000
  C   C117      1.0  0.11760  0.53250  0.20840  1.0000
  C   C118      1.0  0.11760  0.46750  0.70840  1.0000
  C   C119      1.0  0.61760  0.03250  0.20840  1.0000
  C   C120      1.0  0.61760  0.96750  0.70840  1.0000
  H   H77       1.0  0.14864  0.55288  0.25922  1.0000
  H   H78       1.0  0.14864  0.44712  0.75922  1.0000
  H   H79       1.0  0.64864  0.05288  0.25922  1.0000
  H   H80       1.0  0.64864  0.94712  0.75922  1.0000
  C   C121      1.0  0.08810  0.33715  0.92460  1.0000
  C   C122      1.0  0.08810  0.66285  0.42460  1.0000
  C   C123      1.0  0.58810  0.83715  0.92460  1.0000
  C   C124      1.0  0.58810  0.16285  0.42460  1.0000
