data_image0
_chemical_formula_structural       Bi4O32N8C40H48
_chemical_formula_sum              "Bi4 O32 N8 C40 H48"
_cell_length_a       12.792
_cell_length_b       9.165
_cell_length_c       13.094
_cell_angle_alpha    90
_cell_angle_beta     91.92
_cell_angle_gamma    90

_space_group_name_H-M_alt    "P 1"
_space_group_IT_number       1

loop_
  _space_group_symop_operation_xyz
  'x, y, z'

loop_
  _atom_site_type_symbol
  _atom_site_label
  _atom_site_symmetry_multiplicity
  _atom_site_fract_x
  _atom_site_fract_y
  _atom_site_fract_z
  _atom_site_occupancy
  Bi  Bi1       1.0  0.15906  0.22053  0.20111  1.0000
  Bi  Bi2       1.0  0.84094  0.72053  0.29889  1.0000
  Bi  Bi3       1.0  0.84094  0.77947  0.79889  1.0000
  Bi  Bi4       1.0  0.15906  0.27947  0.70111  1.0000
  O   O1        1.0  0.10830  0.26030  0.36950  1.0000
  O   O2        1.0  0.89170  0.76030  0.13050  1.0000
  O   O3        1.0  0.89170  0.73970  0.63050  1.0000
  O   O4        1.0  0.10830  0.23970  0.86950  1.0000
  O   O5        1.0  0.11740  0.40330  0.50810  1.0000
  O   O6        1.0  0.88260  0.90330  0.99190  1.0000
  O   O7        1.0  0.88260  0.59670  0.49190  1.0000
  O   O8        1.0  0.11740  0.09670  0.00810  1.0000
  O   O9        1.0  0.17730  0.47200  0.13110  1.0000
  O   O10       1.0  0.82270  0.97200  0.36890  1.0000
  O   O11       1.0  0.82270  0.52800  0.86890  1.0000
  O   O12       1.0  0.17730  0.02800  0.63110  1.0000
  O   O13       1.0  0.28370  0.66160  0.10950  1.0000
  O   O14       1.0  0.71630  0.16160  0.39050  1.0000
  O   O15       1.0  0.71630  0.33840  0.89050  1.0000
  O   O16       1.0  0.28370  0.83840  0.60950  1.0000
  O   O17       1.0  0.31090  0.17350  0.11940  1.0000
  O   O18       1.0  0.68910  0.67350  0.38060  1.0000
  O   O19       1.0  0.68910  0.82650  0.88060  1.0000
  O   O20       1.0  0.31090  0.32650  0.61940  1.0000
  O   O21       1.0  0.44900  0.03320  0.10260  1.0000
  O   O22       1.0  0.55100  0.53320  0.39740  1.0000
  O   O23       1.0  0.55100  0.96680  0.89740  1.0000
  O   O24       1.0  0.44900  0.46680  0.60260  1.0000
  O   O25       1.0  0.07810  0.97720  0.21840  1.0000
  O   O26       1.0  0.92190  0.47720  0.28160  1.0000
  O   O27       1.0  0.92190  0.02280  0.78160  1.0000
  O   O28       1.0  0.07810  0.52280  0.71840  1.0000
  O   O29       1.0  0.05210  0.79220  0.32760  1.0000
  O   O30       1.0  0.94790  0.29220  0.17240  1.0000
  O   O31       1.0  0.94790  0.20780  0.67240  1.0000
  O   O32       1.0  0.05210  0.70780  0.82760  1.0000
  N   N1        1.0  0.29500  0.36910  0.29370  1.0000
  N   N2        1.0  0.70500  0.86910  0.20630  1.0000
  N   N3        1.0  0.70500  0.63090  0.70630  1.0000
  N   N4        1.0  0.29500  0.13090  0.79370  1.0000
  N   N5        1.0  0.26800  0.05360  0.30890  1.0000
  N   N6        1.0  0.73200  0.55360  0.19110  1.0000
  N   N7        1.0  0.73200  0.94640  0.69110  1.0000
  N   N8        1.0  0.26800  0.44640  0.80890  1.0000
  C   C1        1.0  0.23600  0.45080  0.37710  1.0000
  C   C2        1.0  0.76400  0.95080  0.12290  1.0000
  C   C3        1.0  0.76400  0.54920  0.62290  1.0000
  C   C4        1.0  0.23600  0.04920  0.87710  1.0000
  C   C5        1.0  0.14780  0.36460  0.42350  1.0000
  C   C6        1.0  0.85220  0.86460  0.07650  1.0000
  C   C7        1.0  0.85220  0.63540  0.57650  1.0000
  C   C8        1.0  0.14780  0.13540  0.92350  1.0000
  C   C9        1.0  0.34100  0.47550  0.22340  1.0000
  C   C10       1.0  0.65900  0.97550  0.27660  1.0000
  C   C11       1.0  0.65900  0.52450  0.77660  1.0000
  C   C12       1.0  0.34100  0.02450  0.72340  1.0000
  C   C13       1.0  0.26170  0.54070  0.15120  1.0000
  C   C14       1.0  0.73830  0.04070  0.34880  1.0000
  C   C15       1.0  0.73830  0.45930  0.84880  1.0000
  C   C16       1.0  0.26170  0.95930  0.65120  1.0000
  C   C17       1.0  0.37710  0.27310  0.34170  1.0000
  C   C18       1.0  0.62290  0.77310  0.15830  1.0000
  C   C19       1.0  0.62290  0.72690  0.65830  1.0000
  C   C20       1.0  0.37710  0.22690  0.84170  1.0000
  C   C21       1.0  0.33250  0.13770  0.38690  1.0000
  C   C22       1.0  0.66750  0.63770  0.11310  1.0000
  C   C23       1.0  0.66750  0.86230  0.61310  1.0000
  C   C24       1.0  0.33250  0.36230  0.88690  1.0000
  C   C25       1.0  0.33540  0.97400  0.23420  1.0000
  C   C26       1.0  0.66460  0.47400  0.26580  1.0000
  C   C27       1.0  0.66460  0.02600  0.76580  1.0000
  C   C28       1.0  0.33540  0.52600  0.73420  1.0000
  C   C29       1.0  0.36850  0.06840  0.14470  1.0000
  C   C30       1.0  0.63150  0.56840  0.35530  1.0000
  C   C31       1.0  0.63150  0.93160  0.85530  1.0000
  C   C32       1.0  0.36850  0.43160  0.64470  1.0000
  C   C33       1.0  0.19890  0.94790  0.36070  1.0000
  C   C34       1.0  0.80110  0.44790  0.13930  1.0000
  C   C35       1.0  0.80110  0.05210  0.63930  1.0000
  C   C36       1.0  0.19890  0.55210  0.86070  1.0000
  C   C37       1.0  0.10230  0.90340  0.29740  1.0000
  C   C38       1.0  0.89770  0.40340  0.20260  1.0000
  C   C39       1.0  0.89770  0.09660  0.70260  1.0000
  C   C40       1.0  0.10230  0.59660  0.79740  1.0000
  H   H1        1.0  0.21200  0.52700  0.37900  1.0000
  H   H2        1.0  0.78800  0.02700  0.12100  1.0000
  H   H3        1.0  0.78800  0.47300  0.62100  1.0000
  H   H4        1.0  0.21200  0.97300  0.87900  1.0000
  H   H5        1.0  0.28300  0.47800  0.42800  1.0000
  H   H6        1.0  0.71700  0.97800  0.07200  1.0000
  H   H7        1.0  0.71700  0.52200  0.57200  1.0000
  H   H8        1.0  0.28300  0.02200  0.92800  1.0000
  H   H9        1.0  0.38500  0.42600  0.18400  1.0000
  H   H10       1.0  0.61500  0.92600  0.31600  1.0000
  H   H11       1.0  0.61500  0.57400  0.81600  1.0000
  H   H12       1.0  0.38500  0.07400  0.68400  1.0000
  H   H13       1.0  0.37000  0.55100  0.24100  1.0000
  H   H14       1.0  0.63000  0.05100  0.25900  1.0000
  H   H15       1.0  0.63000  0.44900  0.75900  1.0000
  H   H16       1.0  0.37000  0.94900  0.74100  1.0000
  H   H17       1.0  0.41800  0.30400  0.41000  1.0000
  H   H18       1.0  0.58200  0.80400  0.09000  1.0000
  H   H19       1.0  0.58200  0.69600  0.59000  1.0000
  H   H20       1.0  0.41800  0.19600  0.91000  1.0000
  H   H21       1.0  0.42200  0.24900  0.31300  1.0000
  H   H22       1.0  0.57800  0.74900  0.18700  1.0000
  H   H23       1.0  0.57800  0.75100  0.68700  1.0000
  H   H24       1.0  0.42200  0.25100  0.81300  1.0000
  H   H25       1.0  0.32200  0.12300  0.45400  1.0000
  H   H26       1.0  0.67800  0.62300  0.04600  1.0000
  H   H27       1.0  0.67800  0.87700  0.54600  1.0000
  H   H28       1.0  0.32200  0.37700  0.95400  1.0000
  H   H29       1.0  0.39400  0.08000  0.40700  1.0000
  H   H30       1.0  0.60600  0.58000  0.09300  1.0000
  H   H31       1.0  0.60600  0.92000  0.59300  1.0000
  H   H32       1.0  0.39400  0.42000  0.90700  1.0000
  H   H33       1.0  0.29500  0.88600  0.19600  1.0000
  H   H34       1.0  0.70500  0.38600  0.30400  1.0000
  H   H35       1.0  0.70500  0.11400  0.80400  1.0000
  H   H36       1.0  0.29500  0.61400  0.69600  1.0000
  H   H37       1.0  0.38800  0.94100  0.25500  1.0000
  H   H38       1.0  0.61200  0.44100  0.24500  1.0000
  H   H39       1.0  0.61200  0.05900  0.74500  1.0000
  H   H40       1.0  0.38800  0.55900  0.75500  1.0000
  H   H41       1.0  0.17900  0.98700  0.42000  1.0000
  H   H42       1.0  0.82100  0.48700  0.08000  1.0000
  H   H43       1.0  0.82100  0.01300  0.58000  1.0000
  H   H44       1.0  0.17900  0.51300  0.92000  1.0000
  H   H45       1.0  0.23700  0.86600  0.37700  1.0000
  H   H46       1.0  0.76300  0.36600  0.12300  1.0000
  H   H47       1.0  0.76300  0.13400  0.62300  1.0000
  H   H48       1.0  0.23700  0.63400  0.87700  1.0000
