data_image0
_chemical_formula_structural       Co20P12Cl4O36C12O12C12O12C12H12O12C12H12C24H12
_chemical_formula_sum              "Co20 P12 Cl4 O72 C72 H36"
_cell_length_a       13.809
_cell_length_b       13.809
_cell_length_c       30.004
_cell_angle_alpha    90
_cell_angle_beta     90
_cell_angle_gamma    120

_space_group_name_H-M_alt    "P 1"
_space_group_IT_number       1

loop_
  _space_group_symop_operation_xyz
  'x, y, z'

loop_
  _atom_site_type_symbol
  _atom_site_label
  _atom_site_symmetry_multiplicity
  _atom_site_fract_x
  _atom_site_fract_y
  _atom_site_fract_z
  _atom_site_occupancy
  Co  Co1       1.0  0.64226  0.09780  0.46295  1.0000
  Co  Co2       1.0  0.90220  0.54446  0.46295  1.0000
  Co  Co3       1.0  0.45554  0.35774  0.46295  1.0000
  Co  Co4       1.0  0.09780  0.64226  0.03705  1.0000
  Co  Co5       1.0  0.54446  0.90220  0.03705  1.0000
  Co  Co6       1.0  0.35774  0.45554  0.03705  1.0000
  Co  Co7       1.0  0.35774  0.90220  0.53705  1.0000
  Co  Co8       1.0  0.09780  0.45554  0.53705  1.0000
  Co  Co9       1.0  0.54446  0.64226  0.53705  1.0000
  Co  Co10      1.0  0.90220  0.35774  0.96295  1.0000
  Co  Co11      1.0  0.45554  0.09780  0.96295  1.0000
  Co  Co12      1.0  0.64226  0.54446  0.96295  1.0000
  Co  Co13      1.0  0.66670  0.33330  0.42564  1.0000
  Co  Co14      1.0  0.33330  0.66670  0.07436  1.0000
  Co  Co15      1.0  0.33330  0.66670  0.57436  1.0000
  Co  Co16      1.0  0.66670  0.33330  0.92564  1.0000
  Co  Co17      1.0  0.66670  0.33330  0.56486  1.0000
  Co  Co18      1.0  0.33330  0.66670  0.93514  1.0000
  Co  Co19      1.0  0.33330  0.66670  0.43514  1.0000
  Co  Co20      1.0  0.66670  0.33330  0.06486  1.0000
  P   P1        1.0  0.47785  0.15884  0.50138  1.0000
  P   P2        1.0  0.84116  0.31901  0.50138  1.0000
  P   P3        1.0  0.68099  0.52215  0.50138  1.0000
  P   P4        1.0  0.15884  0.47785  0.99862  1.0000
  P   P5        1.0  0.31901  0.84116  0.99862  1.0000
  P   P6        1.0  0.52215  0.68099  0.99862  1.0000
  P   P7        1.0  0.52215  0.84116  0.49862  1.0000
  P   P8        1.0  0.15884  0.68099  0.49862  1.0000
  P   P9        1.0  0.31901  0.47785  0.49862  1.0000
  P   P10       1.0  0.84116  0.52215  0.00138  1.0000
  P   P11       1.0  0.68099  0.15884  0.00138  1.0000
  P   P12       1.0  0.47785  0.31901  0.00138  1.0000
  Cl  Cl1       1.0  0.66670  0.33330  0.64154  1.0000
  Cl  Cl2       1.0  0.33330  0.66670  0.85846  1.0000
  Cl  Cl3       1.0  0.33330  0.66670  0.35846  1.0000
  Cl  Cl4       1.0  0.66670  0.33330  0.14154  1.0000
  O   O1        1.0  0.56750  0.18950  0.46468  1.0000
  O   O2        1.0  0.81050  0.37800  0.46468  1.0000
  O   O3        1.0  0.62200  0.43250  0.46468  1.0000
  O   O4        1.0  0.18950  0.56750  0.03532  1.0000
  O   O5        1.0  0.37800  0.81050  0.03532  1.0000
  O   O6        1.0  0.43250  0.62200  0.03532  1.0000
  O   O7        1.0  0.43250  0.81050  0.53532  1.0000
  O   O8        1.0  0.18950  0.62200  0.53532  1.0000
  O   O9        1.0  0.37800  0.56750  0.53532  1.0000
  O   O10       1.0  0.81050  0.43250  0.96468  1.0000
  O   O11       1.0  0.62200  0.18950  0.96468  1.0000
  O   O12       1.0  0.56750  0.37800  0.96468  1.0000
  O   O13       1.0  0.70080  0.23340  0.38245  1.0000
  O   O14       1.0  0.76660  0.46740  0.38245  1.0000
  O   O15       1.0  0.53260  0.29920  0.38245  1.0000
  O   O16       1.0  0.23340  0.70080  0.11755  1.0000
  O   O17       1.0  0.46740  0.76660  0.11755  1.0000
  O   O18       1.0  0.29920  0.53260  0.11755  1.0000
  O   O19       1.0  0.29920  0.76660  0.61755  1.0000
  O   O20       1.0  0.23340  0.53260  0.61755  1.0000
  O   O21       1.0  0.46740  0.70080  0.61755  1.0000
  O   O22       1.0  0.76660  0.29920  0.88245  1.0000
  O   O23       1.0  0.53260  0.23340  0.88245  1.0000
  O   O24       1.0  0.70080  0.46740  0.88245  1.0000
  O   O25       1.0  0.62970  0.05430  0.40001  1.0000
  O   O26       1.0  0.94570  0.57540  0.40001  1.0000
  O   O27       1.0  0.42460  0.37030  0.40001  1.0000
  O   O28       1.0  0.05430  0.62970  0.09999  1.0000
  O   O29       1.0  0.57540  0.94570  0.09999  1.0000
  O   O30       1.0  0.37030  0.42460  0.09999  1.0000
  O   O31       1.0  0.37030  0.94570  0.59999  1.0000
  O   O32       1.0  0.05430  0.42460  0.59999  1.0000
  O   O33       1.0  0.57540  0.62970  0.59999  1.0000
  O   O34       1.0  0.94570  0.37030  0.90001  1.0000
  O   O35       1.0  0.42460  0.05430  0.90001  1.0000
  O   O36       1.0  0.62970  0.57540  0.90001  1.0000
  C   C1        1.0  0.63820  0.09990  0.32393  1.0000
  C   C2        1.0  0.90010  0.53830  0.32393  1.0000
  C   C3        1.0  0.46170  0.36180  0.32393  1.0000
  C   C4        1.0  0.09990  0.63820  0.17607  1.0000
  C   C5        1.0  0.53830  0.90010  0.17607  1.0000
  C   C6        1.0  0.36180  0.46170  0.17607  1.0000
  C   C7        1.0  0.36180  0.90010  0.67607  1.0000
  C   C8        1.0  0.09990  0.46170  0.67607  1.0000
  C   C9        1.0  0.53830  0.63820  0.67607  1.0000
  C   C10       1.0  0.90010  0.36180  0.82393  1.0000
  C   C11       1.0  0.46170  0.09990  0.82393  1.0000
  C   C12       1.0  0.63820  0.53830  0.82393  1.0000
  O   O37       1.0  0.40090  0.03270  0.50050  1.0000
  O   O38       1.0  0.96730  0.36820  0.50050  1.0000
  O   O39       1.0  0.63180  0.59910  0.50050  1.0000
  O   O40       1.0  0.03270  0.40090  0.99950  1.0000
  O   O41       1.0  0.36820  0.96730  0.99950  1.0000
  O   O42       1.0  0.59910  0.63180  0.99950  1.0000
  O   O43       1.0  0.59910  0.96730  0.49950  1.0000
  O   O44       1.0  0.03270  0.63180  0.49950  1.0000
  O   O45       1.0  0.36820  0.40090  0.49950  1.0000
  O   O46       1.0  0.96730  0.59910  0.00050  1.0000
  O   O47       1.0  0.63180  0.03270  0.00050  1.0000
  O   O48       1.0  0.40090  0.36820  0.00050  1.0000
  C   C13       1.0  0.65770  0.13260  0.37229  1.0000
  C   C14       1.0  0.86740  0.52510  0.37229  1.0000
  C   C15       1.0  0.47490  0.34230  0.37229  1.0000
  C   C16       1.0  0.13260  0.65770  0.12771  1.0000
  C   C17       1.0  0.52510  0.86740  0.12771  1.0000
  C   C18       1.0  0.34230  0.47490  0.12771  1.0000
  C   C19       1.0  0.34230  0.86740  0.62771  1.0000
  C   C20       1.0  0.13260  0.47490  0.62771  1.0000
  C   C21       1.0  0.52510  0.65770  0.62771  1.0000
  C   C22       1.0  0.86740  0.34230  0.87229  1.0000
  C   C23       1.0  0.47490  0.13260  0.87229  1.0000
  C   C24       1.0  0.65770  0.52510  0.87229  1.0000
  O   O49       1.0  0.40830  0.21380  0.49064  1.0000
  O   O50       1.0  0.78620  0.19450  0.49064  1.0000
  O   O51       1.0  0.80550  0.59170  0.49064  1.0000
  O   O52       1.0  0.21380  0.40830  0.00936  1.0000
  O   O53       1.0  0.19450  0.78620  0.00936  1.0000
  O   O54       1.0  0.59170  0.80550  0.00936  1.0000
  O   O55       1.0  0.59170  0.78620  0.50936  1.0000
  O   O56       1.0  0.21380  0.80550  0.50936  1.0000
  O   O57       1.0  0.19450  0.40830  0.50936  1.0000
  O   O58       1.0  0.78620  0.59170  0.99064  1.0000
  O   O59       1.0  0.80550  0.21380  0.99064  1.0000
  O   O60       1.0  0.40830  0.19450  0.99064  1.0000
  C   C25       1.0  0.58050  0.99040  0.31176  1.0000
  C   C26       1.0  0.00960  0.59010  0.31176  1.0000
  C   C27       1.0  0.40990  0.41950  0.31176  1.0000
  C   C28       1.0  0.99040  0.58050  0.18824  1.0000
  C   C29       1.0  0.59010  0.00960  0.18824  1.0000
  C   C30       1.0  0.41950  0.40990  0.18824  1.0000
  C   C31       1.0  0.41950  0.00960  0.68824  1.0000
  C   C32       1.0  0.99040  0.40990  0.68824  1.0000
  C   C33       1.0  0.59010  0.58050  0.68824  1.0000
  C   C34       1.0  0.00960  0.41950  0.81176  1.0000
  C   C35       1.0  0.40990  0.99040  0.81176  1.0000
  C   C36       1.0  0.58050  0.59010  0.81176  1.0000
  H   H1        1.0  0.55230  0.93560  0.33370  1.0000
  H   H2        1.0  0.06440  0.61670  0.33370  1.0000
  H   H3        1.0  0.38330  0.44770  0.33370  1.0000
  H   H4        1.0  0.93560  0.55230  0.16630  1.0000
  H   H5        1.0  0.61670  0.06440  0.16630  1.0000
  H   H6        1.0  0.44770  0.38330  0.16630  1.0000
  H   H7        1.0  0.44770  0.06440  0.66630  1.0000
  H   H8        1.0  0.93560  0.38330  0.66630  1.0000
  H   H9        1.0  0.61670  0.55230  0.66630  1.0000
  H   H10       1.0  0.06440  0.44770  0.83370  1.0000
  H   H11       1.0  0.38330  0.93560  0.83370  1.0000
  H   H12       1.0  0.55230  0.61670  0.83370  1.0000
  O   O61       1.0  0.53530  0.19650  0.54655  1.0000
  O   O62       1.0  0.80350  0.33880  0.54655  1.0000
  O   O63       1.0  0.66120  0.46470  0.54655  1.0000
  O   O64       1.0  0.19650  0.53530  0.95345  1.0000
  O   O65       1.0  0.33880  0.80350  0.95345  1.0000
  O   O66       1.0  0.46470  0.66120  0.95345  1.0000
  O   O67       1.0  0.46470  0.80350  0.45345  1.0000
  O   O68       1.0  0.19650  0.66120  0.45345  1.0000
  O   O69       1.0  0.33880  0.53530  0.45345  1.0000
  O   O70       1.0  0.80350  0.46470  0.04655  1.0000
  O   O71       1.0  0.66120  0.19650  0.04655  1.0000
  O   O72       1.0  0.53530  0.33880  0.04655  1.0000
  C   C37       1.0  0.67970  0.18430  0.29080  1.0000
  C   C38       1.0  0.81570  0.49540  0.29080  1.0000
  C   C39       1.0  0.50460  0.32030  0.29080  1.0000
  C   C40       1.0  0.18430  0.67970  0.20920  1.0000
  C   C41       1.0  0.49540  0.81570  0.20920  1.0000
  C   C42       1.0  0.32030  0.50460  0.20920  1.0000
  C   C43       1.0  0.32030  0.81570  0.70920  1.0000
  C   C44       1.0  0.18430  0.50460  0.70920  1.0000
  C   C45       1.0  0.49540  0.67970  0.70920  1.0000
  C   C46       1.0  0.81570  0.32030  0.79080  1.0000
  C   C47       1.0  0.50460  0.18430  0.79080  1.0000
  C   C48       1.0  0.67970  0.49540  0.79080  1.0000
  H   H13       1.0  0.71950  0.25920  0.29900  1.0000
  H   H14       1.0  0.74080  0.46030  0.29900  1.0000
  H   H15       1.0  0.53970  0.28050  0.29900  1.0000
  H   H16       1.0  0.25920  0.71950  0.20100  1.0000
  H   H17       1.0  0.46030  0.74080  0.20100  1.0000
  H   H18       1.0  0.28050  0.53970  0.20100  1.0000
  H   H19       1.0  0.28050  0.74080  0.70100  1.0000
  H   H20       1.0  0.25920  0.53970  0.70100  1.0000
  H   H21       1.0  0.46030  0.71950  0.70100  1.0000
  H   H22       1.0  0.74080  0.28050  0.79900  1.0000
  H   H23       1.0  0.53970  0.25920  0.79900  1.0000
  H   H24       1.0  0.71950  0.46030  0.79900  1.0000
  C   C49       1.0  0.56240  0.95810  0.26668  1.0000
  C   C50       1.0  0.04190  0.60430  0.26668  1.0000
  C   C51       1.0  0.39570  0.43760  0.26668  1.0000
  C   C52       1.0  0.95810  0.56240  0.23332  1.0000
  C   C53       1.0  0.60430  0.04190  0.23332  1.0000
  C   C54       1.0  0.43760  0.39570  0.23332  1.0000
  C   C55       1.0  0.43760  0.04190  0.73332  1.0000
  C   C56       1.0  0.95810  0.39570  0.73332  1.0000
  C   C57       1.0  0.60430  0.56240  0.73332  1.0000
  C   C58       1.0  0.04190  0.43760  0.76668  1.0000
  C   C59       1.0  0.39570  0.95810  0.76668  1.0000
  C   C60       1.0  0.56240  0.60430  0.76668  1.0000
  C   C61       1.0  0.66140  0.15580  0.24680  1.0000
  C   C62       1.0  0.84420  0.50560  0.24680  1.0000
  C   C63       1.0  0.49440  0.33860  0.24680  1.0000
  C   C64       1.0  0.15580  0.66140  0.25320  1.0000
  C   C65       1.0  0.50560  0.84420  0.25320  1.0000
  C   C66       1.0  0.33860  0.49440  0.25320  1.0000
  C   C67       1.0  0.33860  0.84420  0.75320  1.0000
  C   C68       1.0  0.15580  0.49440  0.75320  1.0000
  C   C69       1.0  0.50560  0.66140  0.75320  1.0000
  C   C70       1.0  0.84420  0.33860  0.74680  1.0000
  C   C71       1.0  0.49440  0.15580  0.74680  1.0000
  C   C72       1.0  0.66140  0.50560  0.74680  1.0000
  H   H25       1.0  0.68660  0.21180  0.22530  1.0000
  H   H26       1.0  0.78820  0.47480  0.22530  1.0000
  H   H27       1.0  0.52520  0.31340  0.22530  1.0000
  H   H28       1.0  0.21180  0.68660  0.27470  1.0000
  H   H29       1.0  0.47480  0.78820  0.27470  1.0000
  H   H30       1.0  0.31340  0.52520  0.27470  1.0000
  H   H31       1.0  0.31340  0.78820  0.77470  1.0000
  H   H32       1.0  0.21180  0.52520  0.77470  1.0000
  H   H33       1.0  0.47480  0.68660  0.77470  1.0000
  H   H34       1.0  0.78820  0.31340  0.72530  1.0000
  H   H35       1.0  0.52520  0.21180  0.72530  1.0000
  H   H36       1.0  0.68660  0.47480  0.72530  1.0000
