data_image0
_chemical_formula_structural       Zn4C4H4C4H4C8H4C4H4C4Cl8N4O8
_chemical_formula_sum              "Zn4 C24 H16 Cl8 N4 O8"
_cell_length_a       7.1334
_cell_length_b       22.369
_cell_length_c       7.0089
_cell_angle_alpha    90
_cell_angle_beta     101.099
_cell_angle_gamma    90

_space_group_name_H-M_alt    "P 1"
_space_group_IT_number       1

loop_
  _space_group_symop_operation_xyz
  'x, y, z'

loop_
  _atom_site_type_symbol
  _atom_site_label
  _atom_site_symmetry_multiplicity
  _atom_site_fract_x
  _atom_site_fract_y
  _atom_site_fract_z
  _atom_site_occupancy
  Zn  Zn1       1.0  0.22945  0.63889  0.75200  1.0000
  Zn  Zn2       1.0  0.77055  0.13889  0.74800  1.0000
  Zn  Zn3       1.0  0.77055  0.36111  0.24800  1.0000
  Zn  Zn4       1.0  0.22945  0.86111  0.25200  1.0000
  C   C1        1.0  0.05890  0.76062  0.70060  1.0000
  C   C2        1.0  0.94110  0.26062  0.79940  1.0000
  C   C3        1.0  0.94110  0.23938  0.29940  1.0000
  C   C4        1.0  0.05890  0.73938  0.20060  1.0000
  H   H1        1.0  0.18351  0.77232  0.75196  1.0000
  H   H2        1.0  0.81649  0.27232  0.74804  1.0000
  H   H3        1.0  0.81649  0.22768  0.24804  1.0000
  H   H4        1.0  0.18351  0.72768  0.25196  1.0000
  C   C5        1.0  0.92310  0.80448  0.64550  1.0000
  C   C6        1.0  0.07690  0.30448  0.85450  1.0000
  C   C7        1.0  0.07690  0.19552  0.35450  1.0000
  C   C8        1.0  0.92310  0.69552  0.14550  1.0000
  H   H5        1.0  0.95537  0.84474  0.65986  1.0000
  H   H6        1.0  0.04463  0.34474  0.84014  1.0000
  H   H7        1.0  0.04463  0.15526  0.34014  1.0000
  H   H8        1.0  0.95537  0.65526  0.15986  1.0000
  C   C9        1.0  0.73660  0.78697  0.56780  1.0000
  C   C10       1.0  0.26340  0.28697  0.93220  1.0000
  C   C11       1.0  0.26340  0.21303  0.43220  1.0000
  C   C12       1.0  0.73660  0.71303  0.06780  1.0000
  C   C13       1.0  0.69640  0.72651  0.54960  1.0000
  C   C14       1.0  0.30360  0.22651  0.95040  1.0000
  C   C15       1.0  0.30360  0.27349  0.45040  1.0000
  C   C16       1.0  0.69640  0.77349  0.04960  1.0000
  H   H9        1.0  0.57344  0.71348  0.49745  1.0000
  H   H10       1.0  0.42656  0.21348  0.00255  1.0000
  H   H11       1.0  0.42656  0.28652  0.50255  1.0000
  H   H12       1.0  0.57344  0.78652  0.99745  1.0000
  C   C17       1.0  0.84050  0.68586  0.60970  1.0000
  C   C18       1.0  0.15950  0.18586  0.89030  1.0000
  C   C19       1.0  0.15950  0.31414  0.39030  1.0000
  C   C20       1.0  0.84050  0.81414  0.10970  1.0000
  H   H13       1.0  0.81191  0.64530  0.59836  1.0000
  H   H14       1.0  0.18809  0.14530  0.90164  1.0000
  H   H15       1.0  0.18809  0.35470  0.40164  1.0000
  H   H16       1.0  0.81191  0.85470  0.09836  1.0000
  C   C21       1.0  0.58310  0.83286  0.49340  1.0000
  C   C22       1.0  0.41690  0.33286  0.00660  1.0000
  C   C23       1.0  0.41690  0.16714  0.50660  1.0000
  C   C24       1.0  0.58310  0.66714  0.99340  1.0000
  Cl  Cl1       1.0  0.09794  0.56331  0.89125  1.0000
  Cl  Cl2       1.0  0.90206  0.06331  0.60875  1.0000
  Cl  Cl3       1.0  0.90206  0.43669  0.10875  1.0000
  Cl  Cl4       1.0  0.09794  0.93669  0.39125  1.0000
  Cl  Cl5       1.0  0.32627  0.61056  0.47965  1.0000
  Cl  Cl6       1.0  0.67373  0.11056  0.02035  1.0000
  Cl  Cl7       1.0  0.67373  0.38944  0.52035  1.0000
  Cl  Cl8       1.0  0.32627  0.88944  0.97965  1.0000
  N   N1        1.0  0.02030  0.70232  0.68380  1.0000
  N   N2        1.0  0.97970  0.20232  0.81620  1.0000
  N   N3        1.0  0.97970  0.29768  0.31620  1.0000
  N   N4        1.0  0.02030  0.79768  0.18380  1.0000
  O   O1        1.0  0.42510  0.81184  0.41210  1.0000
  O   O2        1.0  0.57490  0.31184  0.08790  1.0000
  O   O3        1.0  0.57490  0.18816  0.58790  1.0000
  O   O4        1.0  0.42510  0.68816  0.91210  1.0000
  O   O5        1.0  0.62230  0.88682  0.51610  1.0000
  O   O6        1.0  0.37770  0.38682  0.98390  1.0000
  O   O7        1.0  0.37770  0.11318  0.48390  1.0000
  O   O8        1.0  0.62230  0.61318  0.01610  1.0000
