data_image0
_chemical_formula_structural       Co6I4O16C8H4C4H4C8H4C4H4C8O8C8H4C4H4C4
_chemical_formula_sum              "Co6 I4 O24 C48 H24"
_cell_length_a       13.2922
_cell_length_b       9.4019
_cell_length_c       18.6159
_cell_angle_alpha    90
_cell_angle_beta     110.139
_cell_angle_gamma    90

_space_group_name_H-M_alt    "P 1"
_space_group_IT_number       1

loop_
  _space_group_symop_operation_xyz
  'x, y, z'

loop_
  _atom_site_type_symbol
  _atom_site_label
  _atom_site_symmetry_multiplicity
  _atom_site_fract_x
  _atom_site_fract_y
  _atom_site_fract_z
  _atom_site_occupancy
  Co  Co1       1.0  0.80792  0.96807  0.06806  1.0000
  Co  Co2       1.0  0.69208  0.46807  0.43194  1.0000
  Co  Co3       1.0  0.19208  0.03193  0.93194  1.0000
  Co  Co4       1.0  0.30792  0.53193  0.56806  1.0000
  Co  Co5       1.0  1.00000  0.00000  0.00000  1.0000
  Co  Co6       1.0  0.50000  0.50000  0.50000  1.0000
  I   I1        1.0  0.64840  0.83807  0.08938  1.0000
  I   I2        1.0  0.85160  0.33807  0.41062  1.0000
  I   I3        1.0  0.35160  0.16193  0.91062  1.0000
  I   I4        1.0  0.14840  0.66193  0.58938  1.0000
  O   O1        1.0  0.89650  0.07360  0.15770  1.0000
  O   O2        1.0  0.60350  0.57360  0.34230  1.0000
  O   O3        1.0  0.10350  0.92640  0.84230  1.0000
  O   O4        1.0  0.39650  0.42640  0.65770  1.0000
  O   O5        1.0  0.02300  0.09040  0.10510  1.0000
  O   O6        1.0  0.47700  0.59040  0.39490  1.0000
  O   O7        1.0  0.97700  0.90960  0.89490  1.0000
  O   O8        1.0  0.52300  0.40960  0.60510  1.0000
  O   O9        1.0  0.23680  0.40120  0.48370  1.0000
  O   O10       1.0  0.26320  0.90120  0.01630  1.0000
  O   O11       1.0  0.76320  0.59880  0.51630  1.0000
  O   O12       1.0  0.73680  0.09880  0.98370  1.0000
  O   O13       1.0  0.37370  0.37250  0.44200  1.0000
  O   O14       1.0  0.12630  0.87250  0.05800  1.0000
  O   O15       1.0  0.62630  0.62750  0.55800  1.0000
  O   O16       1.0  0.87370  0.12750  0.94200  1.0000
  C   C1        1.0  0.06550  0.16860  0.23170  1.0000
  C   C2        1.0  0.43450  0.66860  0.26830  1.0000
  C   C3        1.0  0.93450  0.83140  0.76830  1.0000
  C   C4        1.0  0.56550  0.33140  0.73170  1.0000
  C   C5        1.0  0.17130  0.18690  0.24120  1.0000
  C   C6        1.0  0.32870  0.68690  0.25880  1.0000
  C   C7        1.0  0.82870  0.81310  0.75880  1.0000
  C   C8        1.0  0.67130  0.31310  0.74120  1.0000
  H   H1        1.0  0.19620  0.15940  0.20230  1.0000
  H   H2        1.0  0.30380  0.65940  0.29770  1.0000
  H   H3        1.0  0.80380  0.84060  0.79770  1.0000
  H   H4        1.0  0.69620  0.34060  0.70230  1.0000
  C   C9        1.0  0.24220  0.24550  0.30760  1.0000
  C   C10       1.0  0.25780  0.74550  0.19240  1.0000
  C   C11       1.0  0.75780  0.75450  0.69240  1.0000
  C   C12       1.0  0.74220  0.25450  0.80760  1.0000
  H   H5        1.0  0.31440  0.25480  0.31390  1.0000
  H   H6        1.0  0.18560  0.75480  0.18610  1.0000
  H   H7        1.0  0.68560  0.74520  0.68610  1.0000
  H   H8        1.0  0.81440  0.24520  0.81390  1.0000
  C   C13       1.0  0.20420  0.29020  0.36470  1.0000
  C   C14       1.0  0.29580  0.79020  0.13530  1.0000
  C   C15       1.0  0.79580  0.70980  0.63530  1.0000
  C   C16       1.0  0.70420  0.20980  0.86470  1.0000
  C   C17       1.0  0.09700  0.27090  0.35530  1.0000
  C   C18       1.0  0.40300  0.77090  0.14470  1.0000
  C   C19       1.0  0.90300  0.72910  0.64470  1.0000
  C   C20       1.0  0.59700  0.22910  0.85530  1.0000
  H   H9        1.0  0.07170  0.29960  0.39380  1.0000
  H   H10       1.0  0.42830  0.79960  0.10620  1.0000
  H   H11       1.0  0.92830  0.70040  0.60620  1.0000
  H   H12       1.0  0.57170  0.20040  0.89380  1.0000
  C   C21       1.0  0.02730  0.20980  0.28960  1.0000
  C   C22       1.0  0.47270  0.70980  0.21040  1.0000
  C   C23       1.0  0.97270  0.79020  0.71040  1.0000
  C   C24       1.0  0.52730  0.29020  0.78960  1.0000
  H   H13       1.0  0.95570  0.19620  0.28400  1.0000
  H   H14       1.0  0.54430  0.69620  0.21600  1.0000
  H   H15       1.0  0.04430  0.80380  0.71600  1.0000
  H   H16       1.0  0.45570  0.30380  0.78400  1.0000
  C   C25       1.0  0.98940  0.10580  0.15910  1.0000
  C   C26       1.0  0.51060  0.60580  0.34090  1.0000
  C   C27       1.0  0.01060  0.89420  0.84090  1.0000
  C   C28       1.0  0.48940  0.39420  0.65910  1.0000
  C   C29       1.0  0.27850  0.36000  0.43570  1.0000
  C   C30       1.0  0.22150  0.86000  0.06430  1.0000
  C   C31       1.0  0.72150  0.64000  0.56430  1.0000
  C   C32       1.0  0.77850  0.14000  0.93570  1.0000
  O   O17       1.0  0.89330  0.84740  0.02370  1.0000
  O   O18       1.0  0.60670  0.34740  0.47630  1.0000
  O   O19       1.0  0.10670  0.15260  0.97630  1.0000
  O   O20       1.0  0.39330  0.65260  0.52370  1.0000
  O   O21       1.0  0.93560  0.73550  0.13490  1.0000
  O   O22       1.0  0.56440  0.23550  0.36510  1.0000
  O   O23       1.0  0.06440  0.26450  0.86510  1.0000
  O   O24       1.0  0.43560  0.76450  0.63490  1.0000
  C   C33       1.0  0.96750  0.61520  0.03260  1.0000
  C   C34       1.0  0.53250  0.11520  0.46740  1.0000
  C   C35       1.0  0.03250  0.38480  0.96740  1.0000
  C   C36       1.0  0.46750  0.88480  0.53260  1.0000
  C   C37       1.0  0.93860  0.60630  0.95470  1.0000
  C   C38       1.0  0.56140  0.10630  0.54530  1.0000
  C   C39       1.0  0.06140  0.39370  0.04530  1.0000
  C   C40       1.0  0.43860  0.89370  0.45470  1.0000
  H   H17       1.0  0.89760  0.67820  0.92410  1.0000
  H   H18       1.0  0.60240  0.17820  0.57590  1.0000
  H   H19       1.0  0.10240  0.32180  0.07590  1.0000
  H   H20       1.0  0.39760  0.82180  0.42410  1.0000
  C   C41       1.0  0.03000  0.50970  0.07900  1.0000
  C   C42       1.0  0.47000  0.00970  0.42100  1.0000
  C   C43       1.0  0.97000  0.49030  0.92100  1.0000
  C   C44       1.0  0.53000  0.99030  0.57900  1.0000
  H   H21       1.0  0.05060  0.51640  0.13200  1.0000
  H   H22       1.0  0.44940  0.01640  0.36800  1.0000
  H   H23       1.0  0.94940  0.48360  0.86800  1.0000
  H   H24       1.0  0.55060  0.98360  0.63200  1.0000
  C   C45       1.0  0.93190  0.73840  0.06880  1.0000
  C   C46       1.0  0.56810  0.23840  0.43120  1.0000
  C   C47       1.0  0.06810  0.26160  0.93120  1.0000
  C   C48       1.0  0.43190  0.76160  0.56880  1.0000
