data_image0
_chemical_formula_structural       Co6I4C8H4C4H4C8H4C4H4C8O16C8H4C4H4C4O8
_chemical_formula_sum              "Co6 I4 C48 H24 O24"
_cell_length_a       13.4089
_cell_length_b       9.8436
_cell_length_c       18.275
_cell_angle_alpha    90
_cell_angle_beta     109.405
_cell_angle_gamma    90

_space_group_name_H-M_alt    "P 1"
_space_group_IT_number       1

loop_
  _space_group_symop_operation_xyz
  'x, y, z'

loop_
  _atom_site_type_symbol
  _atom_site_label
  _atom_site_symmetry_multiplicity
  _atom_site_fract_x
  _atom_site_fract_y
  _atom_site_fract_z
  _atom_site_occupancy
  Co  Co1       1.0  0.50000  0.50000  0.50000  1.0000
  Co  Co2       1.0  0.50000  0.00000  0.00000  1.0000
  Co  Co3       1.0  0.25009  0.44937  0.43981  1.0000
  Co  Co4       1.0  0.74991  0.94937  0.06019  1.0000
  Co  Co5       1.0  0.74991  0.55063  0.56019  1.0000
  Co  Co6       1.0  0.25009  0.05063  0.93981  1.0000
  I   I1        1.0  0.07098  0.33308  0.42813  1.0000
  I   I2        1.0  0.92902  0.83308  0.07187  1.0000
  I   I3        1.0  0.92902  0.66692  0.57187  1.0000
  I   I4        1.0  0.07098  0.16692  0.92813  1.0000
  C   C1        1.0  0.66460  0.30470  0.36070  1.0000
  C   C2        1.0  0.33540  0.80470  0.13930  1.0000
  C   C3        1.0  0.33540  0.69530  0.63930  1.0000
  C   C4        1.0  0.66460  0.19530  0.86070  1.0000
  C   C5        1.0  0.57420  0.24880  0.30660  1.0000
  C   C6        1.0  0.42580  0.74880  0.19340  1.0000
  C   C7        1.0  0.42580  0.75120  0.69340  1.0000
  C   C8        1.0  0.57420  0.25120  0.80660  1.0000
  H   H1        1.0  0.51080  0.24840  0.31690  1.0000
  H   H2        1.0  0.48920  0.74840  0.18310  1.0000
  H   H3        1.0  0.48920  0.75160  0.68310  1.0000
  H   H4        1.0  0.51080  0.25160  0.81690  1.0000
  C   C9        1.0  0.57800  0.19410  0.23790  1.0000
  C   C10       1.0  0.42200  0.69410  0.26210  1.0000
  C   C11       1.0  0.42200  0.80590  0.76210  1.0000
  C   C12       1.0  0.57800  0.30590  0.73790  1.0000
  H   H5        1.0  0.51540  0.17200  0.19870  1.0000
  H   H6        1.0  0.48460  0.67200  0.30130  1.0000
  H   H7        1.0  0.48460  0.82800  0.80130  1.0000
  H   H8        1.0  0.51540  0.32800  0.69870  1.0000
  C   C13       1.0  0.67590  0.17150  0.22640  1.0000
  C   C14       1.0  0.32410  0.67150  0.27360  1.0000
  C   C15       1.0  0.32410  0.82850  0.77360  1.0000
  C   C16       1.0  0.67590  0.32850  0.72640  1.0000
  C   C17       1.0  0.76750  0.22880  0.28470  1.0000
  C   C18       1.0  0.23250  0.72880  0.21530  1.0000
  C   C19       1.0  0.23250  0.77120  0.71530  1.0000
  C   C20       1.0  0.76750  0.27120  0.78470  1.0000
  H   H9        1.0  0.83310  0.22030  0.27820  1.0000
  H   H10       1.0  0.16690  0.72030  0.22180  1.0000
  H   H11       1.0  0.16690  0.77970  0.72180  1.0000
  H   H12       1.0  0.83310  0.27970  0.77820  1.0000
  C   C21       1.0  0.76190  0.29110  0.34510  1.0000
  C   C22       1.0  0.23810  0.79110  0.15490  1.0000
  C   C23       1.0  0.23810  0.70890  0.65490  1.0000
  C   C24       1.0  0.76190  0.20890  0.84510  1.0000
  H   H13       1.0  0.82310  0.32850  0.37970  1.0000
  H   H14       1.0  0.17690  0.82850  0.12030  1.0000
  H   H15       1.0  0.17690  0.67150  0.62030  1.0000
  H   H16       1.0  0.82310  0.17150  0.87970  1.0000
  C   C25       1.0  0.66020  0.37580  0.42890  1.0000
  C   C26       1.0  0.33980  0.87580  0.07110  1.0000
  C   C27       1.0  0.33980  0.62420  0.57110  1.0000
  C   C28       1.0  0.66020  0.12420  0.92890  1.0000
  C   C29       1.0  0.67530  0.09890  0.15650  1.0000
  C   C30       1.0  0.32470  0.59890  0.34350  1.0000
  C   C31       1.0  0.32470  0.90110  0.84350  1.0000
  C   C32       1.0  0.67530  0.40110  0.65650  1.0000
  O   O1        1.0  0.56660  0.39010  0.43540  1.0000
  O   O2        1.0  0.43340  0.89010  0.06460  1.0000
  O   O3        1.0  0.43340  0.60990  0.56460  1.0000
  O   O4        1.0  0.56660  0.10990  0.93540  1.0000
  O   O5        1.0  0.74070  0.42100  0.47530  1.0000
  O   O6        1.0  0.25930  0.92100  0.02470  1.0000
  O   O7        1.0  0.25930  0.57900  0.52470  1.0000
  O   O8        1.0  0.74070  0.07900  0.97530  1.0000
  O   O9        1.0  0.59090  0.08480  0.10140  1.0000
  O   O10       1.0  0.40910  0.58480  0.39860  1.0000
  O   O11       1.0  0.40910  0.91520  0.89860  1.0000
  O   O12       1.0  0.59090  0.41520  0.60140  1.0000
  O   O13       1.0  0.76480  0.05940  0.15370  1.0000
  O   O14       1.0  0.23520  0.55940  0.34630  1.0000
  O   O15       1.0  0.23520  0.94060  0.84630  1.0000
  O   O16       1.0  0.76480  0.44060  0.65370  1.0000
  C   C33       1.0  0.44340  0.11320  0.46930  1.0000
  C   C34       1.0  0.55660  0.61320  0.03070  1.0000
  C   C35       1.0  0.55660  0.88680  0.53070  1.0000
  C   C36       1.0  0.44340  0.38680  0.96930  1.0000
  C   C37       1.0  0.50210  0.11110  0.54800  1.0000
  C   C38       1.0  0.49790  0.61110  0.95200  1.0000
  C   C39       1.0  0.49790  0.88890  0.45200  1.0000
  C   C40       1.0  0.50210  0.38890  0.04800  1.0000
  H   H17       1.0  0.50200  0.18570  0.57920  1.0000
  H   H18       1.0  0.49800  0.68570  0.92080  1.0000
  H   H19       1.0  0.49800  0.81430  0.42080  1.0000
  H   H20       1.0  0.50200  0.31430  0.07920  1.0000
  C   C41       1.0  0.44000  0.00220  0.42110  1.0000
  C   C42       1.0  0.56000  0.50220  0.07890  1.0000
  C   C43       1.0  0.56000  0.99780  0.57890  1.0000
  C   C44       1.0  0.44000  0.49780  0.92110  1.0000
  H   H21       1.0  0.39910  0.00510  0.36890  1.0000
  H   H22       1.0  0.60090  0.50510  0.13110  1.0000
  H   H23       1.0  0.60090  0.99490  0.63110  1.0000
  H   H24       1.0  0.39910  0.49490  0.86890  1.0000
  C   C45       1.0  0.37030  0.23670  0.43520  1.0000
  C   C46       1.0  0.62970  0.73670  0.06480  1.0000
  C   C47       1.0  0.62970  0.76330  0.56480  1.0000
  C   C48       1.0  0.37030  0.26330  0.93520  1.0000
  O   O17       1.0  0.31350  0.23430  0.37420  1.0000
  O   O18       1.0  0.68650  0.73430  0.12580  1.0000
  O   O19       1.0  0.68650  0.76570  0.62580  1.0000
  O   O20       1.0  0.31350  0.26570  0.87420  1.0000
  O   O21       1.0  0.38110  0.33990  0.48190  1.0000
  O   O22       1.0  0.61890  0.83990  0.01810  1.0000
  O   O23       1.0  0.61890  0.66010  0.51810  1.0000
  O   O24       1.0  0.38110  0.16010  0.98190  1.0000
