data_image0
_chemical_formula_structural       Co6I4O16C8H4C4H4C8H4C4H4C8O8C8H4C4H4C4
_chemical_formula_sum              "Co6 I4 O24 C48 H24"
_cell_length_a       13.4078
_cell_length_b       9.6411
_cell_length_c       18.5041
_cell_angle_alpha    90
_cell_angle_beta     108.572
_cell_angle_gamma    90

_space_group_name_H-M_alt    "P 1"
_space_group_IT_number       1

loop_
  _space_group_symop_operation_xyz
  'x, y, z'

loop_
  _atom_site_type_symbol
  _atom_site_label
  _atom_site_symmetry_multiplicity
  _atom_site_fract_x
  _atom_site_fract_y
  _atom_site_fract_z
  _atom_site_occupancy
  Co  Co1       1.0  0.25382  0.04581  0.05913  1.0000
  Co  Co2       1.0  0.74618  0.54581  0.44087  1.0000
  Co  Co3       1.0  0.74618  0.95419  0.94087  1.0000
  Co  Co4       1.0  0.25382  0.45419  0.55913  1.0000
  Co  Co5       1.0  0.00000  0.00000  0.00000  1.0000
  Co  Co6       1.0  0.00000  0.50000  0.50000  1.0000
  I   I1        1.0  0.43659  0.16046  0.07604  1.0000
  I   I2        1.0  0.56341  0.66046  0.42396  1.0000
  I   I3        1.0  0.56341  0.83954  0.92396  1.0000
  I   I4        1.0  0.43659  0.33954  0.57604  1.0000
  O   O1        1.0  0.24154  0.91630  0.97425  1.0000
  O   O2        1.0  0.75846  0.41630  0.52575  1.0000
  O   O3        1.0  0.75846  0.08370  0.02575  1.0000
  O   O4        1.0  0.24154  0.58370  0.47425  1.0000
  O   O5        1.0  0.06864  0.88010  0.93847  1.0000
  O   O6        1.0  0.93136  0.38010  0.56153  1.0000
  O   O7        1.0  0.93136  0.11990  0.06153  1.0000
  O   O8        1.0  0.06864  0.61990  0.43847  1.0000
  O   O9        1.0  0.26126  0.56210  0.65091  1.0000
  O   O10       1.0  0.73874  0.06210  0.84909  1.0000
  O   O11       1.0  0.73874  0.43790  0.34909  1.0000
  O   O12       1.0  0.26126  0.93790  0.15091  1.0000
  O   O13       1.0  0.08720  0.58340  0.60334  1.0000
  O   O14       1.0  0.91280  0.08340  0.89666  1.0000
  O   O15       1.0  0.91280  0.41660  0.39666  1.0000
  O   O16       1.0  0.08720  0.91660  0.10334  1.0000
  C   C1        1.0  0.16890  0.67030  0.72575  1.0000
  C   C2        1.0  0.83110  0.17030  0.77425  1.0000
  C   C3        1.0  0.83110  0.32970  0.27425  1.0000
  C   C4        1.0  0.16890  0.82970  0.22575  1.0000
  C   C5        1.0  0.07570  0.68190  0.74196  1.0000
  C   C6        1.0  0.92430  0.18190  0.75804  1.0000
  C   C7        1.0  0.92430  0.31810  0.25804  1.0000
  C   C8        1.0  0.07570  0.81810  0.24196  1.0000
  H   H1        1.0  0.01430  0.64610  0.70770  1.0000
  H   H2        1.0  0.98570  0.14610  0.79230  1.0000
  H   H3        1.0  0.98570  0.35390  0.29230  1.0000
  H   H4        1.0  0.01430  0.85390  0.20770  1.0000
  C   C9        1.0  0.07130  0.74430  0.80655  1.0000
  C   C10       1.0  0.92870  0.24430  0.69345  1.0000
  C   C11       1.0  0.92870  0.25570  0.19345  1.0000
  C   C12       1.0  0.07130  0.75570  0.30655  1.0000
  H   H5        1.0  0.00750  0.74880  0.81630  1.0000
  H   H6        1.0  0.99250  0.24880  0.68370  1.0000
  H   H7        1.0  0.99250  0.25120  0.18370  1.0000
  H   H8        1.0  0.00750  0.75120  0.31630  1.0000
  C   C13       1.0  0.16090  0.80150  0.85844  1.0000
  C   C14       1.0  0.83910  0.30150  0.64156  1.0000
  C   C15       1.0  0.83910  0.19850  0.14156  1.0000
  C   C16       1.0  0.16090  0.69850  0.35844  1.0000
  C   C17       1.0  0.25610  0.79120  0.84268  1.0000
  C   C18       1.0  0.74390  0.29120  0.65732  1.0000
  C   C19       1.0  0.74390  0.20880  0.15732  1.0000
  C   C20       1.0  0.25610  0.70880  0.34268  1.0000
  H   H9        1.0  0.31710  0.82910  0.87630  1.0000
  H   H10       1.0  0.68290  0.32910  0.62370  1.0000
  H   H11       1.0  0.68290  0.17090  0.12370  1.0000
  H   H12       1.0  0.31710  0.67090  0.37630  1.0000
  C   C21       1.0  0.25960  0.72480  0.77736  1.0000
  C   C22       1.0  0.74040  0.22480  0.72264  1.0000
  C   C23       1.0  0.74040  0.27520  0.22264  1.0000
  C   C24       1.0  0.25960  0.77520  0.27736  1.0000
  H   H13       1.0  0.32340  0.71660  0.76790  1.0000
  H   H14       1.0  0.67660  0.21660  0.73210  1.0000
  H   H15       1.0  0.67660  0.28340  0.23210  1.0000
  H   H16       1.0  0.32340  0.78340  0.26790  1.0000
  C   C25       1.0  0.17330  0.59860  0.65507  1.0000
  C   C26       1.0  0.82670  0.09860  0.84493  1.0000
  C   C27       1.0  0.82670  0.40140  0.34493  1.0000
  C   C28       1.0  0.17330  0.90140  0.15507  1.0000
  C   C29       1.0  0.15790  0.87260  0.92893  1.0000
  C   C30       1.0  0.84210  0.37260  0.57107  1.0000
  C   C31       1.0  0.84210  0.12740  0.07107  1.0000
  C   C32       1.0  0.15790  0.62740  0.42893  1.0000
  O   O17       1.0  0.12194  0.15590  0.01479  1.0000
  O   O18       1.0  0.87806  0.65590  0.48521  1.0000
  O   O19       1.0  0.87806  0.84410  0.98521  1.0000
  O   O20       1.0  0.12194  0.34410  0.51479  1.0000
  O   O21       1.0  0.20240  0.27060  0.12043  1.0000
  O   O22       1.0  0.79760  0.77060  0.37957  1.0000
  O   O23       1.0  0.79760  0.72940  0.87957  1.0000
  O   O24       1.0  0.20240  0.22940  0.62043  1.0000
  C   C33       1.0  0.06230  0.38440  0.02788  1.0000
  C   C34       1.0  0.93770  0.88440  0.47212  1.0000
  C   C35       1.0  0.93770  0.61560  0.97212  1.0000
  C   C36       1.0  0.06230  0.11560  0.52788  1.0000
  C   C37       1.0  0.00030  0.38890  0.95287  1.0000
  C   C38       1.0  0.99970  0.88890  0.54713  1.0000
  C   C39       1.0  0.99970  0.61110  0.04713  1.0000
  C   C40       1.0  0.00030  0.11110  0.45287  1.0000
  H   H17       1.0  0.99960  0.31420  0.92100  1.0000
  H   H18       1.0  0.00040  0.81420  0.57900  1.0000
  H   H19       1.0  0.00040  0.68580  0.07900  1.0000
  H   H20       1.0  0.99960  0.18580  0.42100  1.0000
  C   C41       1.0  0.93930  0.50370  0.92467  1.0000
  C   C42       1.0  0.06070  0.00370  0.57533  1.0000
  C   C43       1.0  0.06070  0.49630  0.07533  1.0000
  C   C44       1.0  0.93930  0.99630  0.42467  1.0000
  H   H21       1.0  0.89870  0.50670  0.87350  1.0000
  H   H22       1.0  0.10130  0.00670  0.62650  1.0000
  H   H23       1.0  0.10130  0.49330  0.12650  1.0000
  H   H24       1.0  0.89870  0.99330  0.37350  1.0000
  C   C45       1.0  0.13340  0.26530  0.05873  1.0000
  C   C46       1.0  0.86660  0.76530  0.44127  1.0000
  C   C47       1.0  0.86660  0.73470  0.94127  1.0000
  C   C48       1.0  0.13340  0.23470  0.55873  1.0000
