data_image0
_chemical_formula_structural       In3O24C6H3C6H3C3H3C3H3C15H3C6H6C3H3C6
_chemical_formula_sum              "In3 O24 C48 H24"
_cell_length_a       15.8818
_cell_length_b       15.8818
_cell_length_c       9.9176
_cell_angle_alpha    90
_cell_angle_beta     90
_cell_angle_gamma    120

_space_group_name_H-M_alt    "P 1"
_space_group_IT_number       1

loop_
  _space_group_symop_operation_xyz
  'x, y, z'

loop_
  _atom_site_type_symbol
  _atom_site_label
  _atom_site_symmetry_multiplicity
  _atom_site_fract_x
  _atom_site_fract_y
  _atom_site_fract_z
  _atom_site_occupancy
  In  In1       1.0  0.28350  0.36037  0.00000  1.0000
  In  In2       1.0  0.07687  0.71650  0.00000  1.0000
  In  In3       1.0  0.63963  0.92313  0.00000  1.0000
  O   O1        1.0  0.40660  0.32650  0.00000  1.0000
  O   O2        1.0  0.91990  0.59340  0.00000  1.0000
  O   O3        1.0  0.67350  0.08010  0.00000  1.0000
  O   O4        1.0  0.25520  0.20890  0.00000  1.0000
  O   O5        1.0  0.95370  0.74480  0.00000  1.0000
  O   O6        1.0  0.79110  0.04630  0.00000  1.0000
  O   O7        1.0  0.26060  0.81860  0.00000  1.0000
  O   O8        1.0  0.55800  0.73940  0.00000  1.0000
  O   O9        1.0  0.18140  0.44200  0.00000  1.0000
  O   O10       1.0  0.15910  0.87020  0.00000  1.0000
  O   O11       1.0  0.71110  0.84090  0.00000  1.0000
  O   O12       1.0  0.12980  0.28890  0.00000  1.0000
  O   O13       1.0  0.37150  0.48030  0.14060  1.0000
  O   O14       1.0  0.10880  0.62850  0.85940  1.0000
  O   O15       1.0  0.51970  0.89120  0.14060  1.0000
  O   O16       1.0  0.37150  0.48030  0.85940  1.0000
  O   O17       1.0  0.10880  0.62850  0.14060  1.0000
  O   O18       1.0  0.51970  0.89120  0.85940  1.0000
  O   O19       1.0  0.27330  0.34510  0.24320  1.0000
  O   O20       1.0  0.07180  0.72670  0.75680  1.0000
  O   O21       1.0  0.65490  0.92820  0.24320  1.0000
  O   O22       1.0  0.27330  0.34510  0.75680  1.0000
  O   O23       1.0  0.07180  0.72670  0.24320  1.0000
  O   O24       1.0  0.65490  0.92820  0.75680  1.0000
  C   C1        1.0  0.37220  0.15940  0.00000  1.0000
  C   C2        1.0  0.78720  0.62780  0.00000  1.0000
  C   C3        1.0  0.84060  0.21280  0.00000  1.0000
  C   C4        1.0  0.29880  0.06090  0.00000  1.0000
  C   C5        1.0  0.76210  0.70120  0.00000  1.0000
  C   C6        1.0  0.93910  0.23790  0.00000  1.0000
  H   H1        1.0  0.23370  0.04430  0.00000  1.0000
  H   H2        1.0  0.81060  0.76630  0.00000  1.0000
  H   H3        1.0  0.95570  0.18940  0.00000  1.0000
  C   C7        1.0  0.32340  0.98960  0.00000  1.0000
  C   C8        1.0  0.66620  0.67660  0.00000  1.0000
  C   C9        1.0  0.01040  0.33380  0.00000  1.0000
  C   C10       1.0  0.42090  0.01340  0.00000  1.0000
  C   C11       1.0  0.59250  0.57910  0.00000  1.0000
  C   C12       1.0  0.98660  0.40750  0.00000  1.0000
  H   H4        1.0  0.43720  0.96470  0.00000  1.0000
  H   H5        1.0  0.52750  0.56280  0.00000  1.0000
  H   H6        1.0  0.03530  0.47250  0.00000  1.0000
  C   C13       1.0  0.49320  0.11080  0.00000  1.0000
  C   C14       1.0  0.61760  0.50680  0.00000  1.0000
  C   C15       1.0  0.88920  0.38240  0.00000  1.0000
  H   H7        1.0  0.55860  0.12850  0.00000  1.0000
  H   H8        1.0  0.56990  0.44140  0.00000  1.0000
  H   H9        1.0  0.87150  0.43010  0.00000  1.0000
  C   C16       1.0  0.46580  0.18000  0.00000  1.0000
  C   C17       1.0  0.71420  0.53420  0.00000  1.0000
  C   C18       1.0  0.82000  0.28580  0.00000  1.0000
  H   H10       1.0  0.51440  0.24500  0.00000  1.0000
  H   H11       1.0  0.73060  0.48560  0.00000  1.0000
  H   H12       1.0  0.75500  0.26940  0.00000  1.0000
  C   C19       1.0  0.34320  0.23300  0.00000  1.0000
  C   C20       1.0  0.88980  0.65680  0.00000  1.0000
  C   C21       1.0  0.76700  0.11020  0.00000  1.0000
  C   C22       1.0  0.24330  0.88620  0.00000  1.0000
  C   C23       1.0  0.64290  0.75670  0.00000  1.0000
  C   C24       1.0  0.11380  0.35710  0.00000  1.0000
  C   C25       1.0  0.37490  0.47940  0.37920  1.0000
  C   C26       1.0  0.10450  0.62510  0.62080  1.0000
  C   C27       1.0  0.52060  0.89550  0.37920  1.0000
  C   C28       1.0  0.37490  0.47940  0.62080  1.0000
  C   C29       1.0  0.10450  0.62510  0.37920  1.0000
  C   C30       1.0  0.52060  0.89550  0.62080  1.0000
  C   C31       1.0  0.33930  0.43460  0.50000  1.0000
  C   C32       1.0  0.09530  0.66070  0.50000  1.0000
  C   C33       1.0  0.56540  0.90470  0.50000  1.0000
  H   H13       1.0  0.28850  0.37060  0.50000  1.0000
  H   H14       1.0  0.08210  0.71150  0.50000  1.0000
  H   H15       1.0  0.62940  0.91790  0.50000  1.0000
  C   C34       1.0  0.45300  0.57980  0.38090  1.0000
  C   C35       1.0  0.12680  0.54700  0.61910  1.0000
  C   C36       1.0  0.42020  0.87320  0.38090  1.0000
  C   C37       1.0  0.45300  0.57980  0.61910  1.0000
  C   C38       1.0  0.12680  0.54700  0.38090  1.0000
  C   C39       1.0  0.42020  0.87320  0.61910  1.0000
  H   H16       1.0  0.47880  0.61240  0.30020  1.0000
  H   H17       1.0  0.13360  0.52120  0.69980  1.0000
  H   H18       1.0  0.38760  0.86640  0.30020  1.0000
  H   H19       1.0  0.47880  0.61240  0.69980  1.0000
  H   H20       1.0  0.13360  0.52120  0.30020  1.0000
  H   H21       1.0  0.38760  0.86640  0.69980  1.0000
  C   C40       1.0  0.48870  0.62630  0.50000  1.0000
  C   C41       1.0  0.13760  0.51130  0.50000  1.0000
  C   C42       1.0  0.37370  0.86240  0.50000  1.0000
  H   H22       1.0  0.53820  0.69100  0.50000  1.0000
  H   H23       1.0  0.15280  0.46180  0.50000  1.0000
  H   H24       1.0  0.30900  0.84720  0.50000  1.0000
  C   C43       1.0  0.33700  0.43100  0.24900  1.0000
  C   C44       1.0  0.09400  0.66300  0.75100  1.0000
  C   C45       1.0  0.56900  0.90600  0.24900  1.0000
  C   C46       1.0  0.33700  0.43100  0.75100  1.0000
  C   C47       1.0  0.09400  0.66300  0.24900  1.0000
  C   C48       1.0  0.56900  0.90600  0.75100  1.0000
