data_image0
_chemical_formula_structural       Nd4Cu40N56O120C8H4C4H4C4H4C4H4C16H4C4H4C4H4C4H4C16H4C4H4C4H4C4H4C12H4C4H4C4H4C4H4C20H4C4H4C4H4C4H4C16H4C4H4C4H4C4H4C16H4C4H4C4H4C4H4C16H4C4H4C4H4C4H4C8H4C4H12C4H12C4H4C4H12C4H12C4H4C4H12C4H12C4H4C4H12C4H12C4H4C4H12C4H12C4H4C4H12C4H12C4
_chemical_formula_sum              "Nd4 Cu40 N56 O120 C296 H296"
_cell_length_a       20.4785
_cell_length_b       19.3907
_cell_length_c       24.394
_cell_angle_alpha    90
_cell_angle_beta     100.014
_cell_angle_gamma    90

_space_group_name_H-M_alt    "P 1"
_space_group_IT_number       1

loop_
  _space_group_symop_operation_xyz
  'x, y, z'

loop_
  _atom_site_type_symbol
  _atom_site_label
  _atom_site_symmetry_multiplicity
  _atom_site_fract_x
  _atom_site_fract_y
  _atom_site_fract_z
  _atom_site_occupancy
  Nd  Nd1       1.0  0.23907  0.23631  0.09764  1.0000
  Nd  Nd2       1.0  0.76093  0.73631  0.40236  1.0000
  Nd  Nd3       1.0  0.76093  0.76369  0.90236  1.0000
  Nd  Nd4       1.0  0.23907  0.26369  0.59764  1.0000
  Cu  Cu1       1.0  0.07398  0.90745  0.08898  1.0000
  Cu  Cu2       1.0  0.92602  0.40745  0.41102  1.0000
  Cu  Cu3       1.0  0.92602  0.09255  0.91102  1.0000
  Cu  Cu4       1.0  0.07398  0.59255  0.58898  1.0000
  Cu  Cu5       1.0  0.08043  0.13859  0.04566  1.0000
  Cu  Cu6       1.0  0.91957  0.63859  0.45434  1.0000
  Cu  Cu7       1.0  0.91957  0.86141  0.95434  1.0000
  Cu  Cu8       1.0  0.08043  0.36141  0.54566  1.0000
  Cu  Cu9       1.0  0.07058  0.99693  0.97401  1.0000
  Cu  Cu10      1.0  0.92942  0.49693  0.52599  1.0000
  Cu  Cu11      1.0  0.92942  0.00307  0.02599  1.0000
  Cu  Cu12      1.0  0.07058  0.50307  0.47401  1.0000
  Cu  Cu13      1.0  0.07731  0.85595  0.90451  1.0000
  Cu  Cu14      1.0  0.92269  0.35595  0.59549  1.0000
  Cu  Cu15      1.0  0.92269  0.14405  0.09549  1.0000
  Cu  Cu16      1.0  0.07731  0.64405  0.40451  1.0000
  Cu  Cu17      1.0  0.07124  0.08690  0.85956  1.0000
  Cu  Cu18      1.0  0.92876  0.58690  0.64044  1.0000
  Cu  Cu19      1.0  0.92876  0.91310  0.14044  1.0000
  Cu  Cu20      1.0  0.07124  0.41310  0.35956  1.0000
  Cu  Cu21      1.0  0.43070  0.90607  0.13718  1.0000
  Cu  Cu22      1.0  0.56930  0.40607  0.36282  1.0000
  Cu  Cu23      1.0  0.56930  0.09393  0.86282  1.0000
  Cu  Cu24      1.0  0.43070  0.59393  0.63718  1.0000
  Cu  Cu25      1.0  0.43745  0.85450  0.95355  1.0000
  Cu  Cu26      1.0  0.56255  0.35450  0.54645  1.0000
  Cu  Cu27      1.0  0.56255  0.14550  0.04645  1.0000
  Cu  Cu28      1.0  0.43745  0.64550  0.45355  1.0000
  Cu  Cu29      1.0  0.42885  0.99584  0.02325  1.0000
  Cu  Cu30      1.0  0.57115  0.49584  0.47675  1.0000
  Cu  Cu31      1.0  0.57115  0.00416  0.97675  1.0000
  Cu  Cu32      1.0  0.42885  0.50416  0.52325  1.0000
  Cu  Cu33      1.0  0.39115  0.13325  0.08811  1.0000
  Cu  Cu34      1.0  0.60885  0.63325  0.41189  1.0000
  Cu  Cu35      1.0  0.60885  0.86675  0.91189  1.0000
  Cu  Cu36      1.0  0.39115  0.36675  0.58811  1.0000
  Cu  Cu37      1.0  0.42159  0.08532  0.90833  1.0000
  Cu  Cu38      1.0  0.57841  0.58532  0.59167  1.0000
  Cu  Cu39      1.0  0.57841  0.91468  0.09167  1.0000
  Cu  Cu40      1.0  0.42159  0.41468  0.40833  1.0000
  N   N1        1.0  0.07200  0.00720  0.09100  1.0000
  N   N2        1.0  0.92800  0.50720  0.40900  1.0000
  N   N3        1.0  0.92800  0.99280  0.90900  1.0000
  N   N4        1.0  0.07200  0.49280  0.59100  1.0000
  N   N5        1.0  0.08080  0.85120  0.98360  1.0000
  N   N6        1.0  0.91920  0.35120  0.51640  1.0000
  N   N7        1.0  0.91920  0.14880  0.01640  1.0000
  N   N8        1.0  0.08080  0.64880  0.48360  1.0000
  N   N9        1.0  0.08190  0.98760  0.85930  1.0000
  N   N10       1.0  0.91810  0.48760  0.64070  1.0000
  N   N11       1.0  0.91810  0.01240  0.14070  1.0000
  N   N12       1.0  0.08190  0.51240  0.35930  1.0000
  N   N13       1.0  0.07120  0.14360  0.96620  1.0000
  N   N14       1.0  0.92880  0.64360  0.53380  1.0000
  N   N15       1.0  0.92880  0.85640  0.03380  1.0000
  N   N16       1.0  0.07120  0.35640  0.46620  1.0000
  N   N17       1.0  0.43720  0.84930  0.03080  1.0000
  N   N18       1.0  0.56280  0.34930  0.46920  1.0000
  N   N19       1.0  0.56280  0.15070  0.96920  1.0000
  N   N20       1.0  0.43720  0.65070  0.53080  1.0000
  N   N21       1.0  0.41460  0.00410  0.13690  1.0000
  N   N22       1.0  0.58540  0.50410  0.36310  1.0000
  N   N23       1.0  0.58540  0.99590  0.86310  1.0000
  N   N24       1.0  0.41460  0.49590  0.63690  1.0000
  N   N25       1.0  0.40090  0.13720  0.01070  1.0000
  N   N26       1.0  0.59910  0.63720  0.48930  1.0000
  N   N27       1.0  0.59910  0.86280  0.98930  1.0000
  N   N28       1.0  0.40090  0.36280  0.51070  1.0000
  N   N29       1.0  0.43170  0.98700  0.90660  1.0000
  N   N30       1.0  0.56830  0.48700  0.59340  1.0000
  N   N31       1.0  0.56830  0.01300  0.09340  1.0000
  N   N32       1.0  0.43170  0.51300  0.40660  1.0000
  N   N33       1.0  0.24040  0.45740  0.16920  1.0000
  N   N34       1.0  0.75960  0.95740  0.33080  1.0000
  N   N35       1.0  0.75960  0.54260  0.83080  1.0000
  N   N36       1.0  0.24040  0.04260  0.66920  1.0000
  N   N37       1.0  0.09260  0.25430  0.22400  1.0000
  N   N38       1.0  0.90740  0.75430  0.27600  1.0000
  N   N39       1.0  0.90740  0.74570  0.77600  1.0000
  N   N40       1.0  0.09260  0.24570  0.72400  1.0000
  N   N41       1.0  0.39420  0.25270  0.26170  1.0000
  N   N42       1.0  0.60580  0.75270  0.23830  1.0000
  N   N43       1.0  0.60580  0.74730  0.73830  1.0000
  N   N44       1.0  0.39420  0.24730  0.76170  1.0000
  N   N45       1.0  0.25060  0.03380  0.19540  1.0000
  N   N46       1.0  0.74940  0.53380  0.30460  1.0000
  N   N47       1.0  0.74940  0.96620  0.80460  1.0000
  N   N48       1.0  0.25060  0.46620  0.69540  1.0000
  N   N49       1.0  0.24010  0.08810  0.94580  1.0000
  N   N50       1.0  0.75990  0.58810  0.55420  1.0000
  N   N51       1.0  0.75990  0.91190  0.05420  1.0000
  N   N52       1.0  0.24010  0.41190  0.44580  1.0000
  N   N53       1.0  0.24730  0.37850  0.94330  1.0000
  N   N54       1.0  0.75270  0.87850  0.55670  1.0000
  N   N55       1.0  0.75270  0.62150  0.05670  1.0000
  N   N56       1.0  0.24730  0.12150  0.44330  1.0000
  O   O1        1.0  0.06920  0.90210  0.16540  1.0000
  O   O2        1.0  0.93080  0.40210  0.33460  1.0000
  O   O3        1.0  0.93080  0.09790  0.83460  1.0000
  O   O4        1.0  0.06920  0.59790  0.66540  1.0000
  O   O5        1.0  0.08230  0.11810  0.12310  1.0000
  O   O6        1.0  0.91770  0.61810  0.37690  1.0000
  O   O7        1.0  0.91770  0.88190  0.87690  1.0000
  O   O8        1.0  0.08230  0.38190  0.62310  1.0000
  O   O9        1.0  0.06270  0.04300  0.04040  1.0000
  O   O10       1.0  0.93730  0.54300  0.45960  1.0000
  O   O11       1.0  0.93730  0.95700  0.95960  1.0000
  O   O12       1.0  0.06270  0.45700  0.54040  1.0000
  O   O13       1.0  0.11810  0.22940  0.05300  1.0000
  O   O14       1.0  0.88190  0.72940  0.44700  1.0000
  O   O15       1.0  0.88190  0.77060  0.94700  1.0000
  O   O16       1.0  0.11810  0.27060  0.55300  1.0000
  O   O17       1.0  0.05900  0.08250  0.93510  1.0000
  O   O18       1.0  0.94100  0.58250  0.56490  1.0000
  O   O19       1.0  0.94100  0.91750  0.06490  1.0000
  O   O20       1.0  0.05900  0.41750  0.43510  1.0000
  O   O21       1.0  0.08190  0.18570  0.88130  1.0000
  O   O22       1.0  0.91810  0.68570  0.61870  1.0000
  O   O23       1.0  0.91810  0.81430  0.11870  1.0000
  O   O24       1.0  0.08190  0.31430  0.38130  1.0000
  O   O25       1.0  0.07960  0.09330  0.78420  1.0000
  O   O26       1.0  0.92040  0.59330  0.71580  1.0000
  O   O27       1.0  0.92040  0.90670  0.21580  1.0000
  O   O28       1.0  0.07960  0.40670  0.28420  1.0000
  O   O29       1.0  0.07680  0.87840  0.82690  1.0000
  O   O30       1.0  0.92320  0.37840  0.67310  1.0000
  O   O31       1.0  0.92320  0.12160  0.17310  1.0000
  O   O32       1.0  0.07680  0.62160  0.32690  1.0000
  O   O33       1.0  0.08730  0.95380  0.91010  1.0000
  O   O34       1.0  0.91270  0.45380  0.58990  1.0000
  O   O35       1.0  0.91270  0.04620  0.08990  1.0000
  O   O36       1.0  0.08730  0.54620  0.41010  1.0000
  O   O37       1.0  0.07080  0.76060  0.89740  1.0000
  O   O38       1.0  0.92920  0.26060  0.60260  1.0000
  O   O39       1.0  0.92920  0.23940  0.10260  1.0000
  O   O40       1.0  0.07080  0.73940  0.39740  1.0000
  O   O41       1.0  0.08150  0.80960  0.07140  1.0000
  O   O42       1.0  0.91850  0.30960  0.42860  1.0000
  O   O43       1.0  0.91850  0.19040  0.92860  1.0000
  O   O44       1.0  0.08150  0.69040  0.57140  1.0000
  O   O45       1.0  0.08380  0.91470  0.01360  1.0000
  O   O46       1.0  0.91620  0.41470  0.48640  1.0000
  O   O47       1.0  0.91620  0.08530  0.98640  1.0000
  O   O48       1.0  0.08380  0.58530  0.51360  1.0000
  O   O49       1.0  0.42310  0.76010  0.94390  1.0000
  O   O50       1.0  0.57690  0.26010  0.55610  1.0000
  O   O51       1.0  0.57690  0.23990  0.05610  1.0000
  O   O52       1.0  0.42310  0.73990  0.44390  1.0000
  O   O53       1.0  0.42280  0.80900  0.11640  1.0000
  O   O54       1.0  0.57720  0.30900  0.38360  1.0000
  O   O55       1.0  0.57720  0.19100  0.88360  1.0000
  O   O56       1.0  0.42280  0.69100  0.61640  1.0000
  O   O57       1.0  0.45150  0.91260  0.06350  1.0000
  O   O58       1.0  0.54850  0.41260  0.43650  1.0000
  O   O59       1.0  0.54850  0.08740  0.93650  1.0000
  O   O60       1.0  0.45150  0.58740  0.56350  1.0000
  O   O61       1.0  0.41980  0.89860  0.21130  1.0000
  O   O62       1.0  0.58020  0.39860  0.28870  1.0000
  O   O63       1.0  0.58020  0.10140  0.78870  1.0000
  O   O64       1.0  0.41980  0.60140  0.71130  1.0000
  O   O65       1.0  0.40260  0.03720  0.08470  1.0000
  O   O66       1.0  0.59740  0.53720  0.41530  1.0000
  O   O67       1.0  0.59740  0.96280  0.91530  1.0000
  O   O68       1.0  0.40260  0.46280  0.58470  1.0000
  O   O69       1.0  0.39940  0.11230  0.16680  1.0000
  O   O70       1.0  0.60060  0.61230  0.33320  1.0000
  O   O71       1.0  0.60060  0.88770  0.83320  1.0000
  O   O72       1.0  0.39940  0.38770  0.66680  1.0000
  O   O73       1.0  0.35840  0.22780  0.08450  1.0000
  O   O74       1.0  0.64160  0.72780  0.41550  1.0000
  O   O75       1.0  0.64160  0.77220  0.91550  1.0000
  O   O76       1.0  0.35840  0.27220  0.58450  1.0000
  O   O77       1.0  0.40230  0.07530  0.98210  1.0000
  O   O78       1.0  0.59770  0.57530  0.51790  1.0000
  O   O79       1.0  0.59770  0.92470  0.01790  1.0000
  O   O80       1.0  0.40230  0.42470  0.48210  1.0000
  O   O81       1.0  0.40680  0.18290  0.92620  1.0000
  O   O82       1.0  0.59320  0.68290  0.57380  1.0000
  O   O83       1.0  0.59320  0.81710  0.07380  1.0000
  O   O84       1.0  0.40680  0.31710  0.42620  1.0000
  O   O85       1.0  0.42770  0.09160  0.83220  1.0000
  O   O86       1.0  0.57230  0.59160  0.66780  1.0000
  O   O87       1.0  0.57230  0.90840  0.16780  1.0000
  O   O88       1.0  0.42770  0.40840  0.33220  1.0000
  O   O89       1.0  0.44760  0.95180  0.95840  1.0000
  O   O90       1.0  0.55240  0.45180  0.54160  1.0000
  O   O91       1.0  0.55240  0.04820  0.04160  1.0000
  O   O92       1.0  0.44760  0.54820  0.45840  1.0000
  O   O93       1.0  0.43310  0.87830  0.87530  1.0000
  O   O94       1.0  0.56690  0.37830  0.62470  1.0000
  O   O95       1.0  0.56690  0.12170  0.12470  1.0000
  O   O96       1.0  0.43310  0.62170  0.37530  1.0000
  O   O97       1.0  0.24210  0.36100  0.11650  1.0000
  O   O98       1.0  0.75790  0.86100  0.38350  1.0000
  O   O99       1.0  0.75790  0.63900  0.88350  1.0000
  O   O100      1.0  0.24210  0.13900  0.61650  1.0000
  O   O101      1.0  0.17040  0.25190  0.16820  1.0000
  O   O102      1.0  0.82960  0.75190  0.33180  1.0000
  O   O103      1.0  0.82960  0.74810  0.83180  1.0000
  O   O104      1.0  0.17040  0.24810  0.66820  1.0000
  O   O105      1.0  0.31130  0.24850  0.18760  1.0000
  O   O106      1.0  0.68870  0.74850  0.31240  1.0000
  O   O107      1.0  0.68870  0.75150  0.81240  1.0000
  O   O108      1.0  0.31130  0.25150  0.68760  1.0000
  O   O109      1.0  0.24190  0.12160  0.13600  1.0000
  O   O110      1.0  0.75810  0.62160  0.36400  1.0000
  O   O111      1.0  0.75810  0.87840  0.86400  1.0000
  O   O112      1.0  0.24190  0.37840  0.63600  1.0000
  O   O113      1.0  0.23630  0.14690  0.02510  1.0000
  O   O114      1.0  0.76370  0.64690  0.47490  1.0000
  O   O115      1.0  0.76370  0.85310  0.97490  1.0000
  O   O116      1.0  0.23630  0.35310  0.52510  1.0000
  O   O117      1.0  0.24190  0.29560  0.00740  1.0000
  O   O118      1.0  0.75810  0.79560  0.49260  1.0000
  O   O119      1.0  0.75810  0.70440  0.99260  1.0000
  O   O120      1.0  0.24190  0.20440  0.50740  1.0000
  C   C1        1.0  0.08060  0.95440  0.20110  1.0000
  C   C2        1.0  0.91940  0.45440  0.29890  1.0000
  C   C3        1.0  0.91940  0.04560  0.79890  1.0000
  C   C4        1.0  0.08060  0.54560  0.70110  1.0000
  C   C5        1.0  0.08340  0.93710  0.25940  1.0000
  C   C6        1.0  0.91660  0.43710  0.24060  1.0000
  C   C7        1.0  0.91660  0.06290  0.74060  1.0000
  C   C8        1.0  0.08340  0.56290  0.75940  1.0000
  H   H1        1.0  0.07891  0.89121  0.26904  1.0000
  H   H2        1.0  0.92109  0.39121  0.23096  1.0000
  H   H3        1.0  0.92109  0.10879  0.73096  1.0000
  H   H4        1.0  0.07891  0.60879  0.76904  1.0000
  C   C9        1.0  0.09260  0.98590  0.30080  1.0000
  C   C10       1.0  0.90740  0.48590  0.19920  1.0000
  C   C11       1.0  0.90740  0.01410  0.69920  1.0000
  C   C12       1.0  0.09260  0.51410  0.80080  1.0000
  H   H5        1.0  0.09493  0.97303  0.33786  1.0000
  H   H6        1.0  0.90507  0.47303  0.16214  1.0000
  H   H7        1.0  0.90507  0.02697  0.66214  1.0000
  H   H8        1.0  0.09493  0.52697  0.83786  1.0000
  C   C13       1.0  0.09820  0.05360  0.28690  1.0000
  C   C14       1.0  0.90180  0.55360  0.21310  1.0000
  C   C15       1.0  0.90180  0.94640  0.71310  1.0000
  C   C16       1.0  0.09820  0.44640  0.78690  1.0000
  H   H9        1.0  0.10446  0.08680  0.31485  1.0000
  H   H10       1.0  0.89554  0.58680  0.18515  1.0000
  H   H11       1.0  0.89554  0.91320  0.68515  1.0000
  H   H12       1.0  0.10446  0.41320  0.81485  1.0000
  C   C17       1.0  0.09480  0.07360  0.23320  1.0000
  C   C18       1.0  0.90520  0.57360  0.26680  1.0000
  C   C19       1.0  0.90520  0.92640  0.76680  1.0000
  C   C20       1.0  0.09480  0.42640  0.73320  1.0000
  H   H13       1.0  0.09887  0.12005  0.22489  1.0000
  H   H14       1.0  0.90113  0.62005  0.27511  1.0000
  H   H15       1.0  0.90113  0.87995  0.77511  1.0000
  H   H16       1.0  0.09887  0.37995  0.72489  1.0000
  C   C21       1.0  0.08490  0.02410  0.18940  1.0000
  C   C22       1.0  0.91510  0.52410  0.31060  1.0000
  C   C23       1.0  0.91510  0.97590  0.81060  1.0000
  C   C24       1.0  0.08490  0.47590  0.68940  1.0000
  C   C25       1.0  0.07840  0.05050  0.13310  1.0000
  C   C26       1.0  0.92160  0.55050  0.36690  1.0000
  C   C27       1.0  0.92160  0.94950  0.86690  1.0000
  C   C28       1.0  0.07840  0.44950  0.63310  1.0000
  C   C29       1.0  0.09670  0.27790  0.01360  1.0000
  C   C30       1.0  0.90330  0.77790  0.48640  1.0000
  C   C31       1.0  0.90330  0.72210  0.98640  1.0000
  C   C32       1.0  0.09670  0.22210  0.51360  1.0000
  C   C33       1.0  0.09510  0.34700  0.03290  1.0000
  C   C34       1.0  0.90490  0.84700  0.46710  1.0000
  C   C35       1.0  0.90490  0.65300  0.96710  1.0000
  C   C36       1.0  0.09510  0.15300  0.53290  1.0000
  H   H17       1.0  0.10243  0.35575  0.07097  1.0000
  H   H18       1.0  0.89757  0.85575  0.42903  1.0000
  H   H19       1.0  0.89757  0.64425  0.92903  1.0000
  H   H20       1.0  0.10243  0.14425  0.57097  1.0000
  C   C37       1.0  0.08320  0.39990  0.99680  1.0000
  C   C38       1.0  0.91680  0.89990  0.50320  1.0000
  C   C39       1.0  0.91680  0.60010  0.00320  1.0000
  C   C40       1.0  0.08320  0.10010  0.49680  1.0000
  H   H21       1.0  0.08277  0.44458  0.01058  1.0000
  H   H22       1.0  0.91723  0.94458  0.48942  1.0000
  H   H23       1.0  0.91723  0.55542  0.98942  1.0000
  H   H24       1.0  0.08277  0.05542  0.51058  1.0000
  C   C41       1.0  0.07100  0.38940  0.93780  1.0000
  C   C42       1.0  0.92900  0.88940  0.56220  1.0000
  C   C43       1.0  0.92900  0.61060  0.06220  1.0000
  C   C44       1.0  0.07100  0.11060  0.43780  1.0000
  H   H25       1.0  0.06102  0.42590  0.91305  1.0000
  H   H26       1.0  0.93898  0.92590  0.58695  1.0000
  H   H27       1.0  0.93898  0.57410  0.08695  1.0000
  H   H28       1.0  0.06102  0.07410  0.41305  1.0000
  C   C45       1.0  0.07490  0.32100  0.91890  1.0000
  C   C46       1.0  0.92510  0.82100  0.58110  1.0000
  C   C47       1.0  0.92510  0.67900  0.08110  1.0000
  C   C48       1.0  0.07490  0.17900  0.41890  1.0000
  H   H29       1.0  0.07139  0.31244  0.88099  1.0000
  H   H30       1.0  0.92861  0.81244  0.61901  1.0000
  H   H31       1.0  0.92861  0.68756  0.11901  1.0000
  H   H32       1.0  0.07139  0.18756  0.38099  1.0000
  C   C49       1.0  0.08390  0.26610  0.95630  1.0000
  C   C50       1.0  0.91610  0.76610  0.54370  1.0000
  C   C51       1.0  0.91610  0.73390  0.04370  1.0000
  C   C52       1.0  0.08390  0.23390  0.45630  1.0000
  C   C53       1.0  0.07920  0.19560  0.93320  1.0000
  C   C54       1.0  0.92080  0.69560  0.56680  1.0000
  C   C55       1.0  0.92080  0.80440  0.06680  1.0000
  C   C56       1.0  0.07920  0.30440  0.43320  1.0000
  C   C57       1.0  0.07660  0.04130  0.74800  1.0000
  C   C58       1.0  0.92340  0.54130  0.75200  1.0000
  C   C59       1.0  0.92340  0.95870  0.25200  1.0000
  C   C60       1.0  0.07660  0.45870  0.24800  1.0000
  C   C61       1.0  0.07300  0.05910  0.69320  1.0000
  C   C62       1.0  0.92700  0.55910  0.80680  1.0000
  C   C63       1.0  0.92700  0.94090  0.30680  1.0000
  C   C64       1.0  0.07300  0.44090  0.19320  1.0000
  H   H33       1.0  0.07404  0.10553  0.68377  1.0000
  H   H34       1.0  0.92596  0.60553  0.81623  1.0000
  H   H35       1.0  0.92596  0.89447  0.31623  1.0000
  H   H36       1.0  0.07404  0.39447  0.18377  1.0000
  C   C65       1.0  0.06790  0.01030  0.65140  1.0000
  C   C66       1.0  0.93210  0.51030  0.84860  1.0000
  C   C67       1.0  0.93210  0.98970  0.34860  1.0000
  C   C68       1.0  0.06790  0.48970  0.15140  1.0000
  H   H37       1.0  0.06617  0.02373  0.61460  1.0000
  H   H38       1.0  0.93383  0.52373  0.88540  1.0000
  H   H39       1.0  0.93383  0.97627  0.38540  1.0000
  H   H40       1.0  0.06617  0.47627  0.11460  1.0000
  C   C69       1.0  0.06550  0.94290  0.66450  1.0000
  C   C70       1.0  0.93450  0.44290  0.83550  1.0000
  C   C71       1.0  0.93450  0.05710  0.33550  1.0000
  C   C72       1.0  0.06550  0.55710  0.16450  1.0000
  H   H41       1.0  0.05886  0.91021  0.63619  1.0000
  H   H42       1.0  0.94114  0.41021  0.86381  1.0000
  H   H43       1.0  0.94114  0.08979  0.36381  1.0000
  H   H44       1.0  0.05886  0.58979  0.13619  1.0000
  C   C73       1.0  0.07240  0.92190  0.71810  1.0000
  C   C74       1.0  0.92760  0.42190  0.78190  1.0000
  C   C75       1.0  0.92760  0.07810  0.28190  1.0000
  C   C76       1.0  0.07240  0.57810  0.21810  1.0000
  H   H45       1.0  0.07443  0.87514  0.72661  1.0000
  H   H46       1.0  0.92557  0.37514  0.77339  1.0000
  H   H47       1.0  0.92557  0.12486  0.27339  1.0000
  H   H48       1.0  0.07443  0.62486  0.22661  1.0000
  C   C77       1.0  0.07720  0.94540  0.81830  1.0000
  C   C78       1.0  0.92280  0.44540  0.68170  1.0000
  C   C79       1.0  0.92280  0.05460  0.18170  1.0000
  C   C80       1.0  0.07720  0.55460  0.31830  1.0000
  C   C81       1.0  0.07720  0.71520  0.93790  1.0000
  C   C82       1.0  0.92280  0.21520  0.56210  1.0000
  C   C83       1.0  0.92280  0.28480  0.06210  1.0000
  C   C84       1.0  0.07720  0.78480  0.43790  1.0000
  C   C85       1.0  0.07750  0.64520  0.92000  1.0000
  C   C86       1.0  0.92250  0.14520  0.58000  1.0000
  C   C87       1.0  0.92250  0.35480  0.08000  1.0000
  C   C88       1.0  0.07750  0.85480  0.42000  1.0000
  H   H49       1.0  0.07087  0.63508  0.88217  1.0000
  H   H50       1.0  0.92913  0.13508  0.61783  1.0000
  H   H51       1.0  0.92913  0.36492  0.11783  1.0000
  H   H52       1.0  0.07087  0.86492  0.38217  1.0000
  C   C89       1.0  0.08770  0.59250  0.95830  1.0000
  C   C90       1.0  0.91230  0.09250  0.54170  1.0000
  C   C91       1.0  0.91230  0.40750  0.04170  1.0000
  C   C92       1.0  0.08770  0.90750  0.45830  1.0000
  H   H53       1.0  0.09162  0.54726  0.94666  1.0000
  H   H54       1.0  0.90838  0.04726  0.55334  1.0000
  H   H55       1.0  0.90838  0.45274  0.05334  1.0000
  H   H56       1.0  0.09162  0.95274  0.44666  1.0000
  C   C93       1.0  0.09210  0.60780  0.01660  1.0000
  C   C94       1.0  0.90790  0.10780  0.48340  1.0000
  C   C95       1.0  0.90790  0.39220  0.98340  1.0000
  C   C96       1.0  0.09210  0.89220  0.51660  1.0000
  H   H57       1.0  0.09718  0.57250  0.04288  1.0000
  H   H58       1.0  0.90282  0.07250  0.45712  1.0000
  H   H59       1.0  0.90282  0.42750  0.95712  1.0000
  H   H60       1.0  0.09718  0.92750  0.54288  1.0000
  C   C97       1.0  0.08860  0.67560  0.03280  1.0000
  C   C98       1.0  0.91140  0.17560  0.46720  1.0000
  C   C99       1.0  0.91140  0.32440  0.96720  1.0000
  C   C100      1.0  0.08860  0.82440  0.53280  1.0000
  H   H61       1.0  0.09027  0.68536  0.07038  1.0000
  H   H62       1.0  0.90973  0.18536  0.42962  1.0000
  H   H63       1.0  0.90973  0.31464  0.92962  1.0000
  H   H64       1.0  0.09027  0.81464  0.57038  1.0000
  C   C101      1.0  0.08300  0.72860  0.99590  1.0000
  C   C102      1.0  0.91700  0.22860  0.50410  1.0000
  C   C103      1.0  0.91700  0.27140  0.00410  1.0000
  C   C104      1.0  0.08300  0.77140  0.49590  1.0000
  C   C105      1.0  0.08020  0.79790  0.01880  1.0000
  C   C106      1.0  0.91980  0.29790  0.48120  1.0000
  C   C107      1.0  0.91980  0.20210  0.98120  1.0000
  C   C108      1.0  0.08020  0.70210  0.51880  1.0000
  C   C109      1.0  0.42500  0.79970  0.06370  1.0000
  C   C110      1.0  0.57500  0.29970  0.43630  1.0000
  C   C111      1.0  0.57500  0.20030  0.93630  1.0000
  C   C112      1.0  0.42500  0.70030  0.56370  1.0000
  C   C113      1.0  0.41620  0.72990  0.03930  1.0000
  C   C114      1.0  0.58380  0.22990  0.46070  1.0000
  C   C115      1.0  0.58380  0.27010  0.96070  1.0000
  C   C116      1.0  0.41620  0.77010  0.53930  1.0000
  C   C117      1.0  0.40650  0.67590  0.07560  1.0000
  C   C118      1.0  0.59350  0.17590  0.42440  1.0000
  C   C119      1.0  0.59350  0.32410  0.92440  1.0000
  C   C120      1.0  0.40650  0.82410  0.57560  1.0000
  H   H65       1.0  0.40505  0.68635  0.11254  1.0000
  H   H66       1.0  0.59495  0.18635  0.38746  1.0000
  H   H67       1.0  0.59495  0.31365  0.88746  1.0000
  H   H68       1.0  0.40505  0.81365  0.61254  1.0000
  C   C121      1.0  0.39900  0.60720  0.05820  1.0000
  C   C122      1.0  0.60100  0.10720  0.44180  1.0000
  C   C123      1.0  0.60100  0.39280  0.94180  1.0000
  C   C124      1.0  0.39900  0.89280  0.55820  1.0000
  H   H69       1.0  0.39587  0.57182  0.08335  1.0000
  H   H70       1.0  0.60413  0.07182  0.41665  1.0000
  H   H71       1.0  0.60413  0.42818  0.91665  1.0000
  H   H72       1.0  0.39587  0.92818  0.58335  1.0000
  C   C125      1.0  0.39630  0.59320  0.00020  1.0000
  C   C126      1.0  0.60370  0.09320  0.49980  1.0000
  C   C127      1.0  0.60370  0.40680  0.99980  1.0000
  C   C128      1.0  0.39630  0.90680  0.50020  1.0000
  H   H73       1.0  0.38842  0.54862  0.98656  1.0000
  H   H74       1.0  0.61158  0.04862  0.51344  1.0000
  H   H75       1.0  0.61158  0.45138  0.01344  1.0000
  H   H76       1.0  0.38842  0.95138  0.48656  1.0000
  C   C129      1.0  0.40510  0.64490  0.96560  1.0000
  C   C130      1.0  0.59490  0.14490  0.53440  1.0000
  C   C131      1.0  0.59490  0.35510  0.03440  1.0000
  C   C132      1.0  0.40510  0.85510  0.46560  1.0000
  H   H77       1.0  0.40473  0.63431  0.92833  1.0000
  H   H78       1.0  0.59527  0.13431  0.57167  1.0000
  H   H79       1.0  0.59527  0.36569  0.07167  1.0000
  H   H80       1.0  0.40473  0.86569  0.42833  1.0000
  C   C133      1.0  0.41510  0.71500  0.98260  1.0000
  C   C134      1.0  0.58490  0.21500  0.51740  1.0000
  C   C135      1.0  0.58490  0.28500  0.01740  1.0000
  C   C136      1.0  0.41510  0.78500  0.48260  1.0000
  C   C137      1.0  0.42850  0.94270  0.86500  1.0000
  C   C138      1.0  0.57150  0.44270  0.63500  1.0000
  C   C139      1.0  0.57150  0.05730  0.13500  1.0000
  C   C140      1.0  0.42850  0.55730  0.36500  1.0000
  C   C141      1.0  0.41940  0.96910  0.80810  1.0000
  C   C142      1.0  0.58060  0.46910  0.69190  1.0000
  C   C143      1.0  0.58060  0.03090  0.19190  1.0000
  C   C144      1.0  0.41940  0.53090  0.30810  1.0000
  C   C145      1.0  0.41110  0.92030  0.76550  1.0000
  C   C146      1.0  0.58890  0.42030  0.73450  1.0000
  C   C147      1.0  0.58890  0.07970  0.23450  1.0000
  C   C148      1.0  0.41110  0.57970  0.26550  1.0000
  H   H81       1.0  0.40910  0.87377  0.77430  1.0000
  H   H82       1.0  0.59090  0.37377  0.72570  1.0000
  H   H83       1.0  0.59090  0.12623  0.22570  1.0000
  H   H84       1.0  0.40910  0.62623  0.27430  1.0000
  C   C149      1.0  0.40590  0.93990  0.71070  1.0000
  C   C150      1.0  0.59410  0.43990  0.78930  1.0000
  C   C151      1.0  0.59410  0.06010  0.28930  1.0000
  C   C152      1.0  0.40590  0.56010  0.21070  1.0000
  H   H85       1.0  0.40120  0.90694  0.68264  1.0000
  H   H86       1.0  0.59880  0.40694  0.81736  1.0000
  H   H87       1.0  0.59880  0.09306  0.31736  1.0000
  H   H88       1.0  0.40120  0.59306  0.18264  1.0000
  C   C153      1.0  0.40790  0.00990  0.69790  1.0000
  C   C154      1.0  0.59210  0.50990  0.80210  1.0000
  C   C155      1.0  0.59210  0.99010  0.30210  1.0000
  C   C156      1.0  0.40790  0.49010  0.19790  1.0000
  H   H89       1.0  0.40412  0.02434  0.66108  1.0000
  H   H90       1.0  0.59588  0.52434  0.83892  1.0000
  H   H91       1.0  0.59588  0.97566  0.33892  1.0000
  H   H92       1.0  0.40412  0.47566  0.16108  1.0000
  C   C157      1.0  0.41540  0.05660  0.73990  1.0000
  C   C158      1.0  0.58460  0.55660  0.76010  1.0000
  C   C159      1.0  0.58460  0.94340  0.26010  1.0000
  C   C160      1.0  0.41540  0.44340  0.23990  1.0000
  H   H93       1.0  0.41786  0.10302  0.73069  1.0000
  H   H94       1.0  0.58214  0.60302  0.76931  1.0000
  H   H95       1.0  0.58214  0.89698  0.26931  1.0000
  H   H96       1.0  0.41786  0.39698  0.23069  1.0000
  C   C161      1.0  0.41980  0.03970  0.79600  1.0000
  C   C162      1.0  0.58020  0.53970  0.70400  1.0000
  C   C163      1.0  0.58020  0.96030  0.20400  1.0000
  C   C164      1.0  0.41980  0.46030  0.29600  1.0000
  C   C165      1.0  0.40310  0.19220  0.97690  1.0000
  C   C166      1.0  0.59690  0.69220  0.52310  1.0000
  C   C167      1.0  0.59690  0.80780  0.02310  1.0000
  C   C168      1.0  0.40310  0.30780  0.47690  1.0000
  C   C169      1.0  0.40280  0.26040  0.00150  1.0000
  C   C170      1.0  0.59720  0.76040  0.49850  1.0000
  C   C171      1.0  0.59720  0.73960  0.99850  1.0000
  C   C172      1.0  0.40280  0.23960  0.50150  1.0000
  C   C173      1.0  0.42290  0.31460  0.97230  1.0000
  C   C174      1.0  0.57710  0.81460  0.52770  1.0000
  C   C175      1.0  0.57710  0.68540  0.02770  1.0000
  C   C176      1.0  0.42290  0.18540  0.47230  1.0000
  H   H97       1.0  0.43445  0.30526  0.93784  1.0000
  H   H98       1.0  0.56555  0.80526  0.56216  1.0000
  H   H99       1.0  0.56555  0.69474  0.06216  1.0000
  H   H100      1.0  0.43445  0.19474  0.43784  1.0000
  C   C177      1.0  0.42700  0.38140  0.99060  1.0000
  C   C178      1.0  0.57300  0.88140  0.50940  1.0000
  C   C179      1.0  0.57300  0.61860  0.00940  1.0000
  C   C180      1.0  0.42700  0.11860  0.49060  1.0000
  H   H101      1.0  0.43897  0.41656  0.96838  1.0000
  H   H102      1.0  0.56103  0.91656  0.53162  1.0000
  H   H103      1.0  0.56103  0.58344  0.03162  1.0000
  H   H104      1.0  0.43897  0.08344  0.46838  1.0000
  C   C181      1.0  0.41290  0.39550  0.04350  1.0000
  C   C182      1.0  0.58710  0.89550  0.45650  1.0000
  C   C183      1.0  0.58710  0.60450  0.95650  1.0000
  C   C184      1.0  0.41290  0.10450  0.54350  1.0000
  H   H105      1.0  0.41850  0.43997  0.05796  1.0000
  H   H106      1.0  0.58150  0.93997  0.44204  1.0000
  H   H107      1.0  0.58150  0.56003  0.94204  1.0000
  H   H108      1.0  0.41850  0.06003  0.55796  1.0000
  C   C185      1.0  0.39010  0.34220  0.07520  1.0000
  C   C186      1.0  0.60990  0.84220  0.42480  1.0000
  C   C187      1.0  0.60990  0.65780  0.92480  1.0000
  C   C188      1.0  0.39010  0.15780  0.57520  1.0000
  H   H109      1.0  0.37872  0.35186  0.10973  1.0000
  H   H110      1.0  0.62128  0.85186  0.39027  1.0000
  H   H111      1.0  0.62128  0.64814  0.89027  1.0000
  H   H112      1.0  0.37872  0.14814  0.60973  1.0000
  C   C189      1.0  0.38460  0.27270  0.05340  1.0000
  C   C190      1.0  0.61540  0.77270  0.44660  1.0000
  C   C191      1.0  0.61540  0.72730  0.94660  1.0000
  C   C192      1.0  0.38460  0.22730  0.55340  1.0000
  C   C193      1.0  0.41110  0.04640  0.17830  1.0000
  C   C194      1.0  0.58890  0.54640  0.32170  1.0000
  C   C195      1.0  0.58890  0.95360  0.82170  1.0000
  C   C196      1.0  0.41110  0.45360  0.67830  1.0000
  C   C197      1.0  0.41800  0.02060  0.23470  1.0000
  C   C198      1.0  0.58200  0.52060  0.26530  1.0000
  C   C199      1.0  0.58200  0.97940  0.76530  1.0000
  C   C200      1.0  0.41800  0.47940  0.73470  1.0000
  C   C201      1.0  0.41960  0.06890  0.27640  1.0000
  C   C202      1.0  0.58040  0.56890  0.22360  1.0000
  C   C203      1.0  0.58040  0.93110  0.72360  1.0000
  C   C204      1.0  0.41960  0.43110  0.77640  1.0000
  H   H113      1.0  0.41580  0.11533  0.26677  1.0000
  H   H114      1.0  0.58420  0.61533  0.23323  1.0000
  H   H115      1.0  0.58420  0.88467  0.73323  1.0000
  H   H116      1.0  0.41580  0.38467  0.76677  1.0000
  C   C205      1.0  0.42660  0.05100  0.33150  1.0000
  C   C206      1.0  0.57340  0.55100  0.16850  1.0000
  C   C207      1.0  0.57340  0.94900  0.66850  1.0000
  C   C208      1.0  0.42660  0.44900  0.83150  1.0000
  H   H117      1.0  0.42819  0.08453  0.35896  1.0000
  H   H118      1.0  0.57181  0.58453  0.14104  1.0000
  H   H119      1.0  0.57181  0.91547  0.64104  1.0000
  H   H120      1.0  0.42819  0.41547  0.85896  1.0000
  C   C209      1.0  0.43140  0.98160  0.34520  1.0000
  C   C210      1.0  0.56860  0.48160  0.15480  1.0000
  C   C211      1.0  0.56860  0.01840  0.65480  1.0000
  C   C212      1.0  0.43140  0.51840  0.84520  1.0000
  H   H121      1.0  0.43831  0.96847  0.38247  1.0000
  H   H122      1.0  0.56169  0.46847  0.11753  1.0000
  H   H123      1.0  0.56169  0.03153  0.61753  1.0000
  H   H124      1.0  0.43831  0.53153  0.88247  1.0000
  C   C213      1.0  0.42600  0.93190  0.30450  1.0000
  C   C214      1.0  0.57400  0.43190  0.19550  1.0000
  C   C215      1.0  0.57400  0.06810  0.69550  1.0000
  C   C216      1.0  0.42600  0.56810  0.80450  1.0000
  H   H125      1.0  0.42476  0.88567  0.31448  1.0000
  H   H126      1.0  0.57524  0.38567  0.18552  1.0000
  H   H127      1.0  0.57524  0.11433  0.68552  1.0000
  H   H128      1.0  0.42476  0.61433  0.81448  1.0000
  C   C217      1.0  0.42230  0.94940  0.24720  1.0000
  C   C218      1.0  0.57770  0.44940  0.25280  1.0000
  C   C219      1.0  0.57770  0.05060  0.75280  1.0000
  C   C220      1.0  0.42230  0.55060  0.74720  1.0000
  C   C221      1.0  0.24320  0.38640  0.16330  1.0000
  C   C222      1.0  0.75680  0.88640  0.33670  1.0000
  C   C223      1.0  0.75680  0.61360  0.83670  1.0000
  C   C224      1.0  0.24320  0.11360  0.66330  1.0000
  H   H129      1.0  0.24586  0.35796  0.19432  1.0000
  H   H130      1.0  0.75414  0.85796  0.30568  1.0000
  H   H131      1.0  0.75414  0.64204  0.80568  1.0000
  H   H132      1.0  0.24586  0.14204  0.69432  1.0000
  C   C225      1.0  0.24460  0.48260  0.22700  1.0000
  C   C226      1.0  0.75540  0.98260  0.27300  1.0000
  C   C227      1.0  0.75540  0.51740  0.77300  1.0000
  C   C228      1.0  0.24460  0.01740  0.72700  1.0000
  H   H133      1.0  0.24224  0.53202  0.22696  1.0000
  H   H134      1.0  0.75776  0.03202  0.27304  1.0000
  H   H135      1.0  0.75776  0.46798  0.77304  1.0000
  H   H136      1.0  0.24224  0.96798  0.72696  1.0000
  H   H137      1.0  0.20837  0.46401  0.24259  1.0000
  H   H138      1.0  0.79163  0.96401  0.25741  1.0000
  H   H139      1.0  0.79163  0.53599  0.75741  1.0000
  H   H140      1.0  0.20837  0.03599  0.74259  1.0000
  H   H141      1.0  0.28578  0.46798  0.24893  1.0000
  H   H142      1.0  0.71422  0.96798  0.25107  1.0000
  H   H143      1.0  0.71422  0.53202  0.75107  1.0000
  H   H144      1.0  0.28578  0.03202  0.74893  1.0000
  C   C229      1.0  0.23700  0.50030  0.12010  1.0000
  C   C230      1.0  0.76300  0.00030  0.37990  1.0000
  C   C231      1.0  0.76300  0.49970  0.87990  1.0000
  C   C232      1.0  0.23700  0.99970  0.62010  1.0000
  H   H145      1.0  0.23530  0.54795  0.13049  1.0000
  H   H146      1.0  0.76470  0.04795  0.36951  1.0000
  H   H147      1.0  0.76470  0.45205  0.86951  1.0000
  H   H148      1.0  0.23530  0.95205  0.63049  1.0000
  H   H149      1.0  0.27545  0.49245  0.10345  1.0000
  H   H150      1.0  0.72455  0.99245  0.39655  1.0000
  H   H151      1.0  0.72455  0.50755  0.89655  1.0000
  H   H152      1.0  0.27545  0.00755  0.60345  1.0000
  H   H153      1.0  0.19782  0.48891  0.09391  1.0000
  H   H154      1.0  0.80218  0.98891  0.40609  1.0000
  H   H155      1.0  0.80218  0.51109  0.90609  1.0000
  H   H156      1.0  0.19782  0.01109  0.59391  1.0000
  C   C233      1.0  0.11000  0.25250  0.17540  1.0000
  C   C234      1.0  0.89000  0.75250  0.32460  1.0000
  C   C235      1.0  0.89000  0.74750  0.82460  1.0000
  C   C236      1.0  0.11000  0.24750  0.67540  1.0000
  H   H157      1.0  0.07682  0.25174  0.14405  1.0000
  H   H158      1.0  0.92318  0.75174  0.35595  1.0000
  H   H159      1.0  0.92318  0.74826  0.85595  1.0000
  H   H160      1.0  0.07682  0.24826  0.64405  1.0000
  C   C237      1.0  0.02630  0.25410  0.23130  1.0000
  C   C238      1.0  0.97370  0.75410  0.26870  1.0000
  C   C239      1.0  0.97370  0.74590  0.76870  1.0000
  C   C240      1.0  0.02630  0.24590  0.73130  1.0000
  H   H161      1.0  0.02443  0.25559  0.27030  1.0000
  H   H162      1.0  0.97557  0.75559  0.22970  1.0000
  H   H163      1.0  0.97557  0.74441  0.72970  1.0000
  H   H164      1.0  0.02443  0.24441  0.77030  1.0000
  H   H165      1.0  0.00407  0.29375  0.21323  1.0000
  H   H166      1.0  0.99593  0.79375  0.28677  1.0000
  H   H167      1.0  0.99593  0.70625  0.78677  1.0000
  H   H168      1.0  0.00407  0.20625  0.71323  1.0000
  H   H169      1.0  0.00496  0.21295  0.21528  1.0000
  H   H170      1.0  0.99504  0.71295  0.28472  1.0000
  H   H171      1.0  0.99504  0.78705  0.78472  1.0000
  H   H172      1.0  0.00496  0.28705  0.71528  1.0000
  C   C241      1.0  0.14640  0.25440  0.27470  1.0000
  C   C242      1.0  0.85360  0.75440  0.22530  1.0000
  C   C243      1.0  0.85360  0.74560  0.72530  1.0000
  C   C244      1.0  0.14640  0.24560  0.77470  1.0000
  H   H173      1.0  0.12667  0.25578  0.30763  1.0000
  H   H174      1.0  0.87333  0.75578  0.19237  1.0000
  H   H175      1.0  0.87333  0.74422  0.69237  1.0000
  H   H176      1.0  0.12667  0.24422  0.80763  1.0000
  H   H177      1.0  0.17270  0.21339  0.27501  1.0000
  H   H178      1.0  0.82730  0.71339  0.22499  1.0000
  H   H179      1.0  0.82730  0.78661  0.72499  1.0000
  H   H180      1.0  0.17270  0.28661  0.77501  1.0000
  H   H181      1.0  0.17411  0.29421  0.27382  1.0000
  H   H182      1.0  0.82589  0.79421  0.22618  1.0000
  H   H183      1.0  0.82589  0.70579  0.72618  1.0000
  H   H184      1.0  0.17411  0.20579  0.77382  1.0000
  C   C245      1.0  0.37120  0.24800  0.20720  1.0000
  C   C246      1.0  0.62880  0.74800  0.29280  1.0000
  C   C247      1.0  0.62880  0.75200  0.79280  1.0000
  C   C248      1.0  0.37120  0.25200  0.70720  1.0000
  H   H185      1.0  0.40141  0.24423  0.18302  1.0000
  H   H186      1.0  0.59859  0.74423  0.31698  1.0000
  H   H187      1.0  0.59859  0.75577  0.81698  1.0000
  H   H188      1.0  0.40141  0.25577  0.68302  1.0000
  C   C249      1.0  0.34970  0.25330  0.30090  1.0000
  C   C250      1.0  0.65030  0.75330  0.19910  1.0000
  C   C251      1.0  0.65030  0.74670  0.69910  1.0000
  C   C252      1.0  0.34970  0.24670  0.80090  1.0000
  H   H189      1.0  0.37463  0.25689  0.33798  1.0000
  H   H190      1.0  0.62537  0.75689  0.16202  1.0000
  H   H191      1.0  0.62537  0.74311  0.66202  1.0000
  H   H192      1.0  0.37463  0.24311  0.83798  1.0000
  H   H193      1.0  0.32025  0.29198  0.29357  1.0000
  H   H194      1.0  0.67975  0.79198  0.20643  1.0000
  H   H195      1.0  0.67975  0.70802  0.70643  1.0000
  H   H196      1.0  0.32025  0.20802  0.79357  1.0000
  H   H197      1.0  0.32436  0.21136  0.29758  1.0000
  H   H198      1.0  0.67564  0.71136  0.20242  1.0000
  H   H199      1.0  0.67564  0.78864  0.70242  1.0000
  H   H200      1.0  0.32436  0.28864  0.79758  1.0000
  C   C253      1.0  0.46530  0.25290  0.28320  1.0000
  C   C254      1.0  0.53470  0.75290  0.21680  1.0000
  C   C255      1.0  0.53470  0.74710  0.71680  1.0000
  C   C256      1.0  0.46530  0.24710  0.78320  1.0000
  H   H201      1.0  0.47256  0.25654  0.32301  1.0000
  H   H202      1.0  0.52744  0.75654  0.17699  1.0000
  H   H203      1.0  0.52744  0.74346  0.67699  1.0000
  H   H204      1.0  0.47256  0.24346  0.82301  1.0000
  H   H205      1.0  0.48453  0.21077  0.27272  1.0000
  H   H206      1.0  0.51547  0.71077  0.22728  1.0000
  H   H207      1.0  0.51547  0.78923  0.72728  1.0000
  H   H208      1.0  0.48453  0.28923  0.77272  1.0000
  H   H209      1.0  0.48548  0.29137  0.26789  1.0000
  H   H210      1.0  0.51452  0.79137  0.23211  1.0000
  H   H211      1.0  0.51452  0.70863  0.73211  1.0000
  H   H212      1.0  0.48548  0.20863  0.76789  1.0000
  C   C257      1.0  0.24720  0.09950  0.18340  1.0000
  C   C258      1.0  0.75280  0.59950  0.31660  1.0000
  C   C259      1.0  0.75280  0.90050  0.81660  1.0000
  C   C260      1.0  0.24720  0.40050  0.68340  1.0000
  H   H213      1.0  0.24891  0.13096  0.21241  1.0000
  H   H214      1.0  0.75109  0.63096  0.28759  1.0000
  H   H215      1.0  0.75109  0.86904  0.78759  1.0000
  H   H216      1.0  0.24891  0.36904  0.71241  1.0000
  C   C261      1.0  0.24750  0.98330  0.15310  1.0000
  C   C262      1.0  0.75250  0.48330  0.34690  1.0000
  C   C263      1.0  0.75250  0.01670  0.84690  1.0000
  C   C264      1.0  0.24750  0.51670  0.65310  1.0000
  H   H217      1.0  0.25076  0.93819  0.16962  1.0000
  H   H218      1.0  0.74924  0.43819  0.33038  1.0000
  H   H219      1.0  0.74924  0.06181  0.83038  1.0000
  H   H220      1.0  0.25076  0.56181  0.66962  1.0000
  H   H221      1.0  0.20613  0.98735  0.12787  1.0000
  H   H222      1.0  0.79387  0.48735  0.37213  1.0000
  H   H223      1.0  0.79387  0.01265  0.87213  1.0000
  H   H224      1.0  0.20613  0.51265  0.62787  1.0000
  H   H225      1.0  0.28349  0.99004  0.13318  1.0000
  H   H226      1.0  0.71651  0.49004  0.36682  1.0000
  H   H227      1.0  0.71651  0.00996  0.86682  1.0000
  H   H228      1.0  0.28349  0.50996  0.63318  1.0000
  C   C265      1.0  0.25550  0.01420  0.25290  1.0000
  C   C266      1.0  0.74450  0.51420  0.24710  1.0000
  C   C267      1.0  0.74450  0.98580  0.74710  1.0000
  C   C268      1.0  0.25550  0.48580  0.75290  1.0000
  H   H229      1.0  0.25764  0.96488  0.25600  1.0000
  H   H230      1.0  0.74236  0.46488  0.24400  1.0000
  H   H231      1.0  0.74236  0.03512  0.74400  1.0000
  H   H232      1.0  0.25764  0.53512  0.75600  1.0000
  H   H233      1.0  0.29483  0.03401  0.27427  1.0000
  H   H234      1.0  0.70517  0.53401  0.22573  1.0000
  H   H235      1.0  0.70517  0.96599  0.72573  1.0000
  H   H236      1.0  0.29483  0.46599  0.77427  1.0000
  H   H237      1.0  0.21730  0.03072  0.26681  1.0000
  H   H238      1.0  0.78270  0.53072  0.23319  1.0000
  H   H239      1.0  0.78270  0.96928  0.73319  1.0000
  H   H240      1.0  0.21730  0.46928  0.76681  1.0000
  C   C269      1.0  0.23750  0.14560  0.97590  1.0000
  C   C270      1.0  0.76250  0.64560  0.52410  1.0000
  C   C271      1.0  0.76250  0.85440  0.02410  1.0000
  C   C272      1.0  0.23750  0.35440  0.47590  1.0000
  H   H241      1.0  0.23646  0.18767  0.95738  1.0000
  H   H242      1.0  0.76354  0.68767  0.54262  1.0000
  H   H243      1.0  0.76354  0.81233  0.04262  1.0000
  H   H244      1.0  0.23646  0.31233  0.45738  1.0000
  C   C273      1.0  0.24460  0.09280  0.88760  1.0000
  C   C274      1.0  0.75540  0.59280  0.61240  1.0000
  C   C275      1.0  0.75540  0.90720  0.11240  1.0000
  C   C276      1.0  0.24460  0.40720  0.38760  1.0000
  H   H245      1.0  0.24604  0.04726  0.87241  1.0000
  H   H246      1.0  0.75396  0.54726  0.62759  1.0000
  H   H247      1.0  0.75396  0.95274  0.12759  1.0000
  H   H248      1.0  0.24604  0.45274  0.37241  1.0000
  H   H249      1.0  0.20666  0.11694  0.86809  1.0000
  H   H250      1.0  0.79334  0.61694  0.63191  1.0000
  H   H251      1.0  0.79334  0.88306  0.13191  1.0000
  H   H252      1.0  0.20666  0.38306  0.36809  1.0000
  H   H253      1.0  0.28423  0.11733  0.88353  1.0000
  H   H254      1.0  0.71577  0.61733  0.61647  1.0000
  H   H255      1.0  0.71577  0.88267  0.11647  1.0000
  H   H256      1.0  0.28423  0.38267  0.38353  1.0000
  C   C277      1.0  0.24460  0.02270  0.97180  1.0000
  C   C278      1.0  0.75540  0.52270  0.52820  1.0000
  C   C279      1.0  0.75540  0.97730  0.02820  1.0000
  C   C280      1.0  0.24460  0.47730  0.47180  1.0000
  H   H257      1.0  0.24600  0.98749  0.94435  1.0000
  H   H258      1.0  0.75400  0.48749  0.55565  1.0000
  H   H259      1.0  0.75400  0.01251  0.05565  1.0000
  H   H260      1.0  0.24600  0.51251  0.44435  1.0000
  H   H261      1.0  0.28425  0.02061  0.99930  1.0000
  H   H262      1.0  0.71575  0.52061  0.50070  1.0000
  H   H263      1.0  0.71575  0.97939  0.00070  1.0000
  H   H264      1.0  0.28425  0.47939  0.49930  1.0000
  H   H265      1.0  0.20668  0.01564  0.98933  1.0000
  H   H266      1.0  0.79332  0.51564  0.51067  1.0000
  H   H267      1.0  0.79332  0.98436  0.01067  1.0000
  H   H268      1.0  0.20668  0.48436  0.48933  1.0000
  C   C281      1.0  0.24430  0.35420  0.99510  1.0000
  C   C282      1.0  0.75570  0.85420  0.50490  1.0000
  C   C283      1.0  0.75570  0.64580  0.00490  1.0000
  C   C284      1.0  0.24430  0.14580  0.49510  1.0000
  H   H269      1.0  0.24416  0.38658  0.02315  1.0000
  H   H270      1.0  0.75584  0.88658  0.47685  1.0000
  H   H271      1.0  0.75584  0.61342  0.97685  1.0000
  H   H272      1.0  0.24416  0.11342  0.52315  1.0000
  C   C285      1.0  0.24990  0.32880  0.89840  1.0000
  C   C286      1.0  0.75010  0.82880  0.60160  1.0000
  C   C287      1.0  0.75010  0.67120  0.10160  1.0000
  C   C288      1.0  0.24990  0.17120  0.39840  1.0000
  H   H273      1.0  0.25189  0.35314  0.86444  1.0000
  H   H274      1.0  0.74811  0.85314  0.63556  1.0000
  H   H275      1.0  0.74811  0.64686  0.13556  1.0000
  H   H276      1.0  0.25189  0.14686  0.36444  1.0000
  H   H277      1.0  0.28860  0.30034  0.90785  1.0000
  H   H278      1.0  0.71140  0.80034  0.59215  1.0000
  H   H279      1.0  0.71140  0.69966  0.09215  1.0000
  H   H280      1.0  0.28860  0.19966  0.40785  1.0000
  H   H281      1.0  0.21096  0.30036  0.89346  1.0000
  H   H282      1.0  0.78904  0.80036  0.60654  1.0000
  H   H283      1.0  0.78904  0.69964  0.10654  1.0000
  H   H284      1.0  0.21096  0.19964  0.39346  1.0000
  C   C289      1.0  0.25070  0.45250  0.93210  1.0000
  C   C290      1.0  0.74930  0.95250  0.56790  1.0000
  C   C291      1.0  0.74930  0.54750  0.06790  1.0000
  C   C292      1.0  0.25070  0.04750  0.43210  1.0000
  H   H285      1.0  0.25254  0.45956  0.89348  1.0000
  H   H286      1.0  0.74746  0.95956  0.60652  1.0000
  H   H287      1.0  0.74746  0.54044  0.10652  1.0000
  H   H288      1.0  0.25254  0.04044  0.39348  1.0000
  H   H289      1.0  0.21213  0.47489  0.94111  1.0000
  H   H290      1.0  0.78787  0.97489  0.55889  1.0000
  H   H291      1.0  0.78787  0.52511  0.05889  1.0000
  H   H292      1.0  0.21213  0.02511  0.44111  1.0000
  H   H293      1.0  0.28976  0.47154  0.95452  1.0000
  H   H294      1.0  0.71024  0.97154  0.54548  1.0000
  H   H295      1.0  0.71024  0.52846  0.04548  1.0000
  H   H296      1.0  0.28976  0.02846  0.45452  1.0000
  C   C293      1.0  0.07670  0.97200  0.76170  1.0000
  C   C294      1.0  0.92330  0.47200  0.73830  1.0000
  C   C295      1.0  0.92330  0.02800  0.23830  1.0000
  C   C296      1.0  0.07670  0.52800  0.26170  1.0000
