data_image0
_chemical_formula_structural       Sn4O16N4C76H120
_chemical_formula_sum              "Sn4 O16 N4 C76 H120"
_cell_length_a       9.201
_cell_length_b       17.128
_cell_length_c       22.12
_cell_angle_alpha    90
_cell_angle_beta     95.94
_cell_angle_gamma    90

_space_group_name_H-M_alt    "P 1"
_space_group_IT_number       1

loop_
  _space_group_symop_operation_xyz
  'x, y, z'

loop_
  _atom_site_type_symbol
  _atom_site_label
  _atom_site_symmetry_multiplicity
  _atom_site_fract_x
  _atom_site_fract_y
  _atom_site_fract_z
  _atom_site_occupancy
  Sn  Sn1       1.0  0.29440  0.75210  0.94270  1.0000
  Sn  Sn2       1.0  0.70560  0.25210  0.55730  1.0000
  Sn  Sn3       1.0  0.70560  0.24790  0.05730  1.0000
  Sn  Sn4       1.0  0.29440  0.74790  0.44270  1.0000
  O   O1        1.0  0.27350  0.81220  0.84870  1.0000
  O   O2        1.0  0.72650  0.31220  0.65130  1.0000
  O   O3        1.0  0.72650  0.18780  0.15130  1.0000
  O   O4        1.0  0.27350  0.68780  0.34870  1.0000
  O   O5        1.0  0.39670  0.71780  0.80330  1.0000
  O   O6        1.0  0.60330  0.21780  0.69670  1.0000
  O   O7        1.0  0.60330  0.28220  0.19670  1.0000
  O   O8        1.0  0.39670  0.78220  0.30330  1.0000
  O   O9        1.0  0.28560  0.69330  0.03380  1.0000
  O   O10       1.0  0.71440  0.19330  0.46620  1.0000
  O   O11       1.0  0.71440  0.30670  0.96620  1.0000
  O   O12       1.0  0.28560  0.80670  0.53380  1.0000
  O   O13       1.0  0.37950  0.79200  0.09090  1.0000
  O   O14       1.0  0.62050  0.29200  0.40910  1.0000
  O   O15       1.0  0.62050  0.20800  0.90910  1.0000
  O   O16       1.0  0.37950  0.70800  0.59090  1.0000
  N   N1        1.0  0.31270  0.78320  0.69280  1.0000
  N   N2        1.0  0.68730  0.28320  0.80720  1.0000
  N   N3        1.0  0.68730  0.21680  0.30720  1.0000
  N   N4        1.0  0.31270  0.71680  0.19280  1.0000
  C   C1        1.0  0.31890  0.77580  0.80130  1.0000
  C   C2        1.0  0.68110  0.27580  0.69870  1.0000
  C   C3        1.0  0.68110  0.22420  0.19870  1.0000
  C   C4        1.0  0.31890  0.72420  0.30130  1.0000
  C   C5        1.0  0.26890  0.81870  0.74190  1.0000
  C   C6        1.0  0.73110  0.31870  0.75810  1.0000
  C   C7        1.0  0.73110  0.18130  0.25810  1.0000
  C   C8        1.0  0.26890  0.68130  0.24190  1.0000
  C   C9        1.0  0.26520  0.81580  0.63950  1.0000
  C   C10       1.0  0.73480  0.31580  0.86050  1.0000
  C   C11       1.0  0.73480  0.18420  0.36050  1.0000
  C   C12       1.0  0.26520  0.68420  0.13950  1.0000
  C   C13       1.0  0.31500  0.73080  0.08400  1.0000
  C   C14       1.0  0.68500  0.23080  0.41600  1.0000
  C   C15       1.0  0.68500  0.26920  0.91600  1.0000
  C   C16       1.0  0.31500  0.76920  0.58400  1.0000
  C   C17       1.0  0.18260  0.88240  0.62990  1.0000
  C   C18       1.0  0.81740  0.38240  0.87010  1.0000
  C   C19       1.0  0.81740  0.11760  0.37010  1.0000
  C   C20       1.0  0.18260  0.61760  0.12990  1.0000
  C   C21       1.0  0.13610  0.91590  0.68300  1.0000
  C   C22       1.0  0.86390  0.41590  0.81700  1.0000
  C   C23       1.0  0.86390  0.08410  0.31700  1.0000
  C   C24       1.0  0.13610  0.58410  0.18300  1.0000
  C   C25       1.0  0.18290  0.88380  0.74090  1.0000
  C   C26       1.0  0.81710  0.38380  0.75910  1.0000
  C   C27       1.0  0.81710  0.11620  0.25910  1.0000
  C   C28       1.0  0.18290  0.61620  0.24090  1.0000
  C   C29       1.0  0.52170  0.76980  0.95030  1.0000
  C   C30       1.0  0.47830  0.26980  0.54970  1.0000
  C   C31       1.0  0.47830  0.23020  0.04970  1.0000
  C   C32       1.0  0.52170  0.73020  0.45030  1.0000
  C   C33       1.0  0.61870  0.70800  0.98080  1.0000
  C   C34       1.0  0.38130  0.20800  0.51920  1.0000
  C   C35       1.0  0.38130  0.29200  0.01920  1.0000
  C   C36       1.0  0.61870  0.79200  0.48080  1.0000
  C   C37       1.0  0.78120  0.72430  0.97750  1.0000
  C   C38       1.0  0.21880  0.22430  0.52250  1.0000
  C   C39       1.0  0.21880  0.27570  0.02250  1.0000
  C   C40       1.0  0.78120  0.77570  0.47750  1.0000
  C   C41       1.0  0.88100  0.67750  0.02110  1.0000
  C   C42       1.0  0.11900  0.17750  0.47890  1.0000
  C   C43       1.0  0.11900  0.32250  0.97890  1.0000
  C   C44       1.0  0.88100  0.82250  0.52110  1.0000
  C   C45       1.0  0.14400  0.83990  0.96590  1.0000
  C   C46       1.0  0.85600  0.33990  0.53410  1.0000
  C   C47       1.0  0.85600  0.16010  0.03410  1.0000
  C   C48       1.0  0.14400  0.66010  0.46590  1.0000
  C   C49       1.0  0.22980  0.91750  0.97120  1.0000
  C   C50       1.0  0.77020  0.41750  0.52880  1.0000
  C   C51       1.0  0.77020  0.08250  0.02880  1.0000
  C   C52       1.0  0.22980  0.58250  0.47120  1.0000
  C   C53       1.0  0.15390  0.98420  0.93700  1.0000
  C   C54       1.0  0.84610  0.48420  0.56300  1.0000
  C   C55       1.0  0.84610  0.01580  0.06300  1.0000
  C   C56       1.0  0.15390  0.51580  0.43700  1.0000
  C   C57       1.0  0.26110  0.04160  0.96780  1.0000
  C   C58       1.0  0.73890  0.54160  0.53220  1.0000
  C   C59       1.0  0.73890  0.95840  0.03220  1.0000
  C   C60       1.0  0.26110  0.45840  0.46780  1.0000
  C   C61       1.0  0.20280  0.64250  0.90750  1.0000
  C   C62       1.0  0.79720  0.14250  0.59250  1.0000
  C   C63       1.0  0.79720  0.35750  0.09250  1.0000
  C   C64       1.0  0.20280  0.85750  0.40750  1.0000
  C   C65       1.0  0.32030  0.57840  0.91370  1.0000
  C   C66       1.0  0.67970  0.07840  0.58630  1.0000
  C   C67       1.0  0.67970  0.42160  0.08630  1.0000
  C   C68       1.0  0.32030  0.92160  0.41370  1.0000
  C   C69       1.0  0.26720  0.50200  0.88590  1.0000
  C   C70       1.0  0.73280  0.00200  0.61410  1.0000
  C   C71       1.0  0.73280  0.49800  0.11410  1.0000
  C   C72       1.0  0.26720  0.99800  0.38590  1.0000
  C   C73       1.0  0.40250  0.45160  0.88390  1.0000
  C   C74       1.0  0.59750  0.95160  0.61610  1.0000
  C   C75       1.0  0.59750  0.54840  0.11610  1.0000
  C   C76       1.0  0.40250  0.04840  0.38390  1.0000
  H   H1        1.0  0.10585  0.90470  0.58980  1.0000
  H   H2        1.0  0.89415  0.40470  0.91020  1.0000
  H   H3        1.0  0.89415  0.09530  0.41020  1.0000
  H   H4        1.0  0.10585  0.59530  0.08980  1.0000
  H   H5        1.0  0.07150  0.96080  0.67970  1.0000
  H   H6        1.0  0.92850  0.46080  0.82030  1.0000
  H   H7        1.0  0.92850  0.03920  0.32030  1.0000
  H   H8        1.0  0.07150  0.53920  0.17970  1.0000
  H   H9        1.0  0.15460  0.90700  0.77790  1.0000
  H   H10       1.0  0.84540  0.40700  0.72210  1.0000
  H   H11       1.0  0.84540  0.09300  0.22210  1.0000
  H   H12       1.0  0.15460  0.59300  0.27790  1.0000
  H   H13       1.0  0.54160  0.81800  0.97260  1.0000
  H   H14       1.0  0.45840  0.31800  0.52740  1.0000
  H   H15       1.0  0.45840  0.18200  0.02740  1.0000
  H   H16       1.0  0.54160  0.68200  0.47260  1.0000
  H   H17       1.0  0.54940  0.77550  0.90940  1.0000
  H   H18       1.0  0.45060  0.27550  0.59060  1.0000
  H   H19       1.0  0.45060  0.22450  0.09060  1.0000
  H   H20       1.0  0.54940  0.72450  0.40940  1.0000
  H   H21       1.0  0.60140  0.70580  0.02330  1.0000
  H   H22       1.0  0.39860  0.20580  0.47670  1.0000
  H   H23       1.0  0.39860  0.29420  0.97670  1.0000
  H   H24       1.0  0.60140  0.79420  0.52330  1.0000
  H   H25       1.0  0.59420  0.65810  0.96170  1.0000
  H   H26       1.0  0.40580  0.15810  0.53830  1.0000
  H   H27       1.0  0.40580  0.34190  0.03830  1.0000
  H   H28       1.0  0.59420  0.84190  0.46170  1.0000
  H   H29       1.0  0.79910  0.77930  0.98560  1.0000
  H   H30       1.0  0.20090  0.27930  0.51440  1.0000
  H   H31       1.0  0.20090  0.22070  0.01440  1.0000
  H   H32       1.0  0.79910  0.72070  0.48560  1.0000
  H   H33       1.0  0.80350  0.71210  0.93670  1.0000
  H   H34       1.0  0.19650  0.21210  0.56330  1.0000
  H   H35       1.0  0.19650  0.28790  0.06330  1.0000
  H   H36       1.0  0.80350  0.78790  0.43670  1.0000
  H   H37       1.0  0.98150  0.69080  0.01600  1.0000
  H   H38       1.0  0.01850  0.19080  0.48400  1.0000
  H   H39       1.0  0.01850  0.30920  0.98400  1.0000
  H   H40       1.0  0.98150  0.80920  0.51600  1.0000
  H   H41       1.0  0.86540  0.62220  0.01340  1.0000
  H   H42       1.0  0.13460  0.12220  0.48660  1.0000
  H   H43       1.0  0.13460  0.37780  0.98660  1.0000
  H   H44       1.0  0.86540  0.87780  0.51340  1.0000
  H   H45       1.0  0.86110  0.68950  0.06230  1.0000
  H   H46       1.0  0.13890  0.18950  0.43770  1.0000
  H   H47       1.0  0.13890  0.31050  0.93770  1.0000
  H   H48       1.0  0.86110  0.81050  0.56230  1.0000
  H   H49       1.0  0.10630  0.82700  0.00400  1.0000
  H   H50       1.0  0.89370  0.32700  0.49600  1.0000
  H   H51       1.0  0.89370  0.17300  0.99600  1.0000
  H   H52       1.0  0.10630  0.67300  0.50400  1.0000
  H   H53       1.0  0.06350  0.84430  0.93410  1.0000
  H   H54       1.0  0.93650  0.34430  0.56590  1.0000
  H   H55       1.0  0.93650  0.15570  0.06590  1.0000
  H   H56       1.0  0.06350  0.65570  0.43410  1.0000
  H   H57       1.0  0.32460  0.90870  0.95690  1.0000
  H   H58       1.0  0.67540  0.40870  0.54310  1.0000
  H   H59       1.0  0.67540  0.09130  0.04310  1.0000
  H   H60       1.0  0.32460  0.59130  0.45690  1.0000
  H   H61       1.0  0.24250  0.93160  0.01390  1.0000
  H   H62       1.0  0.75750  0.43160  0.48610  1.0000
  H   H63       1.0  0.75750  0.06840  0.98610  1.0000
  H   H64       1.0  0.24250  0.56840  0.51390  1.0000
  H   H65       1.0  0.15910  0.98080  0.89350  1.0000
  H   H66       1.0  0.84090  0.48080  0.60650  1.0000
  H   H67       1.0  0.84090  0.01920  0.10650  1.0000
  H   H68       1.0  0.15910  0.51920  0.39350  1.0000
  H   H69       1.0  0.05340  0.99310  0.94480  1.0000
  H   H70       1.0  0.94660  0.49310  0.55520  1.0000
  H   H71       1.0  0.94660  0.00690  0.05520  1.0000
  H   H72       1.0  0.05340  0.50690  0.44480  1.0000
  H   H73       1.0  0.23820  0.09380  0.95260  1.0000
  H   H74       1.0  0.76180  0.59380  0.54740  1.0000
  H   H75       1.0  0.76180  0.90620  0.04740  1.0000
  H   H76       1.0  0.23820  0.40620  0.45260  1.0000
  H   H77       1.0  0.35960  0.02790  0.95990  1.0000
  H   H78       1.0  0.64040  0.52790  0.54010  1.0000
  H   H79       1.0  0.64040  0.97210  0.04010  1.0000
  H   H80       1.0  0.35960  0.47210  0.45990  1.0000
  H   H81       1.0  0.25400  0.04010  0.01130  1.0000
  H   H82       1.0  0.74600  0.54010  0.48870  1.0000
  H   H83       1.0  0.74600  0.95990  0.98870  1.0000
  H   H84       1.0  0.25400  0.45990  0.51130  1.0000
  H   H85       1.0  0.16830  0.64880  0.86480  1.0000
  H   H86       1.0  0.83170  0.14880  0.63520  1.0000
  H   H87       1.0  0.83170  0.35120  0.13520  1.0000
  H   H88       1.0  0.16830  0.85120  0.36480  1.0000
  H   H89       1.0  0.12180  0.62790  0.92990  1.0000
  H   H90       1.0  0.87820  0.12790  0.57010  1.0000
  H   H91       1.0  0.87820  0.37210  0.07010  1.0000
  H   H92       1.0  0.12180  0.87210  0.42990  1.0000
  H   H93       1.0  0.34770  0.56960  0.95670  1.0000
  H   H94       1.0  0.65230  0.06960  0.54330  1.0000
  H   H95       1.0  0.65230  0.43040  0.04330  1.0000
  H   H96       1.0  0.34770  0.93040  0.45670  1.0000
  H   H97       1.0  0.40480  0.59620  0.89480  1.0000
  H   H98       1.0  0.59520  0.09620  0.60520  1.0000
  H   H99       1.0  0.59520  0.40380  0.10520  1.0000
  H   H100      1.0  0.40480  0.90380  0.39480  1.0000
  H   H101      1.0  0.19770  0.47710  0.90970  1.0000
  H   H102      1.0  0.80230  0.97710  0.59030  1.0000
  H   H103      1.0  0.80230  0.52290  0.09030  1.0000
  H   H104      1.0  0.19770  0.02290  0.40970  1.0000
  H   H105      1.0  0.22200  0.51070  0.84490  1.0000
  H   H106      1.0  0.77800  0.01070  0.65510  1.0000
  H   H107      1.0  0.77800  0.48930  0.15510  1.0000
  H   H108      1.0  0.22200  0.98930  0.34490  1.0000
  H   H109      1.0  0.37470  0.40160  0.86560  1.0000
  H   H110      1.0  0.62530  0.90160  0.63440  1.0000
  H   H111      1.0  0.62530  0.59840  0.13440  1.0000
  H   H112      1.0  0.37470  0.09840  0.36560  1.0000
  H   H113      1.0  0.44730  0.44350  0.92500  1.0000
  H   H114      1.0  0.55270  0.94350  0.57500  1.0000
  H   H115      1.0  0.55270  0.55650  0.07500  1.0000
  H   H116      1.0  0.44730  0.05650  0.42500  1.0000
  H   H117      1.0  0.47160  0.47720  0.86020  1.0000
  H   H118      1.0  0.52840  0.97720  0.63980  1.0000
  H   H119      1.0  0.52840  0.52280  0.13980  1.0000
  H   H120      1.0  0.47160  0.02280  0.36020  1.0000
