data_image0
_chemical_formula_structural       V4P4O20C8H4C4H4
_chemical_formula_sum              "V4 P4 O20 C12 H8"
_cell_length_a       10.0671
_cell_length_b       6.1691
_cell_length_c       14.0546
_cell_angle_alpha    90
_cell_angle_beta     95.028
_cell_angle_gamma    90

_space_group_name_H-M_alt    "P 1"
_space_group_IT_number       1

loop_
  _space_group_symop_operation_xyz
  'x, y, z'

loop_
  _atom_site_type_symbol
  _atom_site_label
  _atom_site_symmetry_multiplicity
  _atom_site_fract_x
  _atom_site_fract_y
  _atom_site_fract_z
  _atom_site_occupancy
  V   V1        1.0  0.74516  0.08126  0.28308  1.0000
  V   V2        1.0  0.75484  0.58126  0.21692  1.0000
  V   V3        1.0  0.25484  0.91874  0.71692  1.0000
  V   V4        1.0  0.24516  0.41874  0.78308  1.0000
  P   P1        1.0  0.48800  0.39458  0.27660  1.0000
  P   P2        1.0  0.01200  0.89458  0.22340  1.0000
  P   P3        1.0  0.51200  0.60542  0.72340  1.0000
  P   P4        1.0  0.98800  0.10542  0.77660  1.0000
  O   O1        1.0  0.56160  0.17750  0.26534  1.0000
  O   O2        1.0  0.93840  0.67750  0.23466  1.0000
  O   O3        1.0  0.43840  0.82250  0.73466  1.0000
  O   O4        1.0  0.06160  0.32250  0.76534  1.0000
  O   O5        1.0  0.56230  0.58280  0.22995  1.0000
  O   O6        1.0  0.93770  0.08280  0.27005  1.0000
  O   O7        1.0  0.43770  0.41720  0.77005  1.0000
  O   O8        1.0  0.06230  0.91720  0.72995  1.0000
  O   O9        1.0  0.34560  0.37820  0.23627  1.0000
  O   O10       1.0  0.15440  0.87820  0.26373  1.0000
  O   O11       1.0  0.65440  0.62180  0.76373  1.0000
  O   O12       1.0  0.84560  0.12180  0.73627  1.0000
  O   O13       1.0  0.77960  0.39040  0.30511  1.0000
  O   O14       1.0  0.72040  0.89040  0.19489  1.0000
  O   O15       1.0  0.22040  0.60960  0.69489  1.0000
  O   O16       1.0  0.27960  0.10960  0.80511  1.0000
  O   O17       1.0  0.74610  0.95420  0.38173  1.0000
  O   O18       1.0  0.75390  0.45420  0.11827  1.0000
  O   O19       1.0  0.25390  0.04580  0.61827  1.0000
  O   O20       1.0  0.24610  0.54580  0.88173  1.0000
  C   C1        1.0  0.49740  0.45350  0.40240  1.0000
  C   C2        1.0  0.00260  0.95350  0.09760  1.0000
  C   C3        1.0  0.50260  0.54650  0.59760  1.0000
  C   C4        1.0  0.99740  0.04650  0.90240  1.0000
  C   C5        1.0  0.47320  0.66340  0.43330  1.0000
  C   C6        1.0  0.02680  0.16340  0.06670  1.0000
  C   C7        1.0  0.52680  0.33660  0.56670  1.0000
  C   C8        1.0  0.97320  0.83660  0.93330  1.0000
  H   H1        1.0  0.45470  0.77580  0.38790  1.0000
  H   H2        1.0  0.04530  0.27580  0.11210  1.0000
  H   H3        1.0  0.54530  0.22420  0.61210  1.0000
  H   H4        1.0  0.95470  0.72420  0.88790  1.0000
  C   C9        1.0  0.52400  0.29110  0.46940  1.0000
  C   C10       1.0  0.97600  0.79110  0.03060  1.0000
  C   C11       1.0  0.47600  0.70890  0.53060  1.0000
  C   C12       1.0  0.02400  0.20890  0.96940  1.0000
  H   H5        1.0  0.54050  0.14760  0.44890  1.0000
  H   H6        1.0  0.95950  0.64760  0.05110  1.0000
  H   H7        1.0  0.45950  0.85240  0.55110  1.0000
  H   H8        1.0  0.04050  0.35240  0.94890  1.0000
