data_image0
_chemical_formula_structural       Ru4F32O16N4C68H12
_chemical_formula_sum              "Ru4 F32 O16 N4 C68 H12"
_cell_length_a       10.565
_cell_length_b       14.374
_cell_length_c       16.153
_cell_angle_alpha    82.137
_cell_angle_beta     76.944
_cell_angle_gamma    78.315

_space_group_name_H-M_alt    "P 1"
_space_group_IT_number       1

loop_
  _space_group_symop_operation_xyz
  'x, y, z'

loop_
  _atom_site_type_symbol
  _atom_site_label
  _atom_site_symmetry_multiplicity
  _atom_site_fract_x
  _atom_site_fract_y
  _atom_site_fract_z
  _atom_site_occupancy
  Ru  Ru1       1.0  0.52982  0.06477  0.45583  1.0000
  Ru  Ru2       1.0  0.47018  0.93523  0.54417  1.0000
  Ru  Ru3       1.0  0.51039  0.49490  0.06962  1.0000
  Ru  Ru4       1.0  0.48961  0.50510  0.93038  1.0000
  F   F1        1.0  0.83190  0.81330  0.66180  1.0000
  F   F2        1.0  0.16810  0.18670  0.33820  1.0000
  F   F3        1.0  0.04890  0.80420  0.72130  1.0000
  F   F4        1.0  0.95110  0.19580  0.27870  1.0000
  F   F5        1.0  0.08640  0.11590  0.59490  1.0000
  F   F6        1.0  0.91360  0.88410  0.40510  1.0000
  F   F7        1.0  0.86820  0.12990  0.53950  1.0000
  F   F8        1.0  0.13180  0.87010  0.46050  1.0000
  F   F9        1.0  0.43150  0.78330  0.34070  1.0000
  F   F10       1.0  0.56850  0.21670  0.65930  1.0000
  F   F11       1.0  0.49200  0.66780  0.21810  1.0000
  F   F12       1.0  0.50800  0.33220  0.78190  1.0000
  F   F13       1.0  0.90810  0.76150  0.12370  1.0000
  F   F14       1.0  0.09190  0.23850  0.87630  1.0000
  F   F15       1.0  0.85210  0.87550  0.24850  1.0000
  F   F16       1.0  0.14790  0.12450  0.75150  1.0000
  F   F17       1.0  0.69620  0.18880  0.12620  1.0000
  F   F18       1.0  0.30380  0.81120  0.87380  1.0000
  F   F19       1.0  0.81100  0.00980  0.11140  1.0000
  F   F20       1.0  0.18900  0.99020  0.88860  1.0000
  F   F21       1.0  0.87280  0.06470  0.81390  1.0000
  F   F22       1.0  0.12720  0.93530  0.18610  1.0000
  F   F23       1.0  0.76110  0.24560  0.82610  1.0000
  F   F24       1.0  0.23890  0.75440  0.17390  1.0000
  F   F25       1.0  0.04740  0.54890  0.13020  1.0000
  F   F26       1.0  0.95260  0.45110  0.86980  1.0000
  F   F27       1.0  0.81090  0.49520  0.18050  1.0000
  F   F28       1.0  0.18910  0.50480  0.81950  1.0000
  F   F29       1.0  0.99410  0.19710  0.07610  1.0000
  F   F30       1.0  0.00590  0.80290  0.92390  1.0000
  F   F31       1.0  0.23160  0.24940  0.02630  1.0000
  F   F32       1.0  0.76840  0.75060  0.97370  1.0000
  O   O1        1.0  0.70130  0.04440  0.50100  1.0000
  O   O2        1.0  0.29870  0.95560  0.49900  1.0000
  O   O3        1.0  0.64350  0.91860  0.58980  1.0000
  O   O4        1.0  0.35650  0.08140  0.41020  1.0000
  O   O5        1.0  0.61790  0.98040  0.35690  1.0000
  O   O6        1.0  0.38210  0.01960  0.64310  1.0000
  O   O7        1.0  0.55780  0.85260  0.44390  1.0000
  O   O8        1.0  0.44220  0.14740  0.55610  1.0000
  O   O9        1.0  0.62240  0.35930  0.05580  1.0000
  O   O10       1.0  0.37760  0.64070  0.94420  1.0000
  O   O11       1.0  0.59840  0.36900  0.92050  1.0000
  O   O12       1.0  0.40160  0.63100  0.07950  1.0000
  O   O13       1.0  0.33380  0.44270  0.10650  1.0000
  O   O14       1.0  0.66620  0.55730  0.89350  1.0000
  O   O15       1.0  0.31660  0.44930  0.96990  1.0000
  O   O16       1.0  0.68340  0.55070  0.03010  1.0000
  N   N1        1.0  0.57900  0.20480  0.38250  1.0000
  N   N2        1.0  0.42100  0.79520  0.61750  1.0000
  N   N3        1.0  0.52900  0.46390  0.20860  1.0000
  N   N4        1.0  0.47100  0.53610  0.79140  1.0000
  C   C1        1.0  0.71910  0.97950  0.56090  1.0000
  C   C2        1.0  0.28090  0.02050  0.43910  1.0000
  C   C3        1.0  0.83910  0.97250  0.59730  1.0000
  C   C4        1.0  0.16090  0.02750  0.40270  1.0000
  C   C5        1.0  0.88970  0.89050  0.64570  1.0000
  C   C6        1.0  0.11030  0.10950  0.35430  1.0000
  C   C7        1.0  0.00460  0.88620  0.67640  1.0000
  C   C8        1.0  0.99540  0.11380  0.32360  1.0000
  C   C9        1.0  0.07150  0.96010  0.66140  1.0000
  C   C10       1.0  0.92850  0.03990  0.33860  1.0000
  C   C11       1.0  0.02120  0.04110  0.61530  1.0000
  C   C12       1.0  0.97880  0.95890  0.38470  1.0000
  C   C13       1.0  0.90970  0.04780  0.58480  1.0000
  C   C14       1.0  0.09030  0.95220  0.41520  1.0000
  C   C15       1.0  0.60390  0.89340  0.37270  1.0000
  C   C16       1.0  0.39610  0.10660  0.62730  1.0000
  C   C17       1.0  0.64060  0.83200  0.29950  1.0000
  C   C18       1.0  0.35940  0.16800  0.70050  1.0000
  C   C19       1.0  0.55220  0.77760  0.28940  1.0000
  C   C20       1.0  0.44780  0.22240  0.71060  1.0000
  C   C21       1.0  0.58400  0.71810  0.22410  1.0000
  C   C22       1.0  0.41600  0.28190  0.77590  1.0000
  C   C23       1.0  0.69830  0.71210  0.16910  1.0000
  C   C24       1.0  0.30170  0.28790  0.83090  1.0000
  C   C25       1.0  0.79140  0.76600  0.17740  1.0000
  C   C26       1.0  0.20860  0.23400  0.82260  1.0000
  C   C27       1.0  0.76150  0.82570  0.24150  1.0000
  C   C28       1.0  0.23850  0.17430  0.75850  1.0000
  C   C29       1.0  0.63880  0.32670  0.98490  1.0000
  C   C30       1.0  0.36120  0.67330  0.01510  1.0000
  C   C31       1.0  0.71390  0.22550  0.97670  1.0000
  C   C32       1.0  0.28610  0.77450  0.02330  1.0000
  C   C33       1.0  0.73530  0.16220  0.04680  1.0000
  C   C34       1.0  0.26470  0.83780  0.95320  1.0000
  C   C35       1.0  0.79660  0.06640  0.03750  1.0000
  C   C36       1.0  0.20340  0.93360  0.96250  1.0000
  C   C37       1.0  0.83980  0.03230  0.96210  1.0000
  C   C38       1.0  0.16020  0.96770  0.03790  1.0000
  C   C39       1.0  0.82660  0.09470  0.89160  1.0000
  C   C40       1.0  0.17340  0.90530  0.10840  1.0000
  C   C41       1.0  0.76760  0.19070  0.89870  1.0000
  C   C42       1.0  0.23240  0.80930  0.10130  1.0000
  C   C43       1.0  0.27570  0.43340  0.04830  1.0000
  C   C44       1.0  0.72430  0.56660  0.95170  1.0000
  C   C45       1.0  0.14610  0.40050  0.07660  1.0000
  C   C46       1.0  0.85390  0.59950  0.92340  1.0000
  C   C47       1.0  0.03490  0.46180  0.11700  1.0000
  C   C48       1.0  0.96510  0.53820  0.88300  1.0000
  C   C49       1.0  0.91270  0.43380  0.14100  1.0000
  C   C50       1.0  0.08730  0.56620  0.85900  1.0000
  C   C51       1.0  0.89620  0.34580  0.12650  1.0000
  C   C52       1.0  0.10380  0.65420  0.87350  1.0000
  C   C53       1.0  0.00640  0.28430  0.08790  1.0000
  C   C54       1.0  0.99360  0.71570  0.91210  1.0000
  C   C55       1.0  0.12900  0.31170  0.06410  1.0000
  C   C56       1.0  0.87100  0.68830  0.93590  1.0000
  C   C57       1.0  0.56210  0.28790  0.37220  1.0000
  C   C58       1.0  0.43790  0.71210  0.62780  1.0000
  C   C59       1.0  0.53970  0.38690  0.36030  1.0000
  C   C60       1.0  0.46030  0.61310  0.63970  1.0000
  C   C61       1.0  0.53230  0.43010  0.27650  1.0000
  C   C62       1.0  0.46770  0.56990  0.72350  1.0000
  C   C63       1.0  0.51860  0.44430  0.43140  1.0000
  C   C64       1.0  0.48140  0.55570  0.56860  1.0000
  C   C65       1.0  0.52890  0.40090  0.51450  1.0000
  C   C66       1.0  0.47110  0.59910  0.48550  1.0000
  C   C67       1.0  0.51120  0.45420  0.58090  1.0000
  C   C68       1.0  0.48880  0.54580  0.41910  1.0000
  H   H1        1.0  0.15007  0.95586  0.68199  1.0000
  H   H2        1.0  0.84993  0.04414  0.31801  1.0000
  H   H3        1.0  0.71738  0.67174  0.12426  1.0000
  H   H4        1.0  0.28262  0.32826  0.87574  1.0000
  H   H5        1.0  0.87833  0.96701  0.95721  1.0000
  H   H6        1.0  0.12167  0.03299  0.04279  1.0000
  H   H7        1.0  0.81202  0.32726  0.14236  1.0000
  H   H8        1.0  0.18798  0.67274  0.85764  1.0000
  H   H9        1.0  0.54844  0.33329  0.52390  1.0000
  H   H10       1.0  0.45156  0.66671  0.47610  1.0000
  H   H11       1.0  0.51880  0.42352  0.63591  1.0000
  H   H12       1.0  0.48120  0.57648  0.36409  1.0000
