data_image0
_chemical_formula_structural       Ru4F32O16N4C10H2C14H2C14H2C14H2C14H2C2H2
_chemical_formula_sum              "Ru4 F32 O16 N4 C68 H12"
_cell_length_a       10.2874
_cell_length_b       14.1735
_cell_length_c       16.0789
_cell_angle_alpha    96.322
_cell_angle_beta     108.525
_cell_angle_gamma    100.242

_space_group_name_H-M_alt    "P 1"
_space_group_IT_number       1

loop_
  _space_group_symop_operation_xyz
  'x, y, z'

loop_
  _atom_site_type_symbol
  _atom_site_label
  _atom_site_symmetry_multiplicity
  _atom_site_fract_x
  _atom_site_fract_y
  _atom_site_fract_z
  _atom_site_occupancy
  Ru  Ru1       1.0  0.49537  0.92994  0.45614  1.0000
  Ru  Ru2       1.0  0.50463  0.07006  0.54386  1.0000
  Ru  Ru3       1.0  0.48873  0.49810  0.06809  1.0000
  Ru  Ru4       1.0  0.51127  0.50190  0.93191  1.0000
  F   F1        1.0  0.91660  0.88200  0.55180  1.0000
  F   F2        1.0  0.08340  0.11800  0.44820  1.0000
  F   F3        1.0  0.18570  0.89660  0.62130  1.0000
  F   F4        1.0  0.81430  0.10340  0.37870  1.0000
  F   F5        1.0  0.25060  0.22730  0.72900  1.0000
  F   F6        1.0  0.74940  0.77270  0.27100  1.0000
  F   F7        1.0  0.97960  0.21600  0.65780  1.0000
  F   F8        1.0  0.02040  0.78400  0.34220  1.0000
  F   F9        1.0  0.56740  0.06190  0.21560  1.0000
  F   F10       1.0  0.43260  0.93810  0.78440  1.0000
  F   F11       1.0  0.49240  0.14790  0.07560  1.0000
  F   F12       1.0  0.50760  0.85210  0.92440  1.0000
  F   F13       1.0  0.22230  0.30900  0.20090  1.0000
  F   F14       1.0  0.77770  0.69100  0.79910  1.0000
  F   F15       1.0  0.28170  0.21520  0.33670  1.0000
  F   F16       1.0  0.71830  0.78480  0.66330  1.0000
  F   F17       1.0  0.41990  0.80580  0.11240  1.0000
  F   F18       1.0  0.58010  0.19420  0.88760  1.0000
  F   F19       1.0  0.29690  0.95480  0.08620  1.0000
  F   F20       1.0  0.70310  0.04520  0.91380  1.0000
  F   F21       1.0  0.03720  0.80250  0.79230  1.0000
  F   F22       1.0  0.96280  0.19750  0.20770  1.0000
  F   F23       1.0  0.14920  0.64870  0.81970  1.0000
  F   F24       1.0  0.85080  0.35130  0.18030  1.0000
  F   F25       1.0  0.20260  0.16750  0.90890  1.0000
  F   F26       1.0  0.79740  0.83250  0.09110  1.0000
  F   F27       1.0  0.94410  0.05260  0.83340  1.0000
  F   F28       1.0  0.05590  0.94740  0.16660  1.0000
  F   F29       1.0  0.75840  0.32730  0.78430  1.0000
  F   F30       1.0  0.24160  0.67270  0.21570  1.0000
  F   F31       1.0  0.01640  0.44170  0.85690  1.0000
  F   F32       1.0  0.98360  0.55830  0.14310  1.0000
  O   O1        1.0  0.71060  0.96360  0.50140  1.0000
  O   O2        1.0  0.28940  0.03640  0.49860  1.0000
  O   O3        1.0  0.72090  0.09890  0.58920  1.0000
  O   O4        1.0  0.27910  0.90110  0.41080  1.0000
  O   O5        1.0  0.47530  0.00110  0.34890  1.0000
  O   O6        1.0  0.52470  0.99890  0.65110  1.0000
  O   O7        1.0  0.48830  0.13960  0.43500  1.0000
  O   O8        1.0  0.51170  0.86040  0.56500  1.0000
  O   O9        1.0  0.38300  0.60870  0.04880  1.0000
  O   O10       1.0  0.61700  0.39130  0.95120  1.0000
  O   O11       1.0  0.40550  0.61290  0.91600  1.0000
  O   O12       1.0  0.59450  0.38710  0.08400  1.0000
  O   O13       1.0  0.30180  0.39750  0.00970  1.0000
  O   O14       1.0  0.69820  0.60250  0.99030  1.0000
  O   O15       1.0  0.32170  0.40210  0.87570  1.0000
  O   O16       1.0  0.67830  0.59790  0.12430  1.0000
  N   N1        1.0  0.49830  0.78430  0.38250  1.0000
  N   N2        1.0  0.50170  0.21570  0.61750  1.0000
  N   N3        1.0  0.46190  0.51530  0.20380  1.0000
  N   N4        1.0  0.53810  0.48470  0.79620  1.0000
  C   C1        1.0  0.77660  0.03700  0.56050  1.0000
  C   C2        1.0  0.22340  0.96300  0.43950  1.0000
  C   C3        1.0  0.93140  0.04740  0.60220  1.0000
  C   C4        1.0  0.06860  0.95260  0.39780  1.0000
  C   C5        1.0  0.99500  0.97020  0.59600  1.0000
  C   C6        1.0  0.00500  0.02980  0.40400  1.0000
  C   C7        1.0  0.13580  0.97730  0.63390  1.0000
  C   C8        1.0  0.86420  0.02270  0.36610  1.0000
  C   C9        1.0  0.22650  0.06530  0.67850  1.0000
  C   C10       1.0  0.77350  0.93470  0.32150  1.0000
  H   H1        1.0  0.32540  0.07180  0.70260  1.0000
  H   H2        1.0  0.67460  0.92820  0.29740  1.0000
  C   C11       1.0  0.16750  0.14010  0.68550  1.0000
  C   C12       1.0  0.83250  0.85990  0.31450  1.0000
  C   C13       1.0  0.02660  0.13360  0.64860  1.0000
  C   C14       1.0  0.97340  0.86640  0.35140  1.0000
  C   C15       1.0  0.46730  0.08690  0.36110  1.0000
  C   C16       1.0  0.53270  0.91310  0.63890  1.0000
  C   C17       1.0  0.42900  0.13660  0.28300  1.0000
  C   C18       1.0  0.57100  0.86340  0.71700  1.0000
  C   C19       1.0  0.48130  0.12090  0.21420  1.0000
  C   C20       1.0  0.51870  0.87910  0.78580  1.0000
  C   C21       1.0  0.44340  0.16860  0.14170  1.0000
  C   C22       1.0  0.55660  0.83140  0.85830  1.0000
  C   C23       1.0  0.35770  0.23180  0.13670  1.0000
  C   C24       1.0  0.64230  0.76820  0.86330  1.0000
  H   H3        1.0  0.33550  0.26560  0.08800  1.0000
  H   H4        1.0  0.66450  0.73440  0.91200  1.0000
  C   C25       1.0  0.30510  0.24520  0.20210  1.0000
  C   C26       1.0  0.69490  0.75480  0.79790  1.0000
  C   C27       1.0  0.34090  0.19970  0.27520  1.0000
  C   C28       1.0  0.65910  0.80030  0.72480  1.0000
  C   C29       1.0  0.36420  0.64070  0.97770  1.0000
  C   C30       1.0  0.63580  0.35930  0.02230  1.0000
  C   C31       1.0  0.29050  0.72340  0.96700  1.0000
  C   C32       1.0  0.70950  0.27660  0.03300  1.0000
  C   C33       1.0  0.32210  0.80220  0.03300  1.0000
  C   C34       1.0  0.67790  0.19780  0.96700  1.0000
  C   C35       1.0  0.26060  0.87950  0.01910  1.0000
  C   C36       1.0  0.73940  0.12050  0.98090  1.0000
  C   C37       1.0  0.16550  0.88060  0.93840  1.0000
  C   C38       1.0  0.83450  0.11940  0.06160  1.0000
  H   H5        1.0  0.12520  0.93550  0.92840  1.0000
  H   H6        1.0  0.87480  0.06450  0.07160  1.0000
  C   C39       1.0  0.12920  0.80290  0.87250  1.0000
  C   C40       1.0  0.87080  0.19710  0.12750  1.0000
  C   C41       1.0  0.19010  0.72470  0.88630  1.0000
  C   C42       1.0  0.80990  0.27530  0.11370  1.0000
  C   C43       1.0  0.25770  0.37330  0.92560  1.0000
  C   C44       1.0  0.74230  0.62670  0.07440  1.0000
  C   C45       1.0  0.11510  0.30810  0.88450  1.0000
  C   C46       1.0  0.88490  0.69190  0.11550  1.0000
  C   C47       1.0  0.09260  0.20790  0.87790  1.0000
  C   C48       1.0  0.90740  0.79210  0.12210  1.0000
  C   C49       1.0  0.95970  0.14930  0.83960  1.0000
  C   C50       1.0  0.04030  0.85070  0.16040  1.0000
  C   C51       1.0  0.84470  0.18740  0.80720  1.0000
  C   C52       1.0  0.15530  0.81260  0.19280  1.0000
  H   H7        1.0  0.75300  0.14660  0.78050  1.0000
  H   H8        1.0  0.24700  0.85340  0.21950  1.0000
  C   C53       1.0  0.86610  0.28490  0.81460  1.0000
  C   C54       1.0  0.13390  0.71510  0.18540  1.0000
  C   C55       1.0  0.99830  0.34590  0.85170  1.0000
  C   C56       1.0  0.00170  0.65410  0.14830  1.0000
  C   C57       1.0  0.49410  0.70320  0.36930  1.0000
  C   C58       1.0  0.50590  0.29680  0.63070  1.0000
  C   C59       1.0  0.48590  0.60260  0.35680  1.0000
  C   C60       1.0  0.51410  0.39740  0.64320  1.0000
  C   C61       1.0  0.47020  0.55380  0.27120  1.0000
  C   C62       1.0  0.52980  0.44620  0.72880  1.0000
  C   C63       1.0  0.49440  0.55090  0.42910  1.0000
  C   C64       1.0  0.50560  0.44910  0.57090  1.0000
  C   C65       1.0  0.51860  0.60080  0.51510  1.0000
  C   C66       1.0  0.48140  0.39920  0.48490  1.0000
  H   H9        1.0  0.53140  0.66960  0.52540  1.0000
  H   H10       1.0  0.46860  0.33040  0.47460  1.0000
  C   C67       1.0  0.52400  0.55140  0.58410  1.0000
  C   C68       1.0  0.47600  0.44860  0.41590  1.0000
  H   H11       1.0  0.54040  0.58640  0.64170  1.0000
  H   H12       1.0  0.45960  0.41360  0.35830  1.0000
