data_image0
_chemical_formula_structural       Ru4F32O16N4C68H12
_chemical_formula_sum              "Ru4 F32 O16 N4 C68 H12"
_cell_length_a       10.654
_cell_length_b       14.302
_cell_length_c       16.197
_cell_angle_alpha    81.839
_cell_angle_beta     77.445
_cell_angle_gamma    78.639

_space_group_name_H-M_alt    "P 1"
_space_group_IT_number       1

loop_
  _space_group_symop_operation_xyz
  'x, y, z'

loop_
  _atom_site_type_symbol
  _atom_site_label
  _atom_site_symmetry_multiplicity
  _atom_site_fract_x
  _atom_site_fract_y
  _atom_site_fract_z
  _atom_site_occupancy
  Ru  Ru1       1.0  0.53029  0.06508  0.45573  1.0000
  Ru  Ru2       1.0  0.46971  0.93492  0.54427  1.0000
  Ru  Ru3       1.0  0.51081  0.49541  0.06943  1.0000
  Ru  Ru4       1.0  0.48919  0.50459  0.93057  1.0000
  F   F1        1.0  0.83270  0.80960  0.66130  1.0000
  F   F2        1.0  0.16730  0.19040  0.33870  1.0000
  F   F3        1.0  0.04610  0.80140  0.72140  1.0000
  F   F4        1.0  0.95390  0.19860  0.27860  1.0000
  F   F5        1.0  0.08370  0.11500  0.59510  1.0000
  F   F6        1.0  0.91630  0.88500  0.40490  1.0000
  F   F7        1.0  0.86880  0.12900  0.53810  1.0000
  F   F8        1.0  0.13120  0.87100  0.46190  1.0000
  F   F9        1.0  0.42160  0.78870  0.34040  1.0000
  F   F10       1.0  0.57840  0.21130  0.65960  1.0000
  F   F11       1.0  0.47610  0.67360  0.21840  1.0000
  F   F12       1.0  0.52390  0.32640  0.78160  1.0000
  F   F13       1.0  0.89600  0.75800  0.12760  1.0000
  F   F14       1.0  0.10400  0.24200  0.87240  1.0000
  F   F15       1.0  0.84460  0.87240  0.25210  1.0000
  F   F16       1.0  0.15540  0.12760  0.74790  1.0000
  F   F17       1.0  0.68970  0.18490  0.12780  1.0000
  F   F18       1.0  0.31030  0.81510  0.87220  1.0000
  F   F19       1.0  0.80490  0.00690  0.11200  1.0000
  F   F20       1.0  0.19510  0.99310  0.88800  1.0000
  F   F21       1.0  0.88760  0.07170  0.81550  1.0000
  F   F22       1.0  0.11240  0.92830  0.18450  1.0000
  F   F23       1.0  0.77310  0.25170  0.82890  1.0000
  F   F24       1.0  0.22690  0.74830  0.17110  1.0000
  F   F25       1.0  0.05520  0.54970  0.13060  1.0000
  F   F26       1.0  0.94480  0.45030  0.86940  1.0000
  F   F27       1.0  0.81860  0.49810  0.17780  1.0000
  F   F28       1.0  0.18140  0.50190  0.82220  1.0000
  F   F29       1.0  0.99240  0.19840  0.07230  1.0000
  F   F30       1.0  0.00760  0.80160  0.92770  1.0000
  F   F31       1.0  0.22860  0.24940  0.02550  1.0000
  F   F32       1.0  0.77140  0.75060  0.97450  1.0000
  O   O1        1.0  0.70270  0.04220  0.50050  1.0000
  O   O2        1.0  0.29730  0.95780  0.49950  1.0000
  O   O3        1.0  0.64330  0.91670  0.58930  1.0000
  O   O4        1.0  0.35670  0.08330  0.41070  1.0000
  O   O5        1.0  0.61400  0.98040  0.35710  1.0000
  O   O6        1.0  0.38600  0.01960  0.64290  1.0000
  O   O7        1.0  0.55260  0.85320  0.44410  1.0000
  O   O8        1.0  0.44740  0.14680  0.55590  1.0000
  O   O9        1.0  0.62370  0.35990  0.05700  1.0000
  O   O10       1.0  0.37630  0.64010  0.94300  1.0000
  O   O11       1.0  0.59820  0.36880  0.92210  1.0000
  O   O12       1.0  0.40180  0.63120  0.07790  1.0000
  O   O13       1.0  0.33720  0.44110  0.10680  1.0000
  O   O14       1.0  0.66280  0.55890  0.89320  1.0000
  O   O15       1.0  0.31870  0.44720  0.97000  1.0000
  O   O16       1.0  0.68130  0.55280  0.03000  1.0000
  N   N1        1.0  0.58200  0.20460  0.38070  1.0000
  N   N2        1.0  0.41800  0.79540  0.61930  1.0000
  N   N3        1.0  0.53280  0.46790  0.20800  1.0000
  N   N4        1.0  0.46720  0.53210  0.79200  1.0000
  C   C1        1.0  0.71960  0.97660  0.55930  1.0000
  C   C2        1.0  0.28040  0.02340  0.44070  1.0000
  C   C3        1.0  0.84000  0.97000  0.59610  1.0000
  C   C4        1.0  0.16000  0.03000  0.40390  1.0000
  C   C5        1.0  0.89050  0.88770  0.64460  1.0000
  C   C6        1.0  0.10950  0.11230  0.35540  1.0000
  C   C7        1.0  0.00210  0.88390  0.67620  1.0000
  C   C8        1.0  0.99790  0.11610  0.32380  1.0000
  C   C9        1.0  0.06890  0.95870  0.66130  1.0000
  C   C10       1.0  0.93110  0.04130  0.33870  1.0000
  C   C11       1.0  0.02120  0.03950  0.61440  1.0000
  C   C12       1.0  0.97880  0.96050  0.38560  1.0000
  C   C13       1.0  0.90850  0.04640  0.58210  1.0000
  C   C14       1.0  0.09150  0.95360  0.41790  1.0000
  C   C15       1.0  0.59710  0.89390  0.37350  1.0000
  C   C16       1.0  0.40290  0.10610  0.62650  1.0000
  C   C17       1.0  0.63340  0.83300  0.30070  1.0000
  C   C18       1.0  0.36660  0.16700  0.69930  1.0000
  C   C19       1.0  0.54030  0.78050  0.28990  1.0000
  C   C20       1.0  0.45970  0.21950  0.71010  1.0000
  C   C21       1.0  0.56890  0.72220  0.22510  1.0000
  C   C22       1.0  0.43110  0.27780  0.77490  1.0000
  C   C23       1.0  0.68530  0.71270  0.17050  1.0000
  C   C24       1.0  0.31470  0.28730  0.82950  1.0000
  C   C25       1.0  0.77710  0.76490  0.17990  1.0000
  C   C26       1.0  0.22290  0.23510  0.82010  1.0000
  C   C27       1.0  0.75170  0.82460  0.24400  1.0000
  C   C28       1.0  0.24830  0.17540  0.75600  1.0000
  C   C29       1.0  0.63970  0.32650  0.98680  1.0000
  C   C30       1.0  0.36030  0.67350  0.01320  1.0000
  C   C31       1.0  0.71740  0.22660  0.97870  1.0000
  C   C32       1.0  0.28260  0.77340  0.02130  1.0000
  C   C33       1.0  0.73550  0.15990  0.04860  1.0000
  C   C34       1.0  0.26450  0.84010  0.95140  1.0000
  C   C35       1.0  0.79640  0.06670  0.03950  1.0000
  C   C36       1.0  0.20360  0.93330  0.96050  1.0000
  C   C37       1.0  0.84390  0.03470  0.96350  1.0000
  C   C38       1.0  0.15610  0.96530  0.03650  1.0000
  C   C39       1.0  0.83550  0.09950  0.89440  1.0000
  C   C40       1.0  0.16450  0.90050  0.10560  1.0000
  C   C41       1.0  0.77400  0.19390  0.90060  1.0000
  C   C42       1.0  0.22600  0.80610  0.09940  1.0000
  C   C43       1.0  0.27990  0.43190  0.04830  1.0000
  C   C44       1.0  0.72010  0.56810  0.95170  1.0000
  C   C45       1.0  0.14750  0.40060  0.07680  1.0000
  C   C46       1.0  0.85250  0.59940  0.92320  1.0000
  C   C47       1.0  0.04070  0.46240  0.11570  1.0000
  C   C48       1.0  0.95930  0.53760  0.88430  1.0000
  C   C49       1.0  0.91960  0.43590  0.13930  1.0000
  C   C50       1.0  0.08040  0.56410  0.86070  1.0000
  C   C51       1.0  0.89960  0.34820  0.12440  1.0000
  C   C52       1.0  0.10040  0.65180  0.87560  1.0000
  C   C53       1.0  0.00690  0.28700  0.08600  1.0000
  C   C54       1.0  0.99310  0.71300  0.91400  1.0000
  C   C55       1.0  0.12780  0.31210  0.06280  1.0000
  C   C56       1.0  0.87220  0.68790  0.93720  1.0000
  C   C57       1.0  0.56360  0.28790  0.37120  1.0000
  C   C58       1.0  0.43640  0.71210  0.62880  1.0000
  C   C59       1.0  0.54030  0.38890  0.36000  1.0000
  C   C60       1.0  0.45970  0.61110  0.64000  1.0000
  C   C61       1.0  0.53550  0.43290  0.27600  1.0000
  C   C62       1.0  0.46450  0.56710  0.72400  1.0000
  C   C63       1.0  0.51890  0.44460  0.43050  1.0000
  C   C64       1.0  0.48110  0.55540  0.56950  1.0000
  C   C65       1.0  0.52990  0.40030  0.51360  1.0000
  C   C66       1.0  0.47010  0.59970  0.48640  1.0000
  C   C67       1.0  0.51160  0.45320  0.58070  1.0000
  C   C68       1.0  0.48840  0.54680  0.41930  1.0000
  H   H1        1.0  0.14609  0.95455  0.68283  1.0000
  H   H2        1.0  0.85391  0.04545  0.31717  1.0000
  H   H3        1.0  0.70373  0.67124  0.12684  1.0000
  H   H4        1.0  0.29627  0.32876  0.87316  1.0000
  H   H5        1.0  0.88189  0.96943  0.95801  1.0000
  H   H6        1.0  0.11811  0.03057  0.04199  1.0000
  H   H7        1.0  0.81561  0.33045  0.13980  1.0000
  H   H8        1.0  0.18439  0.66955  0.86020  1.0000
  H   H9        1.0  0.55031  0.33244  0.52277  1.0000
  H   H10       1.0  0.44969  0.66756  0.47723  1.0000
  H   H11       1.0  0.51937  0.42148  0.63548  1.0000
  H   H12       1.0  0.48063  0.57852  0.36452  1.0000
