data_image0
_chemical_formula_structural       Cu2S2O6C2H2O4C2O2C4H2O2C2H2N2C4H2C2H2C8H2C2H2C2H2O4H8
_chemical_formula_sum              "Cu2 S2 O18 C28 H24 N2"
_cell_length_a       9.272
_cell_length_b       10.787
_cell_length_c       13.409
_cell_angle_alpha    106.404
_cell_angle_beta     99.515
_cell_angle_gamma    100.001

_space_group_name_H-M_alt    "P 1"
_space_group_IT_number       1

loop_
  _space_group_symop_operation_xyz
  'x, y, z'

loop_
  _atom_site_type_symbol
  _atom_site_label
  _atom_site_symmetry_multiplicity
  _atom_site_fract_x
  _atom_site_fract_y
  _atom_site_fract_z
  _atom_site_occupancy
  Cu  Cu1       1.0  0.41828  0.11567  0.66185  1.0000
  Cu  Cu2       1.0  0.58172  0.88433  0.33815  1.0000
  S   S1        1.0  0.28718  0.39619  0.73832  1.0000
  S   S2        1.0  0.71282  0.60381  0.26168  1.0000
  O   O1        1.0  0.72070  0.12130  0.64363  1.0000
  O   O2        1.0  0.27930  0.87870  0.35637  1.0000
  O   O3        1.0  0.26480  0.25420  0.71200  1.0000
  O   O4        1.0  0.73520  0.74580  0.28800  1.0000
  O   O5        1.0  0.34010  0.44940  0.66050  1.0000
  O   O6        1.0  0.65990  0.55060  0.33950  1.0000
  C   C1        1.0  0.09200  0.55900  0.76620  1.0000
  C   C2        1.0  0.90800  0.44100  0.23380  1.0000
  H   H1        1.0  0.17713  0.62850  0.78834  1.0000
  H   H2        1.0  0.82287  0.37150  0.21166  1.0000
  O   O7        1.0  0.58230  0.26727  0.69207  1.0000
  O   O8        1.0  0.41770  0.73273  0.30793  1.0000
  O   O9        1.0  0.05170  0.81708  0.83010  1.0000
  O   O10       1.0  0.94830  0.18292  0.16990  1.0000
  C   C3        1.0  0.70460  0.23630  0.67690  1.0000
  C   C4        1.0  0.29540  0.76370  0.32310  1.0000
  O   O11       1.0  0.37810  0.46690  0.84470  1.0000
  O   O12       1.0  0.62190  0.53310  0.15530  1.0000
  C   C5        1.0  0.08320  0.68910  0.55090  1.0000
  C   C6        1.0  0.91680  0.31090  0.44910  1.0000
  C   C7        1.0  0.97950  0.55720  0.50860  1.0000
  C   C8        1.0  0.02050  0.44280  0.49140  1.0000
  H   H3        1.0  0.87712  0.55380  0.49258  1.0000
  H   H4        1.0  0.12288  0.44620  0.50742  1.0000
  O   O13       1.0  0.80770  0.74900  0.75720  1.0000
  O   O14       1.0  0.19230  0.25100  0.24280  1.0000
  C   C9        1.0  0.12540  0.92590  0.59440  1.0000
  C   C10       1.0  0.87460  0.07410  0.40560  1.0000
  H   H5        1.0  0.08654  0.00055  0.59830  1.0000
  H   H6        1.0  0.91346  0.99945  0.40170  1.0000
  N   N1        1.0  0.27360  0.94230  0.62420  1.0000
  N   N2        1.0  0.72640  0.05770  0.37580  1.0000
  C   C11       1.0  0.83850  0.35040  0.70590  1.0000
  C   C12       1.0  0.16150  0.64960  0.29410  1.0000
  C   C13       1.0  0.02720  0.80250  0.55780  1.0000
  C   C14       1.0  0.97280  0.19750  0.44220  1.0000
  H   H7        1.0  0.92435  0.79503  0.53791  1.0000
  H   H8        1.0  0.07565  0.20497  0.46209  1.0000
  C   C15       1.0  0.98090  0.32470  0.70950  1.0000
  C   C16       1.0  0.01910  0.67530  0.29050  1.0000
  H   H9        1.0  0.99179  0.23760  0.69181  1.0000
  H   H10       1.0  0.00821  0.76240  0.30819  1.0000
  C   C17       1.0  0.93110  0.72760  0.78260  1.0000
  C   C18       1.0  0.06890  0.27240  0.21740  1.0000
  C   C19       1.0  0.94950  0.58550  0.75970  1.0000
  C   C20       1.0  0.05050  0.41450  0.24030  1.0000
  C   C21       1.0  0.10600  0.42870  0.73940  1.0000
  C   C22       1.0  0.89400  0.57130  0.26060  1.0000
  C   C23       1.0  0.23790  0.70770  0.58350  1.0000
  C   C24       1.0  0.76210  0.29230  0.41650  1.0000
  H   H11       1.0  0.28031  0.63520  0.58126  1.0000
  H   H12       1.0  0.71969  0.36480  0.41874  1.0000
  C   C25       1.0  0.82340  0.48120  0.72970  1.0000
  C   C26       1.0  0.17660  0.51880  0.27030  1.0000
  H   H13       1.0  0.72821  0.49874  0.72547  1.0000
  H   H14       1.0  0.27179  0.50126  0.27453  1.0000
  C   C27       1.0  0.32740  0.83410  0.61910  1.0000
  C   C28       1.0  0.67260  0.16590  0.38090  1.0000
  H   H15       1.0  0.43064  0.84491  0.64084  1.0000
  H   H16       1.0  0.56936  0.15509  0.35916  1.0000
  O   O15       1.0  0.49190  0.10330  0.80510  1.0000
  O   O16       1.0  0.50810  0.89670  0.19490  1.0000
  O   O17       1.0  0.36250  0.10820  0.51168  1.0000
  O   O18       1.0  0.63750  0.89180  0.48832  1.0000
  H   H17       1.0  0.37747  0.18701  0.50747  1.0000
  H   H18       1.0  0.62253  0.81299  0.49253  1.0000
  H   H19       1.0  0.26923  0.06978  0.48591  1.0000
  H   H20       1.0  0.73077  0.93022  0.51409  1.0000
  H   H21       1.0  0.46000  0.04900  0.82800  1.0000
  H   H22       1.0  0.54000  0.95100  0.17200  1.0000
  H   H23       1.0  0.51700  0.16400  0.84000  1.0000
  H   H24       1.0  0.48300  0.83600  0.16000  1.0000
