data_image0
_chemical_formula_structural       Cd16C96H32C32H32O64Cl16
_chemical_formula_sum              "Cd16 C128 H64 O64 Cl16"
_cell_length_a       15.0412
_cell_length_b       15.8919
_cell_length_c       28.221
_cell_angle_alpha    90
_cell_angle_beta     90
_cell_angle_gamma    90

_space_group_name_H-M_alt    "P 1"
_space_group_IT_number       1

loop_
  _space_group_symop_operation_xyz
  'x, y, z'

loop_
  _atom_site_type_symbol
  _atom_site_label
  _atom_site_symmetry_multiplicity
  _atom_site_fract_x
  _atom_site_fract_y
  _atom_site_fract_z
  _atom_site_occupancy
  Cd  Cd1       1.0  0.00310  0.12500  0.12500  1.0000
  Cd  Cd2       1.0  0.74690  0.62500  0.12500  1.0000
  Cd  Cd3       1.0  0.74690  0.12500  0.62500  1.0000
  Cd  Cd4       1.0  0.00310  0.62500  0.62500  1.0000
  Cd  Cd5       1.0  0.50310  0.12500  0.62500  1.0000
  Cd  Cd6       1.0  0.24690  0.62500  0.62500  1.0000
  Cd  Cd7       1.0  0.24690  0.12500  0.12500  1.0000
  Cd  Cd8       1.0  0.50310  0.62500  0.12500  1.0000
  Cd  Cd9       1.0  0.99690  0.87500  0.87500  1.0000
  Cd  Cd10      1.0  0.25310  0.37500  0.87500  1.0000
  Cd  Cd11      1.0  0.25310  0.87500  0.37500  1.0000
  Cd  Cd12      1.0  0.99690  0.37500  0.37500  1.0000
  Cd  Cd13      1.0  0.49690  0.87500  0.37500  1.0000
  Cd  Cd14      1.0  0.75310  0.37500  0.37500  1.0000
  Cd  Cd15      1.0  0.75310  0.87500  0.87500  1.0000
  Cd  Cd16      1.0  0.49690  0.37500  0.87500  1.0000
  C   C1        1.0  0.81800  0.22320  0.03052  1.0000
  C   C2        1.0  0.93200  0.52680  0.03052  1.0000
  C   C3        1.0  0.93200  0.22320  0.71948  1.0000
  C   C4        1.0  0.81800  0.52680  0.71948  1.0000
  C   C5        1.0  0.81800  0.72320  0.53052  1.0000
  C   C6        1.0  0.93200  0.02680  0.53052  1.0000
  C   C7        1.0  0.93200  0.72320  0.21948  1.0000
  C   C8        1.0  0.81800  0.02680  0.21948  1.0000
  C   C9        1.0  0.31800  0.22320  0.53052  1.0000
  C   C10       1.0  0.43200  0.52680  0.53052  1.0000
  C   C11       1.0  0.43200  0.22320  0.21948  1.0000
  C   C12       1.0  0.31800  0.52680  0.21948  1.0000
  C   C13       1.0  0.31800  0.72320  0.03052  1.0000
  C   C14       1.0  0.43200  0.02680  0.03052  1.0000
  C   C15       1.0  0.43200  0.72320  0.71948  1.0000
  C   C16       1.0  0.31800  0.02680  0.71948  1.0000
  C   C17       1.0  0.18200  0.77680  0.96948  1.0000
  C   C18       1.0  0.06800  0.47320  0.96948  1.0000
  C   C19       1.0  0.06800  0.77680  0.28052  1.0000
  C   C20       1.0  0.18200  0.47320  0.28052  1.0000
  C   C21       1.0  0.18200  0.27680  0.46948  1.0000
  C   C22       1.0  0.06800  0.97320  0.46948  1.0000
  C   C23       1.0  0.06800  0.27680  0.78052  1.0000
  C   C24       1.0  0.18200  0.97320  0.78052  1.0000
  C   C25       1.0  0.68200  0.77680  0.46948  1.0000
  C   C26       1.0  0.56800  0.47320  0.46948  1.0000
  C   C27       1.0  0.56800  0.77680  0.78052  1.0000
  C   C28       1.0  0.68200  0.47320  0.78052  1.0000
  C   C29       1.0  0.68200  0.27680  0.96948  1.0000
  C   C30       1.0  0.56800  0.97320  0.96948  1.0000
  C   C31       1.0  0.56800  0.27680  0.28052  1.0000
  C   C32       1.0  0.68200  0.97320  0.28052  1.0000
  C   C33       1.0  0.88840  0.19360  0.06385  1.0000
  C   C34       1.0  0.86160  0.55640  0.06385  1.0000
  C   C35       1.0  0.86160  0.19360  0.68615  1.0000
  C   C36       1.0  0.88840  0.55640  0.68615  1.0000
  C   C37       1.0  0.88840  0.69360  0.56385  1.0000
  C   C38       1.0  0.86160  0.05640  0.56385  1.0000
  C   C39       1.0  0.86160  0.69360  0.18615  1.0000
  C   C40       1.0  0.88840  0.05640  0.18615  1.0000
  C   C41       1.0  0.38840  0.19360  0.56385  1.0000
  C   C42       1.0  0.36160  0.55640  0.56385  1.0000
  C   C43       1.0  0.36160  0.19360  0.18615  1.0000
  C   C44       1.0  0.38840  0.55640  0.18615  1.0000
  C   C45       1.0  0.38840  0.69360  0.06385  1.0000
  C   C46       1.0  0.36160  0.05640  0.06385  1.0000
  C   C47       1.0  0.36160  0.69360  0.68615  1.0000
  C   C48       1.0  0.38840  0.05640  0.68615  1.0000
  C   C49       1.0  0.11160  0.80640  0.93615  1.0000
  C   C50       1.0  0.13840  0.44360  0.93615  1.0000
  C   C51       1.0  0.13840  0.80640  0.31385  1.0000
  C   C52       1.0  0.11160  0.44360  0.31385  1.0000
  C   C53       1.0  0.11160  0.30640  0.43615  1.0000
  C   C54       1.0  0.13840  0.94360  0.43615  1.0000
  C   C55       1.0  0.13840  0.30640  0.81385  1.0000
  C   C56       1.0  0.11160  0.94360  0.81385  1.0000
  C   C57       1.0  0.61160  0.80640  0.43615  1.0000
  C   C58       1.0  0.63840  0.44360  0.43615  1.0000
  C   C59       1.0  0.63840  0.80640  0.81385  1.0000
  C   C60       1.0  0.61160  0.44360  0.81385  1.0000
  C   C61       1.0  0.61160  0.30640  0.93615  1.0000
  C   C62       1.0  0.63840  0.94360  0.93615  1.0000
  C   C63       1.0  0.63840  0.30640  0.31385  1.0000
  C   C64       1.0  0.61160  0.94360  0.31385  1.0000
  C   C65       1.0  0.76950  0.29570  0.04093  1.0000
  C   C66       1.0  0.98050  0.45430  0.04093  1.0000
  C   C67       1.0  0.98050  0.29570  0.70907  1.0000
  C   C68       1.0  0.76950  0.45430  0.70907  1.0000
  C   C69       1.0  0.76950  0.79570  0.54093  1.0000
  C   C70       1.0  0.98050  0.95430  0.54093  1.0000
  C   C71       1.0  0.98050  0.79570  0.20907  1.0000
  C   C72       1.0  0.76950  0.95430  0.20907  1.0000
  C   C73       1.0  0.26950  0.29570  0.54093  1.0000
  C   C74       1.0  0.48050  0.45430  0.54093  1.0000
  C   C75       1.0  0.48050  0.29570  0.20907  1.0000
  C   C76       1.0  0.26950  0.45430  0.20907  1.0000
  C   C77       1.0  0.26950  0.79570  0.04093  1.0000
  C   C78       1.0  0.48050  0.95430  0.04093  1.0000
  C   C79       1.0  0.48050  0.79570  0.70907  1.0000
  C   C80       1.0  0.26950  0.95430  0.70907  1.0000
  C   C81       1.0  0.23050  0.70430  0.95907  1.0000
  C   C82       1.0  0.01950  0.54570  0.95907  1.0000
  C   C83       1.0  0.01950  0.70430  0.29093  1.0000
  C   C84       1.0  0.23050  0.54570  0.29093  1.0000
  C   C85       1.0  0.23050  0.20430  0.45907  1.0000
  C   C86       1.0  0.01950  0.04570  0.45907  1.0000
  C   C87       1.0  0.01950  0.20430  0.79093  1.0000
  C   C88       1.0  0.23050  0.04570  0.79093  1.0000
  C   C89       1.0  0.73050  0.70430  0.45907  1.0000
  C   C90       1.0  0.51950  0.54570  0.45907  1.0000
  C   C91       1.0  0.51950  0.70430  0.79093  1.0000
  C   C92       1.0  0.73050  0.54570  0.79093  1.0000
  C   C93       1.0  0.73050  0.20430  0.95907  1.0000
  C   C94       1.0  0.51950  0.04570  0.95907  1.0000
  C   C95       1.0  0.51950  0.20430  0.29093  1.0000
  C   C96       1.0  0.73050  0.04570  0.29093  1.0000
  H   H1        1.0  0.78250  0.32660  0.06810  1.0000
  H   H2        1.0  0.96750  0.42340  0.06810  1.0000
  H   H3        1.0  0.96750  0.32660  0.68190  1.0000
  H   H4        1.0  0.78250  0.42340  0.68190  1.0000
  H   H5        1.0  0.78250  0.82660  0.56810  1.0000
  H   H6        1.0  0.96750  0.92340  0.56810  1.0000
  H   H7        1.0  0.96750  0.82660  0.18190  1.0000
  H   H8        1.0  0.78250  0.92340  0.18190  1.0000
  H   H9        1.0  0.28250  0.32660  0.56810  1.0000
  H   H10       1.0  0.46750  0.42340  0.56810  1.0000
  H   H11       1.0  0.46750  0.32660  0.18190  1.0000
  H   H12       1.0  0.28250  0.42340  0.18190  1.0000
  H   H13       1.0  0.28250  0.82660  0.06810  1.0000
  H   H14       1.0  0.46750  0.92340  0.06810  1.0000
  H   H15       1.0  0.46750  0.82660  0.68190  1.0000
  H   H16       1.0  0.28250  0.92340  0.68190  1.0000
  H   H17       1.0  0.21750  0.67340  0.93190  1.0000
  H   H18       1.0  0.03250  0.57660  0.93190  1.0000
  H   H19       1.0  0.03250  0.67340  0.31810  1.0000
  H   H20       1.0  0.21750  0.57660  0.31810  1.0000
  H   H21       1.0  0.21750  0.17340  0.43190  1.0000
  H   H22       1.0  0.03250  0.07660  0.43190  1.0000
  H   H23       1.0  0.03250  0.17340  0.81810  1.0000
  H   H24       1.0  0.21750  0.07660  0.81810  1.0000
  H   H25       1.0  0.71750  0.67340  0.43190  1.0000
  H   H26       1.0  0.53250  0.57660  0.43190  1.0000
  H   H27       1.0  0.53250  0.67340  0.81810  1.0000
  H   H28       1.0  0.71750  0.57660  0.81810  1.0000
  H   H29       1.0  0.71750  0.17340  0.93190  1.0000
  H   H30       1.0  0.53250  0.07660  0.93190  1.0000
  H   H31       1.0  0.53250  0.17340  0.31810  1.0000
  H   H32       1.0  0.71750  0.07660  0.31810  1.0000
  C   C97       1.0  0.79840  0.17800  0.98936  1.0000
  C   C98       1.0  0.95160  0.57200  0.98936  1.0000
  C   C99       1.0  0.95160  0.17800  0.76064  1.0000
  C   C100      1.0  0.79840  0.57200  0.76064  1.0000
  C   C101      1.0  0.79840  0.67800  0.48936  1.0000
  C   C102      1.0  0.95160  0.07200  0.48936  1.0000
  C   C103      1.0  0.95160  0.67800  0.26064  1.0000
  C   C104      1.0  0.79840  0.07200  0.26064  1.0000
  C   C105      1.0  0.29840  0.17800  0.48936  1.0000
  C   C106      1.0  0.45160  0.57200  0.48936  1.0000
  C   C107      1.0  0.45160  0.17800  0.26064  1.0000
  C   C108      1.0  0.29840  0.57200  0.26064  1.0000
  C   C109      1.0  0.29840  0.67800  0.98936  1.0000
  C   C110      1.0  0.45160  0.07200  0.98936  1.0000
  C   C111      1.0  0.45160  0.67800  0.76064  1.0000
  C   C112      1.0  0.29840  0.07200  0.76064  1.0000
  C   C113      1.0  0.20160  0.82200  0.01064  1.0000
  C   C114      1.0  0.04840  0.42800  0.01064  1.0000
  C   C115      1.0  0.04840  0.82200  0.23936  1.0000
  C   C116      1.0  0.20160  0.42800  0.23936  1.0000
  C   C117      1.0  0.20160  0.32200  0.51064  1.0000
  C   C118      1.0  0.04840  0.92800  0.51064  1.0000
  C   C119      1.0  0.04840  0.32200  0.73936  1.0000
  C   C120      1.0  0.20160  0.92800  0.73936  1.0000
  C   C121      1.0  0.70160  0.82200  0.51064  1.0000
  C   C122      1.0  0.54840  0.42800  0.51064  1.0000
  C   C123      1.0  0.54840  0.82200  0.73936  1.0000
  C   C124      1.0  0.70160  0.42800  0.73936  1.0000
  C   C125      1.0  0.70160  0.32200  0.01064  1.0000
  C   C126      1.0  0.54840  0.92800  0.01064  1.0000
  C   C127      1.0  0.54840  0.32200  0.23936  1.0000
  C   C128      1.0  0.70160  0.92800  0.23936  1.0000
  H   H33       1.0  0.83090  0.12990  0.98210  1.0000
  H   H34       1.0  0.91910  0.62010  0.98210  1.0000
  H   H35       1.0  0.91910  0.12990  0.76790  1.0000
  H   H36       1.0  0.83090  0.62010  0.76790  1.0000
  H   H37       1.0  0.83090  0.62990  0.48210  1.0000
  H   H38       1.0  0.91910  0.12010  0.48210  1.0000
  H   H39       1.0  0.91910  0.62990  0.26790  1.0000
  H   H40       1.0  0.83090  0.12010  0.26790  1.0000
  H   H41       1.0  0.33090  0.12990  0.48210  1.0000
  H   H42       1.0  0.41910  0.62010  0.48210  1.0000
  H   H43       1.0  0.41910  0.12990  0.26790  1.0000
  H   H44       1.0  0.33090  0.62010  0.26790  1.0000
  H   H45       1.0  0.33090  0.62990  0.98210  1.0000
  H   H46       1.0  0.41910  0.12010  0.98210  1.0000
  H   H47       1.0  0.41910  0.62990  0.76790  1.0000
  H   H48       1.0  0.33090  0.12010  0.76790  1.0000
  H   H49       1.0  0.16910  0.87010  0.01790  1.0000
  H   H50       1.0  0.08090  0.37990  0.01790  1.0000
  H   H51       1.0  0.08090  0.87010  0.23210  1.0000
  H   H52       1.0  0.16910  0.37990  0.23210  1.0000
  H   H53       1.0  0.16910  0.37010  0.51790  1.0000
  H   H54       1.0  0.08090  0.87990  0.51790  1.0000
  H   H55       1.0  0.08090  0.37010  0.73210  1.0000
  H   H56       1.0  0.16910  0.87990  0.73210  1.0000
  H   H57       1.0  0.66910  0.87010  0.51790  1.0000
  H   H58       1.0  0.58090  0.37990  0.51790  1.0000
  H   H59       1.0  0.58090  0.87010  0.73210  1.0000
  H   H60       1.0  0.66910  0.37990  0.73210  1.0000
  H   H61       1.0  0.66910  0.37010  0.01790  1.0000
  H   H62       1.0  0.58090  0.87990  0.01790  1.0000
  H   H63       1.0  0.58090  0.37010  0.23210  1.0000
  H   H64       1.0  0.66910  0.87990  0.23210  1.0000
  O   O1        1.0  0.94220  0.13660  0.05000  1.0000
  O   O2        1.0  0.80780  0.61340  0.05000  1.0000
  O   O3        1.0  0.80780  0.13660  0.70000  1.0000
  O   O4        1.0  0.94220  0.61340  0.70000  1.0000
  O   O5        1.0  0.94220  0.63660  0.55000  1.0000
  O   O6        1.0  0.80780  0.11340  0.55000  1.0000
  O   O7        1.0  0.80780  0.63660  0.20000  1.0000
  O   O8        1.0  0.94220  0.11340  0.20000  1.0000
  O   O9        1.0  0.44220  0.13660  0.55000  1.0000
  O   O10       1.0  0.30780  0.61340  0.55000  1.0000
  O   O11       1.0  0.30780  0.13660  0.20000  1.0000
  O   O12       1.0  0.44220  0.61340  0.20000  1.0000
  O   O13       1.0  0.44220  0.63660  0.05000  1.0000
  O   O14       1.0  0.30780  0.11340  0.05000  1.0000
  O   O15       1.0  0.30780  0.63660  0.70000  1.0000
  O   O16       1.0  0.44220  0.11340  0.70000  1.0000
  O   O17       1.0  0.05780  0.86340  0.95000  1.0000
  O   O18       1.0  0.19220  0.38660  0.95000  1.0000
  O   O19       1.0  0.19220  0.86340  0.30000  1.0000
  O   O20       1.0  0.05780  0.38660  0.30000  1.0000
  O   O21       1.0  0.05780  0.36340  0.45000  1.0000
  O   O22       1.0  0.19220  0.88660  0.45000  1.0000
  O   O23       1.0  0.19220  0.36340  0.80000  1.0000
  O   O24       1.0  0.05780  0.88660  0.80000  1.0000
  O   O25       1.0  0.55780  0.86340  0.45000  1.0000
  O   O26       1.0  0.69220  0.38660  0.45000  1.0000
  O   O27       1.0  0.69220  0.86340  0.80000  1.0000
  O   O28       1.0  0.55780  0.38660  0.80000  1.0000
  O   O29       1.0  0.55780  0.36340  0.95000  1.0000
  O   O30       1.0  0.69220  0.88660  0.95000  1.0000
  O   O31       1.0  0.69220  0.36340  0.30000  1.0000
  O   O32       1.0  0.55780  0.88660  0.30000  1.0000
  O   O33       1.0  0.89150  0.22430  0.10476  1.0000
  O   O34       1.0  0.85850  0.52570  0.10476  1.0000
  O   O35       1.0  0.85850  0.22430  0.64524  1.0000
  O   O36       1.0  0.89150  0.52570  0.64524  1.0000
  O   O37       1.0  0.89150  0.72430  0.60476  1.0000
  O   O38       1.0  0.85850  0.02570  0.60476  1.0000
  O   O39       1.0  0.85850  0.72430  0.14524  1.0000
  O   O40       1.0  0.89150  0.02570  0.14524  1.0000
  O   O41       1.0  0.39150  0.22430  0.60476  1.0000
  O   O42       1.0  0.35850  0.52570  0.60476  1.0000
  O   O43       1.0  0.35850  0.22430  0.14524  1.0000
  O   O44       1.0  0.39150  0.52570  0.14524  1.0000
  O   O45       1.0  0.39150  0.72430  0.10476  1.0000
  O   O46       1.0  0.35850  0.02570  0.10476  1.0000
  O   O47       1.0  0.35850  0.72430  0.64524  1.0000
  O   O48       1.0  0.39150  0.02570  0.64524  1.0000
  O   O49       1.0  0.10850  0.77570  0.89524  1.0000
  O   O50       1.0  0.14150  0.47430  0.89524  1.0000
  O   O51       1.0  0.14150  0.77570  0.35476  1.0000
  O   O52       1.0  0.10850  0.47430  0.35476  1.0000
  O   O53       1.0  0.10850  0.27570  0.39524  1.0000
  O   O54       1.0  0.14150  0.97430  0.39524  1.0000
  O   O55       1.0  0.14150  0.27570  0.85476  1.0000
  O   O56       1.0  0.10850  0.97430  0.85476  1.0000
  O   O57       1.0  0.60850  0.77570  0.39524  1.0000
  O   O58       1.0  0.64150  0.47430  0.39524  1.0000
  O   O59       1.0  0.64150  0.77570  0.85476  1.0000
  O   O60       1.0  0.60850  0.47430  0.85476  1.0000
  O   O61       1.0  0.60850  0.27570  0.89524  1.0000
  O   O62       1.0  0.64150  0.97430  0.89524  1.0000
  O   O63       1.0  0.64150  0.27570  0.35476  1.0000
  O   O64       1.0  0.60850  0.97430  0.35476  1.0000
  Cl  Cl1       1.0  0.12500  0.01262  0.12500  1.0000
  Cl  Cl2       1.0  0.62500  0.73738  0.12500  1.0000
  Cl  Cl3       1.0  0.62500  0.01262  0.62500  1.0000
  Cl  Cl4       1.0  0.12500  0.73738  0.62500  1.0000
  Cl  Cl5       1.0  0.12500  0.51262  0.62500  1.0000
  Cl  Cl6       1.0  0.62500  0.23738  0.62500  1.0000
  Cl  Cl7       1.0  0.62500  0.51262  0.12500  1.0000
  Cl  Cl8       1.0  0.12500  0.23738  0.12500  1.0000
  Cl  Cl9       1.0  0.87500  0.98738  0.87500  1.0000
  Cl  Cl10      1.0  0.37500  0.26262  0.87500  1.0000
  Cl  Cl11      1.0  0.37500  0.98738  0.37500  1.0000
  Cl  Cl12      1.0  0.87500  0.26262  0.37500  1.0000
  Cl  Cl13      1.0  0.87500  0.48738  0.37500  1.0000
  Cl  Cl14      1.0  0.37500  0.76262  0.37500  1.0000
  Cl  Cl15      1.0  0.37500  0.48738  0.87500  1.0000
  Cl  Cl16      1.0  0.87500  0.76262  0.87500  1.0000
