data_image0
_chemical_formula_structural       Cd21P18O90N36C18H36C36H36C18H36C36H18C18H18C18H18C18H18
_chemical_formula_sum              "Cd21 P18 O90 N36 C162 H180"
_cell_length_a       22.891
_cell_length_b       22.891
_cell_length_c       13.1165
_cell_angle_alpha    90
_cell_angle_beta     90
_cell_angle_gamma    120

_space_group_name_H-M_alt    "P 1"
_space_group_IT_number       1

loop_
  _space_group_symop_operation_xyz
  'x, y, z'

loop_
  _atom_site_type_symbol
  _atom_site_label
  _atom_site_symmetry_multiplicity
  _atom_site_fract_x
  _atom_site_fract_y
  _atom_site_fract_z
  _atom_site_occupancy
  Cd  Cd1       1.0  0.05464  0.87801  0.13530  1.0000
  Cd  Cd2       1.0  0.12199  0.17663  0.13530  1.0000
  Cd  Cd3       1.0  0.82337  0.94536  0.13530  1.0000
  Cd  Cd4       1.0  0.72131  0.21135  0.46863  1.0000
  Cd  Cd5       1.0  0.78865  0.50996  0.46863  1.0000
  Cd  Cd6       1.0  0.49004  0.27869  0.46863  1.0000
  Cd  Cd7       1.0  0.38798  0.54468  0.80197  1.0000
  Cd  Cd8       1.0  0.45532  0.84330  0.80197  1.0000
  Cd  Cd9       1.0  0.15670  0.61202  0.80197  1.0000
  Cd  Cd10      1.0  0.94536  0.12199  0.86470  1.0000
  Cd  Cd11      1.0  0.87801  0.82337  0.86470  1.0000
  Cd  Cd12      1.0  0.17663  0.05464  0.86470  1.0000
  Cd  Cd13      1.0  0.27869  0.78865  0.53137  1.0000
  Cd  Cd14      1.0  0.21135  0.49004  0.53137  1.0000
  Cd  Cd15      1.0  0.50996  0.72131  0.53137  1.0000
  Cd  Cd16      1.0  0.61202  0.45532  0.19803  1.0000
  Cd  Cd17      1.0  0.54468  0.15670  0.19803  1.0000
  Cd  Cd18      1.0  0.84330  0.38798  0.19803  1.0000
  Cd  Cd19      1.0  0.00000  0.00000  0.00000  1.0000
  Cd  Cd20      1.0  0.66667  0.33333  0.33333  1.0000
  Cd  Cd21      1.0  0.33333  0.66667  0.66667  1.0000
  P   P1        1.0  0.15010  0.04401  0.11891  1.0000
  P   P2        1.0  0.95599  0.10609  0.11891  1.0000
  P   P3        1.0  0.89391  0.84990  0.11891  1.0000
  P   P4        1.0  0.81677  0.37734  0.45224  1.0000
  P   P5        1.0  0.62266  0.43942  0.45224  1.0000
  P   P6        1.0  0.56058  0.18323  0.45224  1.0000
  P   P7        1.0  0.48343  0.71068  0.78558  1.0000
  P   P8        1.0  0.28932  0.77276  0.78558  1.0000
  P   P9        1.0  0.22724  0.51657  0.78558  1.0000
  P   P10       1.0  0.84990  0.95599  0.88109  1.0000
  P   P11       1.0  0.04401  0.89391  0.88109  1.0000
  P   P12       1.0  0.10609  0.15010  0.88109  1.0000
  P   P13       1.0  0.18323  0.62266  0.54776  1.0000
  P   P14       1.0  0.37734  0.56058  0.54776  1.0000
  P   P15       1.0  0.43942  0.81677  0.54776  1.0000
  P   P16       1.0  0.51657  0.28932  0.21442  1.0000
  P   P17       1.0  0.71068  0.22724  0.21442  1.0000
  P   P18       1.0  0.77276  0.48343  0.21442  1.0000
  O   O1        1.0  0.07808  0.98814  0.09540  1.0000
  O   O2        1.0  0.01186  0.08994  0.09540  1.0000
  O   O3        1.0  0.91006  0.92192  0.09540  1.0000
  O   O4        1.0  0.74475  0.32147  0.42873  1.0000
  O   O5        1.0  0.67853  0.42327  0.42873  1.0000
  O   O6        1.0  0.57673  0.25525  0.42873  1.0000
  O   O7        1.0  0.41141  0.65481  0.76207  1.0000
  O   O8        1.0  0.34519  0.75661  0.76207  1.0000
  O   O9        1.0  0.24339  0.58859  0.76207  1.0000
  O   O10       1.0  0.92192  0.01186  0.90460  1.0000
  O   O11       1.0  0.98814  0.91006  0.90460  1.0000
  O   O12       1.0  0.08994  0.07808  0.90460  1.0000
  O   O13       1.0  0.25525  0.67853  0.57127  1.0000
  O   O14       1.0  0.32147  0.57673  0.57127  1.0000
  O   O15       1.0  0.42327  0.74475  0.57127  1.0000
  O   O16       1.0  0.58859  0.34519  0.23793  1.0000
  O   O17       1.0  0.65481  0.24339  0.23793  1.0000
  O   O18       1.0  0.75661  0.41141  0.23793  1.0000
  O   O19       1.0  0.14950  0.10110  0.17650  1.0000
  O   O20       1.0  0.89890  0.04840  0.17650  1.0000
  O   O21       1.0  0.95160  0.85050  0.17650  1.0000
  O   O22       1.0  0.81617  0.43443  0.50983  1.0000
  O   O23       1.0  0.56557  0.38173  0.50983  1.0000
  O   O24       1.0  0.61827  0.18383  0.50983  1.0000
  O   O25       1.0  0.48283  0.76777  0.84317  1.0000
  O   O26       1.0  0.23223  0.71507  0.84317  1.0000
  O   O27       1.0  0.28493  0.51717  0.84317  1.0000
  O   O28       1.0  0.85050  0.89890  0.82350  1.0000
  O   O29       1.0  0.10110  0.95160  0.82350  1.0000
  O   O30       1.0  0.04840  0.14950  0.82350  1.0000
  O   O31       1.0  0.18383  0.56557  0.49017  1.0000
  O   O32       1.0  0.43443  0.61827  0.49017  1.0000
  O   O33       1.0  0.38173  0.81617  0.49017  1.0000
  O   O34       1.0  0.51717  0.23223  0.15683  1.0000
  O   O35       1.0  0.76777  0.28493  0.15683  1.0000
  O   O36       1.0  0.71507  0.48283  0.15683  1.0000
  O   O37       1.0  0.19710  0.06600  0.02910  1.0000
  O   O38       1.0  0.93400  0.13110  0.02910  1.0000
  O   O39       1.0  0.86890  0.80290  0.02910  1.0000
  O   O40       1.0  0.86377  0.39933  0.36243  1.0000
  O   O41       1.0  0.60067  0.46443  0.36243  1.0000
  O   O42       1.0  0.53557  0.13623  0.36243  1.0000
  O   O43       1.0  0.53043  0.73267  0.69577  1.0000
  O   O44       1.0  0.26733  0.79777  0.69577  1.0000
  O   O45       1.0  0.20223  0.46957  0.69577  1.0000
  O   O46       1.0  0.80290  0.93400  0.97090  1.0000
  O   O47       1.0  0.06600  0.86890  0.97090  1.0000
  O   O48       1.0  0.13110  0.19710  0.97090  1.0000
  O   O49       1.0  0.13623  0.60067  0.63757  1.0000
  O   O50       1.0  0.39933  0.53557  0.63757  1.0000
  O   O51       1.0  0.46443  0.86377  0.63757  1.0000
  O   O52       1.0  0.46957  0.26733  0.30423  1.0000
  O   O53       1.0  0.73267  0.20223  0.30423  1.0000
  O   O54       1.0  0.79777  0.53043  0.30423  1.0000
  O   O55       1.0  0.06210  0.88710  0.31880  1.0000
  O   O56       1.0  0.11290  0.17500  0.31880  1.0000
  O   O57       1.0  0.82500  0.93790  0.31880  1.0000
  O   O58       1.0  0.72877  0.22043  0.65213  1.0000
  O   O59       1.0  0.77957  0.50833  0.65213  1.0000
  O   O60       1.0  0.49167  0.27123  0.65213  1.0000
  O   O61       1.0  0.39543  0.55377  0.98547  1.0000
  O   O62       1.0  0.44623  0.84167  0.98547  1.0000
  O   O63       1.0  0.15833  0.60457  0.98547  1.0000
  O   O64       1.0  0.93790  0.11290  0.68120  1.0000
  O   O65       1.0  0.88710  0.82500  0.68120  1.0000
  O   O66       1.0  0.17500  0.06210  0.68120  1.0000
  O   O67       1.0  0.27123  0.77957  0.34787  1.0000
  O   O68       1.0  0.22043  0.49167  0.34787  1.0000
  O   O69       1.0  0.50833  0.72877  0.34787  1.0000
  O   O70       1.0  0.60457  0.44623  0.01453  1.0000
  O   O71       1.0  0.55377  0.15833  0.01453  1.0000
  O   O72       1.0  0.84167  0.39543  0.01453  1.0000
  O   O73       1.0  0.12240  0.88270  0.44760  1.0000
  O   O74       1.0  0.11730  0.23970  0.44760  1.0000
  O   O75       1.0  0.76030  0.87760  0.44760  1.0000
  O   O76       1.0  0.78907  0.21603  0.78093  1.0000
  O   O77       1.0  0.78397  0.57303  0.78093  1.0000
  O   O78       1.0  0.42697  0.21093  0.78093  1.0000
  O   O79       1.0  0.45573  0.54937  0.11427  1.0000
  O   O80       1.0  0.45063  0.90637  0.11427  1.0000
  O   O81       1.0  0.09363  0.54427  0.11427  1.0000
  O   O82       1.0  0.87760  0.11730  0.55240  1.0000
  O   O83       1.0  0.88270  0.76030  0.55240  1.0000
  O   O84       1.0  0.23970  0.12240  0.55240  1.0000
  O   O85       1.0  0.21093  0.78397  0.21907  1.0000
  O   O86       1.0  0.21603  0.42697  0.21907  1.0000
  O   O87       1.0  0.57303  0.78907  0.21907  1.0000
  O   O88       1.0  0.54427  0.45063  0.88573  1.0000
  O   O89       1.0  0.54937  0.09363  0.88573  1.0000
  O   O90       1.0  0.90637  0.45573  0.88573  1.0000
  N   N1        1.0  0.16996  0.94047  0.19000  1.0000
  N   N2        1.0  0.05953  0.22949  0.19000  1.0000
  N   N3        1.0  0.77051  0.83004  0.19000  1.0000
  N   N4        1.0  0.83663  0.27380  0.52333  1.0000
  N   N5        1.0  0.72620  0.56282  0.52333  1.0000
  N   N6        1.0  0.43718  0.16337  0.52333  1.0000
  N   N7        1.0  0.50329  0.60714  0.85667  1.0000
  N   N8        1.0  0.39286  0.89616  0.85667  1.0000
  N   N9        1.0  0.10384  0.49671  0.85667  1.0000
  N   N10       1.0  0.83004  0.05953  0.81000  1.0000
  N   N11       1.0  0.94047  0.77051  0.81000  1.0000
  N   N12       1.0  0.22949  0.16996  0.81000  1.0000
  N   N13       1.0  0.16337  0.72620  0.47667  1.0000
  N   N14       1.0  0.27380  0.43718  0.47667  1.0000
  N   N15       1.0  0.56282  0.83663  0.47667  1.0000
  N   N16       1.0  0.49671  0.39286  0.14333  1.0000
  N   N17       1.0  0.60714  0.10384  0.14333  1.0000
  N   N18       1.0  0.89616  0.50329  0.14333  1.0000
  N   N19       1.0  0.42950  0.06960  0.16870  1.0000
  N   N20       1.0  0.93040  0.35990  0.16870  1.0000
  N   N21       1.0  0.64010  0.57050  0.16870  1.0000
  N   N22       1.0  0.09617  0.40293  0.50203  1.0000
  N   N23       1.0  0.59707  0.69323  0.50203  1.0000
  N   N24       1.0  0.30677  0.90383  0.50203  1.0000
  N   N25       1.0  0.76283  0.73627  0.83537  1.0000
  N   N26       1.0  0.26373  0.02657  0.83537  1.0000
  N   N27       1.0  0.97343  0.23717  0.83537  1.0000
  N   N28       1.0  0.57050  0.93040  0.83130  1.0000
  N   N29       1.0  0.06960  0.64010  0.83130  1.0000
  N   N30       1.0  0.35990  0.42950  0.83130  1.0000
  N   N31       1.0  0.90383  0.59707  0.49797  1.0000
  N   N32       1.0  0.40293  0.30677  0.49797  1.0000
  N   N33       1.0  0.69323  0.09617  0.49797  1.0000
  N   N34       1.0  0.23717  0.26373  0.16463  1.0000
  N   N35       1.0  0.73627  0.97343  0.16463  1.0000
  N   N36       1.0  0.02657  0.76283  0.16463  1.0000
  C   C1        1.0  0.18100  0.00860  0.21310  1.0000
  C   C2        1.0  0.99140  0.17240  0.21310  1.0000
  C   C3        1.0  0.82760  0.81900  0.21310  1.0000
  C   C4        1.0  0.84767  0.34193  0.54643  1.0000
  C   C5        1.0  0.65807  0.50573  0.54643  1.0000
  C   C6        1.0  0.49427  0.15233  0.54643  1.0000
  C   C7        1.0  0.51433  0.67527  0.87977  1.0000
  C   C8        1.0  0.32473  0.83907  0.87977  1.0000
  C   C9        1.0  0.16093  0.48567  0.87977  1.0000
  C   C10       1.0  0.81900  0.99140  0.78690  1.0000
  C   C11       1.0  0.00860  0.82760  0.78690  1.0000
  C   C12       1.0  0.17240  0.18100  0.78690  1.0000
  C   C13       1.0  0.15233  0.65807  0.45357  1.0000
  C   C14       1.0  0.34193  0.49427  0.45357  1.0000
  C   C15       1.0  0.50573  0.84767  0.45357  1.0000
  C   C16       1.0  0.48567  0.32473  0.12023  1.0000
  C   C17       1.0  0.67527  0.16093  0.12023  1.0000
  C   C18       1.0  0.83907  0.51433  0.12023  1.0000
  H   H1        1.0  0.22900  0.03900  0.22170  1.0000
  H   H2        1.0  0.96100  0.19000  0.22170  1.0000
  H   H3        1.0  0.81000  0.77100  0.22170  1.0000
  H   H4        1.0  0.89567  0.37233  0.55503  1.0000
  H   H5        1.0  0.62767  0.52333  0.55503  1.0000
  H   H6        1.0  0.47667  0.10433  0.55503  1.0000
  H   H7        1.0  0.56233  0.70567  0.88837  1.0000
  H   H8        1.0  0.29433  0.85667  0.88837  1.0000
  H   H9        1.0  0.14333  0.43767  0.88837  1.0000
  H   H10       1.0  0.77100  0.96100  0.77830  1.0000
  H   H11       1.0  0.03900  0.81000  0.77830  1.0000
  H   H12       1.0  0.19000  0.22900  0.77830  1.0000
  H   H13       1.0  0.10433  0.62767  0.44497  1.0000
  H   H14       1.0  0.37233  0.47667  0.44497  1.0000
  H   H15       1.0  0.52333  0.89567  0.44497  1.0000
  H   H16       1.0  0.43767  0.29433  0.11163  1.0000
  H   H17       1.0  0.70567  0.14333  0.11163  1.0000
  H   H18       1.0  0.85667  0.56233  0.11163  1.0000
  H   H19       1.0  0.15950  0.00660  0.27770  1.0000
  H   H20       1.0  0.99340  0.15290  0.27770  1.0000
  H   H21       1.0  0.84710  0.84050  0.27770  1.0000
  H   H22       1.0  0.82617  0.33993  0.61103  1.0000
  H   H23       1.0  0.66007  0.48623  0.61103  1.0000
  H   H24       1.0  0.51377  0.17383  0.61103  1.0000
  H   H25       1.0  0.49283  0.67327  0.94437  1.0000
  H   H26       1.0  0.32673  0.81957  0.94437  1.0000
  H   H27       1.0  0.18043  0.50717  0.94437  1.0000
  H   H28       1.0  0.84050  0.99340  0.72230  1.0000
  H   H29       1.0  0.00660  0.84710  0.72230  1.0000
  H   H30       1.0  0.15290  0.15950  0.72230  1.0000
  H   H31       1.0  0.17383  0.66007  0.38897  1.0000
  H   H32       1.0  0.33993  0.51377  0.38897  1.0000
  H   H33       1.0  0.48623  0.82617  0.38897  1.0000
  H   H34       1.0  0.50717  0.32673  0.05563  1.0000
  H   H35       1.0  0.67327  0.18043  0.05563  1.0000
  H   H36       1.0  0.81957  0.49283  0.05563  1.0000
  C   C19       1.0  0.11470  0.89150  0.35690  1.0000
  C   C20       1.0  0.10850  0.22320  0.35690  1.0000
  C   C21       1.0  0.77680  0.88530  0.35690  1.0000
  C   C22       1.0  0.78137  0.22483  0.69023  1.0000
  C   C23       1.0  0.77517  0.55653  0.69023  1.0000
  C   C24       1.0  0.44347  0.21863  0.69023  1.0000
  C   C25       1.0  0.44803  0.55817  0.02357  1.0000
  C   C26       1.0  0.44183  0.88987  0.02357  1.0000
  C   C27       1.0  0.11013  0.55197  0.02357  1.0000
  C   C28       1.0  0.88530  0.10850  0.64310  1.0000
  C   C29       1.0  0.89150  0.77680  0.64310  1.0000
  C   C30       1.0  0.22320  0.11470  0.64310  1.0000
  C   C31       1.0  0.21863  0.77517  0.30977  1.0000
  C   C32       1.0  0.22483  0.44347  0.30977  1.0000
  C   C33       1.0  0.55653  0.78137  0.30977  1.0000
  C   C34       1.0  0.55197  0.44183  0.97643  1.0000
  C   C35       1.0  0.55817  0.11013  0.97643  1.0000
  C   C36       1.0  0.88987  0.44803  0.97643  1.0000
  C   C37       1.0  0.17340  0.90790  0.28530  1.0000
  C   C38       1.0  0.09210  0.26550  0.28530  1.0000
  C   C39       1.0  0.73450  0.82660  0.28530  1.0000
  C   C40       1.0  0.84007  0.24123  0.61863  1.0000
  C   C41       1.0  0.75877  0.59883  0.61863  1.0000
  C   C42       1.0  0.40117  0.15993  0.61863  1.0000
  C   C43       1.0  0.50673  0.57457  0.95197  1.0000
  C   C44       1.0  0.42543  0.93217  0.95197  1.0000
  C   C45       1.0  0.06783  0.49327  0.95197  1.0000
  C   C46       1.0  0.82660  0.09210  0.71470  1.0000
  C   C47       1.0  0.90790  0.73450  0.71470  1.0000
  C   C48       1.0  0.26550  0.17340  0.71470  1.0000
  C   C49       1.0  0.15993  0.75877  0.38137  1.0000
  C   C50       1.0  0.24123  0.40117  0.38137  1.0000
  C   C51       1.0  0.59883  0.84007  0.38137  1.0000
  C   C52       1.0  0.49327  0.42543  0.04803  1.0000
  C   C53       1.0  0.57457  0.06783  0.04803  1.0000
  C   C54       1.0  0.93217  0.50673  0.04803  1.0000
  H   H37       1.0  0.21550  0.93760  0.32000  1.0000
  H   H38       1.0  0.06240  0.27790  0.32000  1.0000
  H   H39       1.0  0.72210  0.78450  0.32000  1.0000
  H   H40       1.0  0.88217  0.27093  0.65333  1.0000
  H   H41       1.0  0.72907  0.61123  0.65333  1.0000
  H   H42       1.0  0.38877  0.11783  0.65333  1.0000
  H   H43       1.0  0.54883  0.60427  0.98667  1.0000
  H   H44       1.0  0.39573  0.94457  0.98667  1.0000
  H   H45       1.0  0.05543  0.45117  0.98667  1.0000
  H   H46       1.0  0.78450  0.06240  0.68000  1.0000
  H   H47       1.0  0.93760  0.72210  0.68000  1.0000
  H   H48       1.0  0.27790  0.21550  0.68000  1.0000
  H   H49       1.0  0.11783  0.72907  0.34667  1.0000
  H   H50       1.0  0.27093  0.38877  0.34667  1.0000
  H   H51       1.0  0.61123  0.88217  0.34667  1.0000
  H   H52       1.0  0.45117  0.39573  0.01333  1.0000
  H   H53       1.0  0.60427  0.05543  0.01333  1.0000
  H   H54       1.0  0.94457  0.54883  0.01333  1.0000
  H   H55       1.0  0.17340  0.86660  0.26870  1.0000
  H   H56       1.0  0.13340  0.30680  0.26870  1.0000
  H   H57       1.0  0.69320  0.82660  0.26870  1.0000
  H   H58       1.0  0.84007  0.19993  0.60203  1.0000
  H   H59       1.0  0.80007  0.64013  0.60203  1.0000
  H   H60       1.0  0.35987  0.15993  0.60203  1.0000
  H   H61       1.0  0.50673  0.53327  0.93537  1.0000
  H   H62       1.0  0.46673  0.97347  0.93537  1.0000
  H   H63       1.0  0.02653  0.49327  0.93537  1.0000
  H   H64       1.0  0.82660  0.13340  0.73130  1.0000
  H   H65       1.0  0.86660  0.69320  0.73130  1.0000
  H   H66       1.0  0.30680  0.17340  0.73130  1.0000
  H   H67       1.0  0.15993  0.80007  0.39797  1.0000
  H   H68       1.0  0.19993  0.35987  0.39797  1.0000
  H   H69       1.0  0.64013  0.84007  0.39797  1.0000
  H   H70       1.0  0.49327  0.46673  0.06463  1.0000
  H   H71       1.0  0.53327  0.02653  0.06463  1.0000
  H   H72       1.0  0.97347  0.50673  0.06463  1.0000
  C   C55       1.0  0.21650  0.94030  0.11040  1.0000
  C   C56       1.0  0.05970  0.27620  0.11040  1.0000
  C   C57       1.0  0.72380  0.78350  0.11040  1.0000
  C   C58       1.0  0.88317  0.27363  0.44373  1.0000
  C   C59       1.0  0.72637  0.60953  0.44373  1.0000
  C   C60       1.0  0.39047  0.11683  0.44373  1.0000
  C   C61       1.0  0.54983  0.60697  0.77707  1.0000
  C   C62       1.0  0.39303  0.94287  0.77707  1.0000
  C   C63       1.0  0.05713  0.45017  0.77707  1.0000
  C   C64       1.0  0.78350  0.05970  0.88960  1.0000
  C   C65       1.0  0.94030  0.72380  0.88960  1.0000
  C   C66       1.0  0.27620  0.21650  0.88960  1.0000
  C   C67       1.0  0.11683  0.72637  0.55627  1.0000
  C   C68       1.0  0.27363  0.39047  0.55627  1.0000
  C   C69       1.0  0.60953  0.88317  0.55627  1.0000
  C   C70       1.0  0.45017  0.39303  0.22293  1.0000
  C   C71       1.0  0.60697  0.05713  0.22293  1.0000
  C   C72       1.0  0.94287  0.54983  0.22293  1.0000
  H   H73       1.0  0.20620  0.95440  0.04640  1.0000
  H   H74       1.0  0.04560  0.25180  0.04640  1.0000
  H   H75       1.0  0.74820  0.79380  0.04640  1.0000
  H   H76       1.0  0.87287  0.28773  0.37973  1.0000
  H   H77       1.0  0.71227  0.58513  0.37973  1.0000
  H   H78       1.0  0.41487  0.12713  0.37973  1.0000
  H   H79       1.0  0.53953  0.62107  0.71307  1.0000
  H   H80       1.0  0.37893  0.91847  0.71307  1.0000
  H   H81       1.0  0.08153  0.46047  0.71307  1.0000
  H   H82       1.0  0.79380  0.04560  0.95360  1.0000
  H   H83       1.0  0.95440  0.74820  0.95360  1.0000
  H   H84       1.0  0.25180  0.20620  0.95360  1.0000
  H   H85       1.0  0.12713  0.71227  0.62027  1.0000
  H   H86       1.0  0.28773  0.41487  0.62027  1.0000
  H   H87       1.0  0.58513  0.87287  0.62027  1.0000
  H   H88       1.0  0.46047  0.37893  0.28693  1.0000
  H   H89       1.0  0.62107  0.08153  0.28693  1.0000
  H   H90       1.0  0.91847  0.53953  0.28693  1.0000
  H   H91       1.0  0.20700  0.89430  0.10160  1.0000
  H   H92       1.0  0.10570  0.31270  0.10160  1.0000
  H   H93       1.0  0.68730  0.79300  0.10160  1.0000
  H   H94       1.0  0.87367  0.22763  0.43493  1.0000
  H   H95       1.0  0.77237  0.64603  0.43493  1.0000
  H   H96       1.0  0.35397  0.12633  0.43493  1.0000
  H   H97       1.0  0.54033  0.56097  0.76827  1.0000
  H   H98       1.0  0.43903  0.97937  0.76827  1.0000
  H   H99       1.0  0.02063  0.45967  0.76827  1.0000
  H   H100      1.0  0.79300  0.10570  0.89840  1.0000
  H   H101      1.0  0.89430  0.68730  0.89840  1.0000
  H   H102      1.0  0.31270  0.20700  0.89840  1.0000
  H   H103      1.0  0.12633  0.77237  0.56507  1.0000
  H   H104      1.0  0.22763  0.35397  0.56507  1.0000
  H   H105      1.0  0.64603  0.87367  0.56507  1.0000
  H   H106      1.0  0.45967  0.43903  0.23173  1.0000
  H   H107      1.0  0.56097  0.02063  0.23173  1.0000
  H   H108      1.0  0.97937  0.54033  0.23173  1.0000
  C   C73       1.0  0.29100  0.98450  0.13140  1.0000
  C   C74       1.0  0.01550  0.30650  0.13140  1.0000
  C   C75       1.0  0.69350  0.70900  0.13140  1.0000
  C   C76       1.0  0.95767  0.31783  0.46473  1.0000
  C   C77       1.0  0.68217  0.63983  0.46473  1.0000
  C   C78       1.0  0.36017  0.04233  0.46473  1.0000
  C   C79       1.0  0.62433  0.65117  0.79807  1.0000
  C   C80       1.0  0.34883  0.97317  0.79807  1.0000
  C   C81       1.0  0.02683  0.37567  0.79807  1.0000
  C   C82       1.0  0.70900  0.01550  0.86860  1.0000
  C   C83       1.0  0.98450  0.69350  0.86860  1.0000
  C   C84       1.0  0.30650  0.29100  0.86860  1.0000
  C   C85       1.0  0.04233  0.68217  0.53527  1.0000
  C   C86       1.0  0.31783  0.36017  0.53527  1.0000
  C   C87       1.0  0.63983  0.95767  0.53527  1.0000
  C   C88       1.0  0.37567  0.34883  0.20193  1.0000
  C   C89       1.0  0.65117  0.02683  0.20193  1.0000
  C   C90       1.0  0.97317  0.62433  0.20193  1.0000
  C   C91       1.0  0.33000  0.96030  0.17490  1.0000
  C   C92       1.0  0.03970  0.36970  0.17490  1.0000
  C   C93       1.0  0.63030  0.67000  0.17490  1.0000
  C   C94       1.0  0.99667  0.29363  0.50823  1.0000
  C   C95       1.0  0.70637  0.70303  0.50823  1.0000
  C   C96       1.0  0.29697  0.00333  0.50823  1.0000
  C   C97       1.0  0.66333  0.62697  0.84157  1.0000
  C   C98       1.0  0.37303  0.03637  0.84157  1.0000
  C   C99       1.0  0.96363  0.33667  0.84157  1.0000
  C   C100      1.0  0.67000  0.03970  0.82510  1.0000
  C   C101      1.0  0.96030  0.63030  0.82510  1.0000
  C   C102      1.0  0.36970  0.33000  0.82510  1.0000
  C   C103      1.0  0.00333  0.70637  0.49177  1.0000
  C   C104      1.0  0.29363  0.29697  0.49177  1.0000
  C   C105      1.0  0.70303  0.99667  0.49177  1.0000
  C   C106      1.0  0.33667  0.37303  0.15843  1.0000
  C   C107      1.0  0.62697  0.96363  0.15843  1.0000
  C   C108      1.0  0.03637  0.66333  0.15843  1.0000
  H   H109      1.0  0.31060  0.91500  0.19210  1.0000
  H   H110      1.0  0.08500  0.39560  0.19210  1.0000
  H   H111      1.0  0.60440  0.68940  0.19210  1.0000
  H   H112      1.0  0.97727  0.24833  0.52543  1.0000
  H   H113      1.0  0.75167  0.72893  0.52543  1.0000
  H   H114      1.0  0.27107  0.02273  0.52543  1.0000
  H   H115      1.0  0.64393  0.58167  0.85877  1.0000
  H   H116      1.0  0.41833  0.06227  0.85877  1.0000
  H   H117      1.0  0.93773  0.35607  0.85877  1.0000
  H   H118      1.0  0.68940  0.08500  0.80790  1.0000
  H   H119      1.0  0.91500  0.60440  0.80790  1.0000
  H   H120      1.0  0.39560  0.31060  0.80790  1.0000
  H   H121      1.0  0.02273  0.75167  0.47457  1.0000
  H   H122      1.0  0.24833  0.27107  0.47457  1.0000
  H   H123      1.0  0.72893  0.97727  0.47457  1.0000
  H   H124      1.0  0.35607  0.41833  0.14123  1.0000
  H   H125      1.0  0.58167  0.93773  0.14123  1.0000
  H   H126      1.0  0.06227  0.64393  0.14123  1.0000
  C   C109      1.0  0.39830  0.00420  0.19270  1.0000
  C   C110      1.0  0.99580  0.39410  0.19270  1.0000
  C   C111      1.0  0.60590  0.60170  0.19270  1.0000
  C   C112      1.0  0.06497  0.33753  0.52603  1.0000
  C   C113      1.0  0.66247  0.72743  0.52603  1.0000
  C   C114      1.0  0.27257  0.93503  0.52603  1.0000
  C   C115      1.0  0.73163  0.67087  0.85937  1.0000
  C   C116      1.0  0.32913  0.06077  0.85937  1.0000
  C   C117      1.0  0.93923  0.26837  0.85937  1.0000
  C   C118      1.0  0.60170  0.99580  0.80730  1.0000
  C   C119      1.0  0.00420  0.60590  0.80730  1.0000
  C   C120      1.0  0.39410  0.39830  0.80730  1.0000
  C   C121      1.0  0.93503  0.66247  0.47397  1.0000
  C   C122      1.0  0.33753  0.27257  0.47397  1.0000
  C   C123      1.0  0.72743  0.06497  0.47397  1.0000
  C   C124      1.0  0.26837  0.32913  0.14063  1.0000
  C   C125      1.0  0.67087  0.93923  0.14063  1.0000
  C   C126      1.0  0.06077  0.73163  0.14063  1.0000
  H   H127      1.0  0.42340  0.98710  0.22290  1.0000
  H   H128      1.0  0.01290  0.43630  0.22290  1.0000
  H   H129      1.0  0.56370  0.57660  0.22290  1.0000
  H   H130      1.0  0.09007  0.32043  0.55623  1.0000
  H   H131      1.0  0.67957  0.76963  0.55623  1.0000
  H   H132      1.0  0.23037  0.90993  0.55623  1.0000
  H   H133      1.0  0.75673  0.65377  0.88957  1.0000
  H   H134      1.0  0.34623  0.10297  0.88957  1.0000
  H   H135      1.0  0.89703  0.24327  0.88957  1.0000
  H   H136      1.0  0.57660  0.01290  0.77710  1.0000
  H   H137      1.0  0.98710  0.56370  0.77710  1.0000
  H   H138      1.0  0.43630  0.42340  0.77710  1.0000
  H   H139      1.0  0.90993  0.67957  0.44377  1.0000
  H   H140      1.0  0.32043  0.23037  0.44377  1.0000
  H   H141      1.0  0.76963  0.09007  0.44377  1.0000
  H   H142      1.0  0.24327  0.34623  0.11043  1.0000
  H   H143      1.0  0.65377  0.89703  0.11043  1.0000
  H   H144      1.0  0.10297  0.75673  0.11043  1.0000
  C   C127      1.0  0.32340  0.05240  0.10720  1.0000
  C   C128      1.0  0.94760  0.27100  0.10720  1.0000
  C   C129      1.0  0.72900  0.67660  0.10720  1.0000
  C   C130      1.0  0.99007  0.38573  0.44053  1.0000
  C   C131      1.0  0.61427  0.60433  0.44053  1.0000
  C   C132      1.0  0.39567  0.00993  0.44053  1.0000
  C   C133      1.0  0.65673  0.71907  0.77387  1.0000
  C   C134      1.0  0.28093  0.93767  0.77387  1.0000
  C   C135      1.0  0.06233  0.34327  0.77387  1.0000
  C   C136      1.0  0.67660  0.94760  0.89280  1.0000
  C   C137      1.0  0.05240  0.72900  0.89280  1.0000
  C   C138      1.0  0.27100  0.32340  0.89280  1.0000
  C   C139      1.0  0.00993  0.61427  0.55947  1.0000
  C   C140      1.0  0.38573  0.39567  0.55947  1.0000
  C   C141      1.0  0.60433  0.99007  0.55947  1.0000
  C   C142      1.0  0.34327  0.28093  0.22613  1.0000
  C   C143      1.0  0.71907  0.06233  0.22613  1.0000
  C   C144      1.0  0.93767  0.65673  0.22613  1.0000
  H   H145      1.0  0.29920  0.07090  0.07810  1.0000
  H   H146      1.0  0.92910  0.22830  0.07810  1.0000
  H   H147      1.0  0.77170  0.70080  0.07810  1.0000
  H   H148      1.0  0.96587  0.40423  0.41143  1.0000
  H   H149      1.0  0.59577  0.56163  0.41143  1.0000
  H   H150      1.0  0.43837  0.03413  0.41143  1.0000
  H   H151      1.0  0.63253  0.73757  0.74477  1.0000
  H   H152      1.0  0.26243  0.89497  0.74477  1.0000
  H   H153      1.0  0.10503  0.36747  0.74477  1.0000
  H   H154      1.0  0.70080  0.92910  0.92190  1.0000
  H   H155      1.0  0.07090  0.77170  0.92190  1.0000
  H   H156      1.0  0.22830  0.29920  0.92190  1.0000
  H   H157      1.0  0.03413  0.59577  0.58857  1.0000
  H   H158      1.0  0.40423  0.43837  0.58857  1.0000
  H   H159      1.0  0.56163  0.96587  0.58857  1.0000
  H   H160      1.0  0.36747  0.26243  0.25523  1.0000
  H   H161      1.0  0.73757  0.10503  0.25523  1.0000
  H   H162      1.0  0.89497  0.63253  0.25523  1.0000
  C   C145      1.0  0.39140  0.09270  0.12610  1.0000
  C   C146      1.0  0.90730  0.29870  0.12610  1.0000
  C   C147      1.0  0.70130  0.60860  0.12610  1.0000
  C   C148      1.0  0.05807  0.42603  0.45943  1.0000
  C   C149      1.0  0.57397  0.63203  0.45943  1.0000
  C   C150      1.0  0.36797  0.94193  0.45943  1.0000
  C   C151      1.0  0.72473  0.75937  0.79277  1.0000
  C   C152      1.0  0.24063  0.96537  0.79277  1.0000
  C   C153      1.0  0.03463  0.27527  0.79277  1.0000
  C   C154      1.0  0.60860  0.90730  0.87390  1.0000
  C   C155      1.0  0.09270  0.70130  0.87390  1.0000
  C   C156      1.0  0.29870  0.39140  0.87390  1.0000
  C   C157      1.0  0.94193  0.57397  0.54057  1.0000
  C   C158      1.0  0.42603  0.36797  0.54057  1.0000
  C   C159      1.0  0.63203  0.05807  0.54057  1.0000
  C   C160      1.0  0.27527  0.24063  0.20723  1.0000
  C   C161      1.0  0.75937  0.03463  0.20723  1.0000
  C   C162      1.0  0.96537  0.72473  0.20723  1.0000
  H   H163      1.0  0.41200  0.13810  0.10870  1.0000
  H   H164      1.0  0.86190  0.27390  0.10870  1.0000
  H   H165      1.0  0.72610  0.58800  0.10870  1.0000
  H   H166      1.0  0.07867  0.47143  0.44203  1.0000
  H   H167      1.0  0.52857  0.60723  0.44203  1.0000
  H   H168      1.0  0.39277  0.92133  0.44203  1.0000
  H   H169      1.0  0.74533  0.80477  0.77537  1.0000
  H   H170      1.0  0.19523  0.94057  0.77537  1.0000
  H   H171      1.0  0.05943  0.25467  0.77537  1.0000
  H   H172      1.0  0.58800  0.86190  0.89130  1.0000
  H   H173      1.0  0.13810  0.72610  0.89130  1.0000
  H   H174      1.0  0.27390  0.41200  0.89130  1.0000
  H   H175      1.0  0.92133  0.52857  0.55797  1.0000
  H   H176      1.0  0.47143  0.39277  0.55797  1.0000
  H   H177      1.0  0.60723  0.07867  0.55797  1.0000
  H   H178      1.0  0.25467  0.19523  0.22463  1.0000
  H   H179      1.0  0.80477  0.05943  0.22463  1.0000
  H   H180      1.0  0.94057  0.74533  0.22463  1.0000
