data_image0
_chemical_formula_structural       Mn21P18O90N36C18H36C36H36C18H36C36H18C18H18C18H18C18H18
_chemical_formula_sum              "Mn21 P18 O90 N36 C162 H180"
_cell_length_a       22.506
_cell_length_b       22.506
_cell_length_c       13.2344
_cell_angle_alpha    90
_cell_angle_beta     90
_cell_angle_gamma    120

_space_group_name_H-M_alt    "P 1"
_space_group_IT_number       1

loop_
  _space_group_symop_operation_xyz
  'x, y, z'

loop_
  _atom_site_type_symbol
  _atom_site_label
  _atom_site_symmetry_multiplicity
  _atom_site_fract_x
  _atom_site_fract_y
  _atom_site_fract_z
  _atom_site_occupancy
  Mn  Mn1       1.0  0.21312  0.72037  0.03039  1.0000
  Mn  Mn2       1.0  0.27963  0.49275  0.03039  1.0000
  Mn  Mn3       1.0  0.50725  0.78688  0.03039  1.0000
  Mn  Mn4       1.0  0.87979  0.05370  0.36372  1.0000
  Mn  Mn5       1.0  0.94630  0.82608  0.36372  1.0000
  Mn  Mn6       1.0  0.17392  0.12021  0.36372  1.0000
  Mn  Mn7       1.0  0.54645  0.38704  0.69706  1.0000
  Mn  Mn8       1.0  0.61296  0.15942  0.69706  1.0000
  Mn  Mn9       1.0  0.84058  0.45355  0.69706  1.0000
  Mn  Mn10      1.0  0.78688  0.27963  0.96961  1.0000
  Mn  Mn11      1.0  0.72037  0.50725  0.96961  1.0000
  Mn  Mn12      1.0  0.49275  0.21312  0.96961  1.0000
  Mn  Mn13      1.0  0.12021  0.94630  0.63628  1.0000
  Mn  Mn14      1.0  0.05370  0.17392  0.63628  1.0000
  Mn  Mn15      1.0  0.82608  0.87979  0.63628  1.0000
  Mn  Mn16      1.0  0.45355  0.61296  0.30294  1.0000
  Mn  Mn17      1.0  0.38704  0.84058  0.30294  1.0000
  Mn  Mn18      1.0  0.15942  0.54645  0.30294  1.0000
  Mn  Mn19      1.0  0.33330  0.66670  0.16670  1.0000
  Mn  Mn20      1.0  0.99997  0.00003  0.50003  1.0000
  Mn  Mn21      1.0  0.66663  0.33337  0.83337  1.0000
  P   P1        1.0  0.37728  0.81670  0.05649  1.0000
  P   P2        1.0  0.18330  0.56058  0.05649  1.0000
  P   P3        1.0  0.43942  0.62272  0.05649  1.0000
  P   P4        1.0  0.04395  0.15003  0.38982  1.0000
  P   P5        1.0  0.84997  0.89391  0.38982  1.0000
  P   P6        1.0  0.10609  0.95605  0.38982  1.0000
  P   P7        1.0  0.71061  0.48337  0.72316  1.0000
  P   P8        1.0  0.51663  0.22725  0.72316  1.0000
  P   P9        1.0  0.77275  0.28939  0.72316  1.0000
  P   P10       1.0  0.62272  0.18330  0.94351  1.0000
  P   P11       1.0  0.81670  0.43942  0.94351  1.0000
  P   P12       1.0  0.56058  0.37728  0.94351  1.0000
  P   P13       1.0  0.95605  0.84997  0.61018  1.0000
  P   P14       1.0  0.15003  0.10609  0.61018  1.0000
  P   P15       1.0  0.89391  0.04395  0.61018  1.0000
  P   P16       1.0  0.28939  0.51663  0.27684  1.0000
  P   P17       1.0  0.48337  0.77275  0.27684  1.0000
  P   P18       1.0  0.22725  0.71061  0.27684  1.0000
  O   O1        1.0  0.32030  0.74169  0.07250  1.0000
  O   O2        1.0  0.25831  0.57861  0.07250  1.0000
  O   O3        1.0  0.42139  0.67970  0.07250  1.0000
  O   O4        1.0  0.98697  0.07502  0.40583  1.0000
  O   O5        1.0  0.92498  0.91194  0.40583  1.0000
  O   O6        1.0  0.08806  0.01303  0.40583  1.0000
  O   O7        1.0  0.65363  0.40836  0.73917  1.0000
  O   O8        1.0  0.59164  0.24528  0.73917  1.0000
  O   O9        1.0  0.75472  0.34637  0.73917  1.0000
  O   O10       1.0  0.67970  0.25831  0.92750  1.0000
  O   O11       1.0  0.74169  0.42139  0.92750  1.0000
  O   O12       1.0  0.57861  0.32030  0.92750  1.0000
  O   O13       1.0  0.01303  0.92498  0.59417  1.0000
  O   O14       1.0  0.07502  0.08806  0.59417  1.0000
  O   O15       1.0  0.91194  0.98697  0.59417  1.0000
  O   O16       1.0  0.34637  0.59164  0.26083  1.0000
  O   O17       1.0  0.40836  0.75472  0.26083  1.0000
  O   O18       1.0  0.24528  0.65363  0.26083  1.0000
  O   O19       1.0  0.17980  0.61880  0.00640  1.0000
  O   O20       1.0  0.38120  0.56100  0.00640  1.0000
  O   O21       1.0  0.43900  0.82020  0.00640  1.0000
  O   O22       1.0  0.84647  0.95213  0.33973  1.0000
  O   O23       1.0  0.04787  0.89433  0.33973  1.0000
  O   O24       1.0  0.10567  0.15353  0.33973  1.0000
  O   O25       1.0  0.51313  0.28547  0.67307  1.0000
  O   O26       1.0  0.71453  0.22767  0.67307  1.0000
  O   O27       1.0  0.77233  0.48687  0.67307  1.0000
  O   O28       1.0  0.82020  0.38120  0.99360  1.0000
  O   O29       1.0  0.61880  0.43900  0.99360  1.0000
  O   O30       1.0  0.56100  0.17980  0.99360  1.0000
  O   O31       1.0  0.15353  0.04787  0.66027  1.0000
  O   O32       1.0  0.95213  0.10567  0.66027  1.0000
  O   O33       1.0  0.89433  0.84647  0.66027  1.0000
  O   O34       1.0  0.48687  0.71453  0.32693  1.0000
  O   O35       1.0  0.28547  0.77233  0.32693  1.0000
  O   O36       1.0  0.22767  0.51313  0.32693  1.0000
  O   O37       1.0  0.19910  0.72710  0.18360  1.0000
  O   O38       1.0  0.27290  0.47200  0.18360  1.0000
  O   O39       1.0  0.52800  0.80090  0.18360  1.0000
  O   O40       1.0  0.86577  0.06043  0.51693  1.0000
  O   O41       1.0  0.93957  0.80533  0.51693  1.0000
  O   O42       1.0  0.19467  0.13423  0.51693  1.0000
  O   O43       1.0  0.53243  0.39377  0.85027  1.0000
  O   O44       1.0  0.60623  0.13867  0.85027  1.0000
  O   O45       1.0  0.86133  0.46757  0.85027  1.0000
  O   O46       1.0  0.80090  0.27290  0.81640  1.0000
  O   O47       1.0  0.72710  0.52800  0.81640  1.0000
  O   O48       1.0  0.47200  0.19910  0.81640  1.0000
  O   O49       1.0  0.13423  0.93957  0.48307  1.0000
  O   O50       1.0  0.06043  0.19467  0.48307  1.0000
  O   O51       1.0  0.80533  0.86577  0.48307  1.0000
  O   O52       1.0  0.46757  0.60623  0.14973  1.0000
  O   O53       1.0  0.39377  0.86133  0.14973  1.0000
  O   O54       1.0  0.13867  0.53243  0.14973  1.0000
  O   O55       1.0  0.22550  0.72720  0.85760  1.0000
  O   O56       1.0  0.27280  0.49830  0.85760  1.0000
  O   O57       1.0  0.50170  0.77450  0.85760  1.0000
  O   O58       1.0  0.89217  0.06053  0.19093  1.0000
  O   O59       1.0  0.93947  0.83163  0.19093  1.0000
  O   O60       1.0  0.16837  0.10783  0.19093  1.0000
  O   O61       1.0  0.55883  0.39387  0.52427  1.0000
  O   O62       1.0  0.60613  0.16497  0.52427  1.0000
  O   O63       1.0  0.83503  0.44117  0.52427  1.0000
  O   O64       1.0  0.77450  0.27280  0.14240  1.0000
  O   O65       1.0  0.72720  0.50170  0.14240  1.0000
  O   O66       1.0  0.49830  0.22550  0.14240  1.0000
  O   O67       1.0  0.10783  0.93947  0.80907  1.0000
  O   O68       1.0  0.06053  0.16837  0.80907  1.0000
  O   O69       1.0  0.83163  0.89217  0.80907  1.0000
  O   O70       1.0  0.44117  0.60613  0.47573  1.0000
  O   O71       1.0  0.39387  0.83503  0.47573  1.0000
  O   O72       1.0  0.16497  0.55883  0.47573  1.0000
  O   O73       1.0  0.21720  0.78450  0.72620  1.0000
  O   O74       1.0  0.21550  0.43270  0.72620  1.0000
  O   O75       1.0  0.56730  0.78280  0.72620  1.0000
  O   O76       1.0  0.88387  0.11783  0.05953  1.0000
  O   O77       1.0  0.88217  0.76603  0.05953  1.0000
  O   O78       1.0  0.23397  0.11613  0.05953  1.0000
  O   O79       1.0  0.55053  0.45117  0.39287  1.0000
  O   O80       1.0  0.54883  0.09937  0.39287  1.0000
  O   O81       1.0  0.90063  0.44947  0.39287  1.0000
  O   O82       1.0  0.78280  0.21550  0.27380  1.0000
  O   O83       1.0  0.78450  0.56730  0.27380  1.0000
  O   O84       1.0  0.43270  0.21720  0.27380  1.0000
  O   O85       1.0  0.11613  0.88217  0.94047  1.0000
  O   O86       1.0  0.11783  0.23397  0.94047  1.0000
  O   O87       1.0  0.76603  0.88387  0.94047  1.0000
  O   O88       1.0  0.44947  0.54883  0.60713  1.0000
  O   O89       1.0  0.45117  0.90063  0.60713  1.0000
  O   O90       1.0  0.09937  0.55053  0.60713  1.0000
  N   N1        1.0  0.27270  0.83570  0.98240  1.0000
  N   N2        1.0  0.16430  0.43700  0.98240  1.0000
  N   N3        1.0  0.56300  0.72730  0.98240  1.0000
  N   N4        1.0  0.93937  0.16903  0.31573  1.0000
  N   N5        1.0  0.83097  0.77033  0.31573  1.0000
  N   N6        1.0  0.22967  0.06063  0.31573  1.0000
  N   N7        1.0  0.60603  0.50237  0.64907  1.0000
  N   N8        1.0  0.49763  0.10367  0.64907  1.0000
  N   N9        1.0  0.89633  0.39397  0.64907  1.0000
  N   N10       1.0  0.72730  0.16430  0.01760  1.0000
  N   N11       1.0  0.83570  0.56300  0.01760  1.0000
  N   N12       1.0  0.43700  0.27270  0.01760  1.0000
  N   N13       1.0  0.06063  0.83097  0.68427  1.0000
  N   N14       1.0  0.16903  0.22967  0.68427  1.0000
  N   N15       1.0  0.77033  0.93937  0.68427  1.0000
  N   N16       1.0  0.39397  0.49763  0.35093  1.0000
  N   N17       1.0  0.50237  0.89633  0.35093  1.0000
  N   N18       1.0  0.10367  0.60603  0.35093  1.0000
  N   N19       1.0  0.40320  0.10040  0.00470  1.0000
  N   N20       1.0  0.89960  0.30280  0.00470  1.0000
  N   N21       1.0  0.69720  0.59680  0.00470  1.0000
  N   N22       1.0  0.06987  0.43373  0.33803  1.0000
  N   N23       1.0  0.56627  0.63613  0.33803  1.0000
  N   N24       1.0  0.36387  0.93013  0.33803  1.0000
  N   N25       1.0  0.73653  0.76707  0.67137  1.0000
  N   N26       1.0  0.23293  0.96947  0.67137  1.0000
  N   N27       1.0  0.03053  0.26347  0.67137  1.0000
  N   N28       1.0  0.59680  0.89960  0.99530  1.0000
  N   N29       1.0  0.10040  0.69720  0.99530  1.0000
  N   N30       1.0  0.30280  0.40320  0.99530  1.0000
  N   N31       1.0  0.93013  0.56627  0.66197  1.0000
  N   N32       1.0  0.43373  0.36387  0.66197  1.0000
  N   N33       1.0  0.63613  0.06987  0.66197  1.0000
  N   N34       1.0  0.26347  0.23293  0.32863  1.0000
  N   N35       1.0  0.76707  0.03053  0.32863  1.0000
  N   N36       1.0  0.96947  0.73653  0.32863  1.0000
  C   C1        1.0  0.34360  0.84970  0.96110  1.0000
  C   C2        1.0  0.15030  0.49390  0.96110  1.0000
  C   C3        1.0  0.50610  0.65640  0.96110  1.0000
  C   C4        1.0  0.01027  0.18303  0.29443  1.0000
  C   C5        1.0  0.81697  0.82723  0.29443  1.0000
  C   C6        1.0  0.17277  0.98973  0.29443  1.0000
  C   C7        1.0  0.67693  0.51637  0.62777  1.0000
  C   C8        1.0  0.48363  0.16057  0.62777  1.0000
  C   C9        1.0  0.83943  0.32307  0.62777  1.0000
  C   C10       1.0  0.65640  0.15030  0.03890  1.0000
  C   C11       1.0  0.84970  0.50610  0.03890  1.0000
  C   C12       1.0  0.49390  0.34360  0.03890  1.0000
  C   C13       1.0  0.98973  0.81697  0.70557  1.0000
  C   C14       1.0  0.18303  0.17277  0.70557  1.0000
  C   C15       1.0  0.82723  0.01027  0.70557  1.0000
  C   C16       1.0  0.32307  0.48363  0.37223  1.0000
  C   C17       1.0  0.51637  0.83943  0.37223  1.0000
  C   C18       1.0  0.16057  0.67693  0.37223  1.0000
  H   H1        1.0  0.37380  0.89890  0.95560  1.0000
  H   H2        1.0  0.10110  0.47490  0.95560  1.0000
  H   H3        1.0  0.52510  0.62620  0.95560  1.0000
  H   H4        1.0  0.04047  0.23223  0.28893  1.0000
  H   H5        1.0  0.76777  0.80823  0.28893  1.0000
  H   H6        1.0  0.19177  0.95953  0.28893  1.0000
  H   H7        1.0  0.70713  0.56557  0.62227  1.0000
  H   H8        1.0  0.43443  0.14157  0.62227  1.0000
  H   H9        1.0  0.85843  0.29287  0.62227  1.0000
  H   H10       1.0  0.62620  0.10110  0.04440  1.0000
  H   H11       1.0  0.89890  0.52510  0.04440  1.0000
  H   H12       1.0  0.47490  0.37380  0.04440  1.0000
  H   H13       1.0  0.95953  0.76777  0.71107  1.0000
  H   H14       1.0  0.23223  0.19177  0.71107  1.0000
  H   H15       1.0  0.80823  0.04047  0.71107  1.0000
  H   H16       1.0  0.29287  0.43443  0.37773  1.0000
  H   H17       1.0  0.56557  0.85843  0.37773  1.0000
  H   H18       1.0  0.14157  0.70713  0.37773  1.0000
  H   H19       1.0  0.34380  0.82960  0.89640  1.0000
  H   H20       1.0  0.17040  0.51420  0.89640  1.0000
  H   H21       1.0  0.48580  0.65620  0.89640  1.0000
  H   H22       1.0  0.01047  0.16293  0.22973  1.0000
  H   H23       1.0  0.83707  0.84753  0.22973  1.0000
  H   H24       1.0  0.15247  0.98953  0.22973  1.0000
  H   H25       1.0  0.67713  0.49627  0.56307  1.0000
  H   H26       1.0  0.50373  0.18087  0.56307  1.0000
  H   H27       1.0  0.81913  0.32287  0.56307  1.0000
  H   H28       1.0  0.65620  0.17040  0.10360  1.0000
  H   H29       1.0  0.82960  0.48580  0.10360  1.0000
  H   H30       1.0  0.51420  0.34380  0.10360  1.0000
  H   H31       1.0  0.98953  0.83707  0.77027  1.0000
  H   H32       1.0  0.16293  0.15247  0.77027  1.0000
  H   H33       1.0  0.84753  0.01047  0.77027  1.0000
  H   H34       1.0  0.32287  0.50373  0.43693  1.0000
  H   H35       1.0  0.49627  0.81913  0.43693  1.0000
  H   H36       1.0  0.18087  0.67713  0.43693  1.0000
  C   C19       1.0  0.22760  0.77910  0.81670  1.0000
  C   C20       1.0  0.22090  0.44850  0.81670  1.0000
  C   C21       1.0  0.55150  0.77240  0.81670  1.0000
  C   C22       1.0  0.89427  0.11243  0.15003  1.0000
  C   C23       1.0  0.88757  0.78183  0.15003  1.0000
  C   C24       1.0  0.21817  0.10573  0.15003  1.0000
  C   C25       1.0  0.56093  0.44577  0.48337  1.0000
  C   C26       1.0  0.55423  0.11517  0.48337  1.0000
  C   C27       1.0  0.88483  0.43907  0.48337  1.0000
  C   C28       1.0  0.77240  0.22090  0.18330  1.0000
  C   C29       1.0  0.77910  0.55150  0.18330  1.0000
  C   C30       1.0  0.44850  0.22760  0.18330  1.0000
  C   C31       1.0  0.10573  0.88757  0.84997  1.0000
  C   C32       1.0  0.11243  0.21817  0.84997  1.0000
  C   C33       1.0  0.78183  0.89427  0.84997  1.0000
  C   C34       1.0  0.43907  0.55423  0.51663  1.0000
  C   C35       1.0  0.44577  0.88483  0.51663  1.0000
  C   C36       1.0  0.11517  0.56093  0.51663  1.0000
  C   C37       1.0  0.24120  0.83870  0.88670  1.0000
  C   C38       1.0  0.16130  0.40250  0.88670  1.0000
  C   C39       1.0  0.59750  0.75880  0.88670  1.0000
  C   C40       1.0  0.90787  0.17203  0.22003  1.0000
  C   C41       1.0  0.82797  0.73583  0.22003  1.0000
  C   C42       1.0  0.26417  0.09213  0.22003  1.0000
  C   C43       1.0  0.57453  0.50537  0.55337  1.0000
  C   C44       1.0  0.49463  0.06917  0.55337  1.0000
  C   C45       1.0  0.93083  0.42547  0.55337  1.0000
  C   C46       1.0  0.75880  0.16130  0.11330  1.0000
  C   C47       1.0  0.83870  0.59750  0.11330  1.0000
  C   C48       1.0  0.40250  0.24120  0.11330  1.0000
  C   C49       1.0  0.09213  0.82797  0.77997  1.0000
  C   C50       1.0  0.17203  0.26417  0.77997  1.0000
  C   C51       1.0  0.73583  0.90787  0.77997  1.0000
  C   C52       1.0  0.42547  0.49463  0.44663  1.0000
  C   C53       1.0  0.50537  0.93083  0.44663  1.0000
  C   C54       1.0  0.06917  0.57453  0.44663  1.0000
  H   H37       1.0  0.27130  0.88170  0.85300  1.0000
  H   H38       1.0  0.11830  0.38960  0.85300  1.0000
  H   H39       1.0  0.61040  0.72870  0.85300  1.0000
  H   H40       1.0  0.93797  0.21503  0.18633  1.0000
  H   H41       1.0  0.78497  0.72293  0.18633  1.0000
  H   H42       1.0  0.27707  0.06203  0.18633  1.0000
  H   H43       1.0  0.60463  0.54837  0.51967  1.0000
  H   H44       1.0  0.45163  0.05627  0.51967  1.0000
  H   H45       1.0  0.94373  0.39537  0.51967  1.0000
  H   H46       1.0  0.72870  0.11830  0.14700  1.0000
  H   H47       1.0  0.88170  0.61040  0.14700  1.0000
  H   H48       1.0  0.38960  0.27130  0.14700  1.0000
  H   H49       1.0  0.06203  0.78497  0.81367  1.0000
  H   H50       1.0  0.21503  0.27707  0.81367  1.0000
  H   H51       1.0  0.72293  0.93797  0.81367  1.0000
  H   H52       1.0  0.39537  0.45163  0.48033  1.0000
  H   H53       1.0  0.54837  0.94373  0.48033  1.0000
  H   H54       1.0  0.05627  0.60463  0.48033  1.0000
  H   H55       1.0  0.19820  0.83730  0.90080  1.0000
  H   H56       1.0  0.16270  0.36090  0.90080  1.0000
  H   H57       1.0  0.63910  0.80180  0.90080  1.0000
  H   H58       1.0  0.86487  0.17063  0.23413  1.0000
  H   H59       1.0  0.82937  0.69423  0.23413  1.0000
  H   H60       1.0  0.30577  0.13513  0.23413  1.0000
  H   H61       1.0  0.53153  0.50397  0.56747  1.0000
  H   H62       1.0  0.49603  0.02757  0.56747  1.0000
  H   H63       1.0  0.97243  0.46847  0.56747  1.0000
  H   H64       1.0  0.80180  0.16270  0.09920  1.0000
  H   H65       1.0  0.83730  0.63910  0.09920  1.0000
  H   H66       1.0  0.36090  0.19820  0.09920  1.0000
  H   H67       1.0  0.13513  0.82937  0.76587  1.0000
  H   H68       1.0  0.17063  0.30577  0.76587  1.0000
  H   H69       1.0  0.69423  0.86487  0.76587  1.0000
  H   H70       1.0  0.46847  0.49603  0.43253  1.0000
  H   H71       1.0  0.50397  0.97243  0.43253  1.0000
  H   H72       1.0  0.02757  0.53153  0.43253  1.0000
  C   C55       1.0  0.27040  0.88190  0.06020  1.0000
  C   C56       1.0  0.11810  0.38850  0.06020  1.0000
  C   C57       1.0  0.61150  0.72960  0.06020  1.0000
  C   C58       1.0  0.93707  0.21523  0.39353  1.0000
  C   C59       1.0  0.78477  0.72183  0.39353  1.0000
  C   C60       1.0  0.27817  0.06293  0.39353  1.0000
  C   C61       1.0  0.60373  0.54857  0.72687  1.0000
  C   C62       1.0  0.45143  0.05517  0.72687  1.0000
  C   C63       1.0  0.94483  0.39627  0.72687  1.0000
  C   C64       1.0  0.72960  0.11810  0.93980  1.0000
  C   C65       1.0  0.88190  0.61150  0.93980  1.0000
  C   C66       1.0  0.38850  0.27040  0.93980  1.0000
  C   C67       1.0  0.06293  0.78477  0.60647  1.0000
  C   C68       1.0  0.21523  0.27817  0.60647  1.0000
  C   C69       1.0  0.72183  0.93707  0.60647  1.0000
  C   C70       1.0  0.39627  0.45143  0.27313  1.0000
  C   C71       1.0  0.54857  0.94483  0.27313  1.0000
  C   C72       1.0  0.05517  0.60373  0.27313  1.0000
  H   H73       1.0  0.28370  0.87130  0.12450  1.0000
  H   H74       1.0  0.12870  0.41240  0.12450  1.0000
  H   H75       1.0  0.58760  0.71630  0.12450  1.0000
  H   H76       1.0  0.95037  0.20463  0.45783  1.0000
  H   H77       1.0  0.79537  0.74573  0.45783  1.0000
  H   H78       1.0  0.25427  0.04963  0.45783  1.0000
  H   H79       1.0  0.61703  0.53797  0.79117  1.0000
  H   H80       1.0  0.46203  0.07907  0.79117  1.0000
  H   H81       1.0  0.92093  0.38297  0.79117  1.0000
  H   H82       1.0  0.71630  0.12870  0.87550  1.0000
  H   H83       1.0  0.87130  0.58760  0.87550  1.0000
  H   H84       1.0  0.41240  0.28370  0.87550  1.0000
  H   H85       1.0  0.04963  0.79537  0.54217  1.0000
  H   H86       1.0  0.20463  0.25427  0.54217  1.0000
  H   H87       1.0  0.74573  0.95037  0.54217  1.0000
  H   H88       1.0  0.38297  0.46203  0.20883  1.0000
  H   H89       1.0  0.53797  0.92093  0.20883  1.0000
  H   H90       1.0  0.07907  0.61703  0.20883  1.0000
  H   H91       1.0  0.22330  0.87170  0.06680  1.0000
  H   H92       1.0  0.12830  0.35160  0.06680  1.0000
  H   H93       1.0  0.64840  0.77670  0.06680  1.0000
  H   H94       1.0  0.88997  0.20503  0.40013  1.0000
  H   H95       1.0  0.79497  0.68493  0.40013  1.0000
  H   H96       1.0  0.31507  0.11003  0.40013  1.0000
  H   H97       1.0  0.55663  0.53837  0.73347  1.0000
  H   H98       1.0  0.46163  0.01827  0.73347  1.0000
  H   H99       1.0  0.98173  0.44337  0.73347  1.0000
  H   H100      1.0  0.77670  0.12830  0.93320  1.0000
  H   H101      1.0  0.87170  0.64840  0.93320  1.0000
  H   H102      1.0  0.35160  0.22330  0.93320  1.0000
  H   H103      1.0  0.11003  0.79497  0.59987  1.0000
  H   H104      1.0  0.20503  0.31507  0.59987  1.0000
  H   H105      1.0  0.68493  0.88997  0.59987  1.0000
  H   H106      1.0  0.44337  0.46163  0.26653  1.0000
  H   H107      1.0  0.53837  0.98173  0.26653  1.0000
  H   H108      1.0  0.01827  0.55663  0.26653  1.0000
  C   C73       1.0  0.31550  0.95860  0.04070  1.0000
  C   C74       1.0  0.04140  0.35690  0.04070  1.0000
  C   C75       1.0  0.64310  0.68450  0.04070  1.0000
  C   C76       1.0  0.98217  0.29193  0.37403  1.0000
  C   C77       1.0  0.70807  0.69023  0.37403  1.0000
  C   C78       1.0  0.30977  0.01783  0.37403  1.0000
  C   C79       1.0  0.64883  0.62527  0.70737  1.0000
  C   C80       1.0  0.37473  0.02357  0.70737  1.0000
  C   C81       1.0  0.97643  0.35117  0.70737  1.0000
  C   C82       1.0  0.68450  0.04140  0.95930  1.0000
  C   C83       1.0  0.95860  0.64310  0.95930  1.0000
  C   C84       1.0  0.35690  0.31550  0.95930  1.0000
  C   C85       1.0  0.01783  0.70807  0.62597  1.0000
  C   C86       1.0  0.29193  0.30977  0.62597  1.0000
  C   C87       1.0  0.69023  0.98217  0.62597  1.0000
  C   C88       1.0  0.35117  0.37473  0.29263  1.0000
  C   C89       1.0  0.62527  0.97643  0.29263  1.0000
  C   C90       1.0  0.02357  0.64883  0.29263  1.0000
  C   C91       1.0  0.29190  0.99790  0.99490  1.0000
  C   C92       1.0  0.00210  0.29400  0.99490  1.0000
  C   C93       1.0  0.70600  0.70810  0.99490  1.0000
  C   C94       1.0  0.95857  0.33123  0.32823  1.0000
  C   C95       1.0  0.66877  0.62733  0.32823  1.0000
  C   C96       1.0  0.37267  0.04143  0.32823  1.0000
  C   C97       1.0  0.62523  0.66457  0.66157  1.0000
  C   C98       1.0  0.33543  0.96067  0.66157  1.0000
  C   C99       1.0  0.03933  0.37477  0.66157  1.0000
  C   C100      1.0  0.70810  0.00210  0.00510  1.0000
  C   C101      1.0  0.99790  0.70600  0.00510  1.0000
  C   C102      1.0  0.29400  0.29190  0.00510  1.0000
  C   C103      1.0  0.04143  0.66877  0.67177  1.0000
  C   C104      1.0  0.33123  0.37267  0.67177  1.0000
  C   C105      1.0  0.62733  0.95857  0.67177  1.0000
  C   C106      1.0  0.37477  0.33543  0.33843  1.0000
  C   C107      1.0  0.66457  0.03933  0.33843  1.0000
  C   C108      1.0  0.96067  0.62523  0.33843  1.0000
  H   H109      1.0  0.24620  0.97800  0.97500  1.0000
  H   H110      1.0  0.02200  0.26820  0.97500  1.0000
  H   H111      1.0  0.73180  0.75380  0.97500  1.0000
  H   H112      1.0  0.91287  0.31133  0.30833  1.0000
  H   H113      1.0  0.68867  0.60153  0.30833  1.0000
  H   H114      1.0  0.39847  0.08713  0.30833  1.0000
  H   H115      1.0  0.57953  0.64467  0.64167  1.0000
  H   H116      1.0  0.35533  0.93487  0.64167  1.0000
  H   H117      1.0  0.06513  0.42047  0.64167  1.0000
  H   H118      1.0  0.75380  0.02200  0.02500  1.0000
  H   H119      1.0  0.97800  0.73180  0.02500  1.0000
  H   H120      1.0  0.26820  0.24620  0.02500  1.0000
  H   H121      1.0  0.08713  0.68867  0.69167  1.0000
  H   H122      1.0  0.31133  0.39847  0.69167  1.0000
  H   H123      1.0  0.60153  0.91287  0.69167  1.0000
  H   H124      1.0  0.42047  0.35533  0.35833  1.0000
  H   H125      1.0  0.64467  0.06513  0.35833  1.0000
  H   H126      1.0  0.93487  0.57953  0.35833  1.0000
  C   C109      1.0  0.33660  0.06780  0.97830  1.0000
  C   C110      1.0  0.93220  0.26880  0.97830  1.0000
  C   C111      1.0  0.73120  0.66340  0.97830  1.0000
  C   C112      1.0  0.00327  0.40113  0.31163  1.0000
  C   C113      1.0  0.59887  0.60213  0.31163  1.0000
  C   C114      1.0  0.39787  0.99673  0.31163  1.0000
  C   C115      1.0  0.66993  0.73447  0.64497  1.0000
  C   C116      1.0  0.26553  0.93547  0.64497  1.0000
  C   C117      1.0  0.06453  0.33007  0.64497  1.0000
  C   C118      1.0  0.66340  0.93220  0.02170  1.0000
  C   C119      1.0  0.06780  0.73120  0.02170  1.0000
  C   C120      1.0  0.26880  0.33660  0.02170  1.0000
  C   C121      1.0  0.99673  0.59887  0.68837  1.0000
  C   C122      1.0  0.40113  0.39787  0.68837  1.0000
  C   C123      1.0  0.60213  0.00327  0.68837  1.0000
  C   C124      1.0  0.33007  0.26553  0.35503  1.0000
  C   C125      1.0  0.73447  0.06453  0.35503  1.0000
  C   C126      1.0  0.93547  0.66993  0.35503  1.0000
  H   H127      1.0  0.31940  0.09310  0.94730  1.0000
  H   H128      1.0  0.90690  0.22630  0.94730  1.0000
  H   H129      1.0  0.77370  0.68060  0.94730  1.0000
  H   H130      1.0  0.98607  0.42643  0.28063  1.0000
  H   H131      1.0  0.57357  0.55963  0.28063  1.0000
  H   H132      1.0  0.44037  0.01393  0.28063  1.0000
  H   H133      1.0  0.65273  0.75977  0.61397  1.0000
  H   H134      1.0  0.24023  0.89297  0.61397  1.0000
  H   H135      1.0  0.10703  0.34727  0.61397  1.0000
  H   H136      1.0  0.68060  0.90690  0.05270  1.0000
  H   H137      1.0  0.09310  0.77370  0.05270  1.0000
  H   H138      1.0  0.22630  0.31940  0.05270  1.0000
  H   H139      1.0  0.01393  0.57357  0.71937  1.0000
  H   H140      1.0  0.42643  0.44037  0.71937  1.0000
  H   H141      1.0  0.55963  0.98607  0.71937  1.0000
  H   H142      1.0  0.34727  0.24023  0.38603  1.0000
  H   H143      1.0  0.75977  0.10703  0.38603  1.0000
  H   H144      1.0  0.89297  0.65273  0.38603  1.0000
  C   C127      1.0  0.38420  0.99200  0.06920  1.0000
  C   C128      1.0  0.00800  0.39220  0.06920  1.0000
  C   C129      1.0  0.60780  0.61580  0.06920  1.0000
  C   C130      1.0  0.05087  0.32533  0.40253  1.0000
  C   C131      1.0  0.67467  0.72553  0.40253  1.0000
  C   C132      1.0  0.27447  0.94913  0.40253  1.0000
  C   C133      1.0  0.71753  0.65867  0.73587  1.0000
  C   C134      1.0  0.34133  0.05887  0.73587  1.0000
  C   C135      1.0  0.94113  0.28247  0.73587  1.0000
  C   C136      1.0  0.61580  0.00800  0.93080  1.0000
  C   C137      1.0  0.99200  0.60780  0.93080  1.0000
  C   C138      1.0  0.39220  0.38420  0.93080  1.0000
  C   C139      1.0  0.94913  0.67467  0.59747  1.0000
  C   C140      1.0  0.32533  0.27447  0.59747  1.0000
  C   C141      1.0  0.72553  0.05087  0.59747  1.0000
  C   C142      1.0  0.28247  0.34133  0.26413  1.0000
  C   C143      1.0  0.65867  0.94113  0.26413  1.0000
  C   C144      1.0  0.05887  0.71753  0.26413  1.0000
  H   H145      1.0  0.40240  0.96780  0.10110  1.0000
  H   H146      1.0  0.03220  0.43460  0.10110  1.0000
  H   H147      1.0  0.56540  0.59760  0.10110  1.0000
  H   H148      1.0  0.06907  0.30113  0.43443  1.0000
  H   H149      1.0  0.69887  0.76793  0.43443  1.0000
  H   H150      1.0  0.23207  0.93093  0.43443  1.0000
  H   H151      1.0  0.73573  0.63447  0.76777  1.0000
  H   H152      1.0  0.36553  0.10127  0.76777  1.0000
  H   H153      1.0  0.89873  0.26427  0.76777  1.0000
  H   H154      1.0  0.59760  0.03220  0.89890  1.0000
  H   H155      1.0  0.96780  0.56540  0.89890  1.0000
  H   H156      1.0  0.43460  0.40240  0.89890  1.0000
  H   H157      1.0  0.93093  0.69887  0.56557  1.0000
  H   H158      1.0  0.30113  0.23207  0.56557  1.0000
  H   H159      1.0  0.76793  0.06907  0.56557  1.0000
  H   H160      1.0  0.26427  0.36553  0.23223  1.0000
  H   H161      1.0  0.63447  0.89873  0.23223  1.0000
  H   H162      1.0  0.10127  0.73573  0.23223  1.0000
  C   C145      1.0  0.42550  0.06160  0.05000  1.0000
  C   C146      1.0  0.93840  0.36390  0.05000  1.0000
  C   C147      1.0  0.63610  0.57450  0.05000  1.0000
  C   C148      1.0  0.09217  0.39493  0.38333  1.0000
  C   C149      1.0  0.60507  0.69723  0.38333  1.0000
  C   C150      1.0  0.30277  0.90783  0.38333  1.0000
  C   C151      1.0  0.75883  0.72827  0.71667  1.0000
  C   C152      1.0  0.27173  0.03057  0.71667  1.0000
  C   C153      1.0  0.96943  0.24117  0.71667  1.0000
  C   C154      1.0  0.57450  0.93840  0.95000  1.0000
  C   C155      1.0  0.06160  0.63610  0.95000  1.0000
  C   C156      1.0  0.36390  0.42550  0.95000  1.0000
  C   C157      1.0  0.90783  0.60507  0.61667  1.0000
  C   C158      1.0  0.39493  0.30277  0.61667  1.0000
  C   C159      1.0  0.69723  0.09217  0.61667  1.0000
  C   C160      1.0  0.24117  0.27173  0.28333  1.0000
  C   C161      1.0  0.72827  0.96943  0.28333  1.0000
  C   C162      1.0  0.03057  0.75883  0.28333  1.0000
  H   H163      1.0  0.47130  0.08270  0.06960  1.0000
  H   H164      1.0  0.91730  0.38860  0.06960  1.0000
  H   H165      1.0  0.61140  0.52870  0.06960  1.0000
  H   H166      1.0  0.13797  0.41603  0.40293  1.0000
  H   H167      1.0  0.58397  0.72193  0.40293  1.0000
  H   H168      1.0  0.27807  0.86203  0.40293  1.0000
  H   H169      1.0  0.80463  0.74937  0.73627  1.0000
  H   H170      1.0  0.25063  0.05527  0.73627  1.0000
  H   H171      1.0  0.94473  0.19537  0.73627  1.0000
  H   H172      1.0  0.52870  0.91730  0.93040  1.0000
  H   H173      1.0  0.08270  0.61140  0.93040  1.0000
  H   H174      1.0  0.38860  0.47130  0.93040  1.0000
  H   H175      1.0  0.86203  0.58397  0.59707  1.0000
  H   H176      1.0  0.41603  0.27807  0.59707  1.0000
  H   H177      1.0  0.72193  0.13797  0.59707  1.0000
  H   H178      1.0  0.19537  0.25063  0.26373  1.0000
  H   H179      1.0  0.74937  0.94473  0.26373  1.0000
  H   H180      1.0  0.05527  0.80463  0.26373  1.0000
