data_image0
_chemical_formula_structural       Sn8N8O32C8H8C16H8C16H8C32H8C8H8C8H8C8H8C8H8C16H8C8H8C8H8C8H8C8H8C16H8C8H8C8H8C8H8C8H8
_chemical_formula_sum              "Sn8 N8 O32 C200 H144"
_cell_length_a       16.527
_cell_length_b       17.889
_cell_length_c       19.911
_cell_angle_alpha    90
_cell_angle_beta     90
_cell_angle_gamma    90

_space_group_name_H-M_alt    "P 1"
_space_group_IT_number       1

loop_
  _space_group_symop_operation_xyz
  'x, y, z'

loop_
  _atom_site_type_symbol
  _atom_site_label
  _atom_site_symmetry_multiplicity
  _atom_site_fract_x
  _atom_site_fract_y
  _atom_site_fract_z
  _atom_site_occupancy
  Sn  Sn1       1.0  0.07864  0.22922  0.63394  1.0000
  Sn  Sn2       1.0  0.42136  0.77078  0.13394  1.0000
  Sn  Sn3       1.0  0.92136  0.72922  0.86606  1.0000
  Sn  Sn4       1.0  0.57864  0.27078  0.36606  1.0000
  Sn  Sn5       1.0  0.92136  0.77078  0.36606  1.0000
  Sn  Sn6       1.0  0.57864  0.22922  0.86606  1.0000
  Sn  Sn7       1.0  0.07864  0.27078  0.13394  1.0000
  Sn  Sn8       1.0  0.42136  0.72922  0.63394  1.0000
  N   N1        1.0  0.08470  0.01060  0.92420  1.0000
  N   N2        1.0  0.41530  0.98940  0.42420  1.0000
  N   N3        1.0  0.91530  0.51060  0.57580  1.0000
  N   N4        1.0  0.58470  0.48940  0.07580  1.0000
  N   N5        1.0  0.91530  0.98940  0.07580  1.0000
  N   N6        1.0  0.58470  0.01060  0.57580  1.0000
  N   N7        1.0  0.08470  0.48940  0.42420  1.0000
  N   N8        1.0  0.41530  0.51060  0.92420  1.0000
  O   O1        1.0  0.07500  0.16760  0.73134  1.0000
  O   O2        1.0  0.42500  0.83240  0.23134  1.0000
  O   O3        1.0  0.92500  0.66760  0.76866  1.0000
  O   O4        1.0  0.57500  0.33240  0.26866  1.0000
  O   O5        1.0  0.92500  0.83240  0.26866  1.0000
  O   O6        1.0  0.57500  0.16760  0.76866  1.0000
  O   O7        1.0  0.07500  0.33240  0.23134  1.0000
  O   O8        1.0  0.42500  0.66760  0.73134  1.0000
  O   O9        1.0  0.08210  0.04410  0.71630  1.0000
  O   O10       1.0  0.41790  0.95590  0.21630  1.0000
  O   O11       1.0  0.91790  0.54410  0.78370  1.0000
  O   O12       1.0  0.58210  0.45590  0.28370  1.0000
  O   O13       1.0  0.91790  0.95590  0.28370  1.0000
  O   O14       1.0  0.58210  0.04410  0.78370  1.0000
  O   O15       1.0  0.08210  0.45590  0.21630  1.0000
  O   O16       1.0  0.41790  0.54410  0.71630  1.0000
  O   O17       1.0  0.08120  0.19450  0.04770  1.0000
  O   O18       1.0  0.41880  0.80550  0.54770  1.0000
  O   O19       1.0  0.91880  0.69450  0.45230  1.0000
  O   O20       1.0  0.58120  0.30550  0.95230  1.0000
  O   O21       1.0  0.91880  0.80550  0.95230  1.0000
  O   O22       1.0  0.58120  0.19450  0.45230  1.0000
  O   O23       1.0  0.08120  0.30550  0.54770  1.0000
  O   O24       1.0  0.41880  0.69450  0.04770  1.0000
  O   O25       1.0  0.04510  0.27020  0.96420  1.0000
  O   O26       1.0  0.45490  0.72980  0.46420  1.0000
  O   O27       1.0  0.95490  0.77020  0.53580  1.0000
  O   O28       1.0  0.54510  0.22980  0.03580  1.0000
  O   O29       1.0  0.95490  0.72980  0.03580  1.0000
  O   O30       1.0  0.54510  0.27020  0.53580  1.0000
  O   O31       1.0  0.04510  0.22980  0.46420  1.0000
  O   O32       1.0  0.45490  0.77020  0.96420  1.0000
  C   C1        1.0  0.08460  0.02280  0.85750  1.0000
  C   C2        1.0  0.41540  0.97720  0.35750  1.0000
  C   C3        1.0  0.91540  0.52280  0.64250  1.0000
  C   C4        1.0  0.58460  0.47720  0.14250  1.0000
  C   C5        1.0  0.91540  0.97720  0.14250  1.0000
  C   C6        1.0  0.58460  0.02280  0.64250  1.0000
  C   C7        1.0  0.08460  0.47720  0.35750  1.0000
  C   C8        1.0  0.41540  0.52280  0.85750  1.0000
  H   H1        1.0  0.09010  0.98150  0.82950  1.0000
  H   H2        1.0  0.40990  0.01850  0.32950  1.0000
  H   H3        1.0  0.90990  0.48150  0.67050  1.0000
  H   H4        1.0  0.59010  0.51850  0.17050  1.0000
  H   H5        1.0  0.90990  0.01850  0.17050  1.0000
  H   H6        1.0  0.59010  0.98150  0.67050  1.0000
  H   H7        1.0  0.09010  0.51850  0.32950  1.0000
  H   H8        1.0  0.40990  0.48150  0.82950  1.0000
  C   C9        1.0  0.07700  0.09190  0.82770  1.0000
  C   C10       1.0  0.42300  0.90810  0.32770  1.0000
  C   C11       1.0  0.92300  0.59190  0.67230  1.0000
  C   C12       1.0  0.57700  0.40810  0.17230  1.0000
  C   C13       1.0  0.92300  0.90810  0.17230  1.0000
  C   C14       1.0  0.57700  0.09190  0.67230  1.0000
  C   C15       1.0  0.07700  0.40810  0.32770  1.0000
  C   C16       1.0  0.42300  0.59190  0.82770  1.0000
  C   C17       1.0  0.06870  0.15280  0.86960  1.0000
  C   C18       1.0  0.43130  0.84720  0.36960  1.0000
  C   C19       1.0  0.93130  0.65280  0.63040  1.0000
  C   C20       1.0  0.56870  0.34720  0.13040  1.0000
  C   C21       1.0  0.93130  0.84720  0.13040  1.0000
  C   C22       1.0  0.56870  0.15280  0.63040  1.0000
  C   C23       1.0  0.06870  0.34720  0.36960  1.0000
  C   C24       1.0  0.43130  0.65280  0.86960  1.0000
  H   H9        1.0  0.06200  0.20030  0.85160  1.0000
  H   H10       1.0  0.43800  0.79970  0.35160  1.0000
  H   H11       1.0  0.93800  0.70030  0.64840  1.0000
  H   H12       1.0  0.56200  0.29970  0.14840  1.0000
  H   H13       1.0  0.93800  0.79970  0.14840  1.0000
  H   H14       1.0  0.56200  0.20030  0.64840  1.0000
  H   H15       1.0  0.06200  0.29970  0.35160  1.0000
  H   H16       1.0  0.43800  0.70030  0.85160  1.0000
  C   C25       1.0  0.07040  0.14320  0.93890  1.0000
  C   C26       1.0  0.42960  0.85680  0.43890  1.0000
  C   C27       1.0  0.92960  0.64320  0.56110  1.0000
  C   C28       1.0  0.57040  0.35680  0.06110  1.0000
  C   C29       1.0  0.92960  0.85680  0.06110  1.0000
  C   C30       1.0  0.57040  0.14320  0.56110  1.0000
  C   C31       1.0  0.07040  0.35680  0.43890  1.0000
  C   C32       1.0  0.42960  0.64320  0.93890  1.0000
  C   C33       1.0  0.07680  0.07160  0.96330  1.0000
  C   C34       1.0  0.42320  0.92840  0.46330  1.0000
  C   C35       1.0  0.92320  0.57160  0.53670  1.0000
  C   C36       1.0  0.57680  0.42840  0.03670  1.0000
  C   C37       1.0  0.92320  0.92840  0.03670  1.0000
  C   C38       1.0  0.57680  0.07160  0.53670  1.0000
  C   C39       1.0  0.07680  0.42840  0.46330  1.0000
  C   C40       1.0  0.42320  0.57160  0.96330  1.0000
  H   H17       1.0  0.07570  0.06490  0.00960  1.0000
  H   H18       1.0  0.42430  0.93510  0.50960  1.0000
  H   H19       1.0  0.92430  0.56490  0.49040  1.0000
  H   H20       1.0  0.57570  0.43510  0.99040  1.0000
  H   H21       1.0  0.92430  0.93510  0.99040  1.0000
  H   H22       1.0  0.57570  0.06490  0.49040  1.0000
  H   H23       1.0  0.07570  0.43510  0.50960  1.0000
  H   H24       1.0  0.42430  0.56490  0.00960  1.0000
  C   C41       1.0  0.07810  0.10060  0.75140  1.0000
  C   C42       1.0  0.42190  0.89940  0.25140  1.0000
  C   C43       1.0  0.92190  0.60060  0.74860  1.0000
  C   C44       1.0  0.57810  0.39940  0.24860  1.0000
  C   C45       1.0  0.92190  0.89940  0.24860  1.0000
  C   C46       1.0  0.57810  0.10060  0.74860  1.0000
  C   C47       1.0  0.07810  0.39940  0.25140  1.0000
  C   C48       1.0  0.42190  0.60060  0.75140  1.0000
  C   C49       1.0  0.06440  0.20950  0.98550  1.0000
  C   C50       1.0  0.43560  0.79050  0.48550  1.0000
  C   C51       1.0  0.93560  0.70950  0.51450  1.0000
  C   C52       1.0  0.56440  0.29050  0.01450  1.0000
  C   C53       1.0  0.93560  0.79050  0.01450  1.0000
  C   C54       1.0  0.56440  0.20950  0.51450  1.0000
  C   C55       1.0  0.06440  0.29050  0.48550  1.0000
  C   C56       1.0  0.43560  0.70950  0.98550  1.0000
  C   C57       1.0  0.11560  0.32200  0.69490  1.0000
  C   C58       1.0  0.38440  0.67800  0.19490  1.0000
  C   C59       1.0  0.88440  0.82200  0.80510  1.0000
  C   C60       1.0  0.61560  0.17800  0.30510  1.0000
  C   C61       1.0  0.88440  0.67800  0.30510  1.0000
  C   C62       1.0  0.61560  0.32200  0.80510  1.0000
  C   C63       1.0  0.11560  0.17800  0.19490  1.0000
  C   C64       1.0  0.38440  0.82200  0.69490  1.0000
  C   C65       1.0  0.09370  0.39470  0.67680  1.0000
  C   C66       1.0  0.40630  0.60530  0.17680  1.0000
  C   C67       1.0  0.90630  0.89470  0.82320  1.0000
  C   C68       1.0  0.59370  0.10530  0.32320  1.0000
  C   C69       1.0  0.90630  0.60530  0.32320  1.0000
  C   C70       1.0  0.59370  0.39470  0.82320  1.0000
  C   C71       1.0  0.09370  0.10530  0.17680  1.0000
  C   C72       1.0  0.40630  0.89470  0.67680  1.0000
  H   H25       1.0  0.06110  0.40260  0.63940  1.0000
  H   H26       1.0  0.43890  0.59740  0.13940  1.0000
  H   H27       1.0  0.93890  0.90260  0.86060  1.0000
  H   H28       1.0  0.56110  0.09740  0.36060  1.0000
  H   H29       1.0  0.93890  0.59740  0.36060  1.0000
  H   H30       1.0  0.56110  0.40260  0.86060  1.0000
  H   H31       1.0  0.06110  0.09740  0.13940  1.0000
  H   H32       1.0  0.43890  0.90260  0.63940  1.0000
  C   C73       1.0  0.12020  0.45520  0.71450  1.0000
  C   C74       1.0  0.37980  0.54480  0.21450  1.0000
  C   C75       1.0  0.87980  0.95520  0.78550  1.0000
  C   C76       1.0  0.62020  0.04480  0.28550  1.0000
  C   C77       1.0  0.87980  0.54480  0.28550  1.0000
  C   C78       1.0  0.62020  0.45520  0.78550  1.0000
  C   C79       1.0  0.12020  0.04480  0.21450  1.0000
  C   C80       1.0  0.37980  0.95520  0.71450  1.0000
  H   H33       1.0  0.10480  0.50340  0.70270  1.0000
  H   H34       1.0  0.39520  0.49660  0.20270  1.0000
  H   H35       1.0  0.89520  0.00340  0.79730  1.0000
  H   H36       1.0  0.60480  0.99660  0.29730  1.0000
  H   H37       1.0  0.89520  0.49660  0.29730  1.0000
  H   H38       1.0  0.60480  0.50340  0.79730  1.0000
  H   H39       1.0  0.10480  0.99660  0.20270  1.0000
  H   H40       1.0  0.39520  0.00340  0.70270  1.0000
  C   C81       1.0  0.16820  0.44410  0.76790  1.0000
  C   C82       1.0  0.33180  0.55590  0.26790  1.0000
  C   C83       1.0  0.83180  0.94410  0.73210  1.0000
  C   C84       1.0  0.66820  0.05590  0.23210  1.0000
  C   C85       1.0  0.83180  0.55590  0.23210  1.0000
  C   C86       1.0  0.66820  0.44410  0.73210  1.0000
  C   C87       1.0  0.16820  0.05590  0.26790  1.0000
  C   C88       1.0  0.33180  0.94410  0.76790  1.0000
  H   H41       1.0  0.18700  0.48510  0.79190  1.0000
  H   H42       1.0  0.31300  0.51490  0.29190  1.0000
  H   H43       1.0  0.81300  0.98510  0.70810  1.0000
  H   H44       1.0  0.68700  0.01490  0.20810  1.0000
  H   H45       1.0  0.81300  0.51490  0.20810  1.0000
  H   H46       1.0  0.68700  0.48510  0.70810  1.0000
  H   H47       1.0  0.18700  0.01490  0.29190  1.0000
  H   H48       1.0  0.31300  0.98510  0.79190  1.0000
  C   C89       1.0  0.19000  0.37410  0.78780  1.0000
  C   C90       1.0  0.31000  0.62590  0.28780  1.0000
  C   C91       1.0  0.81000  0.87410  0.71220  1.0000
  C   C92       1.0  0.69000  0.12590  0.21220  1.0000
  C   C93       1.0  0.81000  0.62590  0.21220  1.0000
  C   C94       1.0  0.69000  0.37410  0.71220  1.0000
  C   C95       1.0  0.19000  0.12590  0.28780  1.0000
  C   C96       1.0  0.31000  0.87410  0.78780  1.0000
  H   H49       1.0  0.22270  0.36750  0.82530  1.0000
  H   H50       1.0  0.27730  0.63250  0.32530  1.0000
  H   H51       1.0  0.77730  0.86750  0.67470  1.0000
  H   H52       1.0  0.72270  0.13250  0.17470  1.0000
  H   H53       1.0  0.77730  0.63250  0.17470  1.0000
  H   H54       1.0  0.72270  0.36750  0.67470  1.0000
  H   H55       1.0  0.22270  0.13250  0.32530  1.0000
  H   H56       1.0  0.27730  0.86750  0.82530  1.0000
  C   C97       1.0  0.16310  0.31290  0.75160  1.0000
  C   C98       1.0  0.33690  0.68710  0.25160  1.0000
  C   C99       1.0  0.83690  0.81290  0.74840  1.0000
  C   C100      1.0  0.66310  0.18710  0.24840  1.0000
  C   C101      1.0  0.83690  0.68710  0.24840  1.0000
  C   C102      1.0  0.66310  0.31290  0.74840  1.0000
  C   C103      1.0  0.16310  0.18710  0.25160  1.0000
  C   C104      1.0  0.33690  0.81290  0.75160  1.0000
  H   H57       1.0  0.17700  0.26500  0.76560  1.0000
  H   H58       1.0  0.32300  0.73500  0.26560  1.0000
  H   H59       1.0  0.82300  0.76500  0.73440  1.0000
  H   H60       1.0  0.67700  0.23500  0.23440  1.0000
  H   H61       1.0  0.82300  0.73500  0.23440  1.0000
  H   H62       1.0  0.67700  0.26500  0.73440  1.0000
  H   H63       1.0  0.17700  0.23500  0.26560  1.0000
  H   H64       1.0  0.32300  0.76500  0.76560  1.0000
  C   C105      1.0  0.95160  0.21040  0.62270  1.0000
  C   C106      1.0  0.54840  0.78960  0.12270  1.0000
  C   C107      1.0  0.04840  0.71040  0.87730  1.0000
  C   C108      1.0  0.45160  0.28960  0.37730  1.0000
  C   C109      1.0  0.04840  0.78960  0.37730  1.0000
  C   C110      1.0  0.45160  0.21040  0.87730  1.0000
  C   C111      1.0  0.95160  0.28960  0.12270  1.0000
  C   C112      1.0  0.54840  0.71040  0.62270  1.0000
  C   C113      1.0  0.91130  0.15420  0.65320  1.0000
  C   C114      1.0  0.58870  0.84580  0.15320  1.0000
  C   C115      1.0  0.08870  0.65420  0.84680  1.0000
  C   C116      1.0  0.41130  0.34580  0.34680  1.0000
  C   C117      1.0  0.08870  0.84580  0.34680  1.0000
  C   C118      1.0  0.41130  0.15420  0.84680  1.0000
  C   C119      1.0  0.91130  0.34580  0.15320  1.0000
  C   C120      1.0  0.58870  0.65420  0.65320  1.0000
  H   H65       1.0  0.94010  0.11890  0.67760  1.0000
  H   H66       1.0  0.55990  0.88110  0.17760  1.0000
  H   H67       1.0  0.05990  0.61890  0.82240  1.0000
  H   H68       1.0  0.44010  0.38110  0.32240  1.0000
  H   H69       1.0  0.05990  0.88110  0.32240  1.0000
  H   H70       1.0  0.44010  0.11890  0.82240  1.0000
  H   H71       1.0  0.94010  0.38110  0.17760  1.0000
  H   H72       1.0  0.55990  0.61890  0.67760  1.0000
  C   C121      1.0  0.82700  0.14790  0.64880  1.0000
  C   C122      1.0  0.67300  0.85210  0.14880  1.0000
  C   C123      1.0  0.17300  0.64790  0.85120  1.0000
  C   C124      1.0  0.32700  0.35210  0.35120  1.0000
  C   C125      1.0  0.17300  0.85210  0.35120  1.0000
  C   C126      1.0  0.32700  0.14790  0.85120  1.0000
  C   C127      1.0  0.82700  0.35210  0.14880  1.0000
  C   C128      1.0  0.67300  0.64790  0.64880  1.0000
  H   H73       1.0  0.80140  0.10760  0.66930  1.0000
  H   H74       1.0  0.69860  0.89240  0.16930  1.0000
  H   H75       1.0  0.19860  0.60760  0.83070  1.0000
  H   H76       1.0  0.30140  0.39240  0.33070  1.0000
  H   H77       1.0  0.19860  0.89240  0.33070  1.0000
  H   H78       1.0  0.30140  0.10760  0.83070  1.0000
  H   H79       1.0  0.80140  0.39240  0.16930  1.0000
  H   H80       1.0  0.69860  0.60760  0.66930  1.0000
  C   C129      1.0  0.78190  0.19910  0.61550  1.0000
  C   C130      1.0  0.71810  0.80090  0.11550  1.0000
  C   C131      1.0  0.21810  0.69910  0.88450  1.0000
  C   C132      1.0  0.28190  0.30090  0.38450  1.0000
  C   C133      1.0  0.21810  0.80090  0.38450  1.0000
  C   C134      1.0  0.28190  0.19910  0.88450  1.0000
  C   C135      1.0  0.78190  0.30090  0.11550  1.0000
  C   C136      1.0  0.71810  0.69910  0.61550  1.0000
  H   H81       1.0  0.72570  0.19600  0.61450  1.0000
  H   H82       1.0  0.77430  0.80400  0.11450  1.0000
  H   H83       1.0  0.27430  0.69600  0.88550  1.0000
  H   H84       1.0  0.22570  0.30400  0.38550  1.0000
  H   H85       1.0  0.27430  0.80400  0.38550  1.0000
  H   H86       1.0  0.22570  0.19600  0.88550  1.0000
  H   H87       1.0  0.72570  0.30400  0.11450  1.0000
  H   H88       1.0  0.77430  0.69600  0.61450  1.0000
  C   C137      1.0  0.82050  0.25300  0.58460  1.0000
  C   C138      1.0  0.67950  0.74700  0.08460  1.0000
  C   C139      1.0  0.17950  0.75300  0.91540  1.0000
  C   C140      1.0  0.32050  0.24700  0.41540  1.0000
  C   C141      1.0  0.17950  0.74700  0.41540  1.0000
  C   C142      1.0  0.32050  0.25300  0.91540  1.0000
  C   C143      1.0  0.82050  0.24700  0.08460  1.0000
  C   C144      1.0  0.67950  0.75300  0.58460  1.0000
  H   H89       1.0  0.79080  0.28710  0.55930  1.0000
  H   H90       1.0  0.70920  0.71290  0.05930  1.0000
  H   H91       1.0  0.20920  0.78710  0.94070  1.0000
  H   H92       1.0  0.29080  0.21290  0.44070  1.0000
  H   H93       1.0  0.20920  0.71290  0.44070  1.0000
  H   H94       1.0  0.29080  0.28710  0.94070  1.0000
  H   H95       1.0  0.79080  0.21290  0.05930  1.0000
  H   H96       1.0  0.70920  0.78710  0.55930  1.0000
  C   C145      1.0  0.90420  0.26160  0.58810  1.0000
  C   C146      1.0  0.59580  0.73840  0.08810  1.0000
  C   C147      1.0  0.09580  0.76160  0.91190  1.0000
  C   C148      1.0  0.40420  0.23840  0.41190  1.0000
  C   C149      1.0  0.09580  0.73840  0.41190  1.0000
  C   C150      1.0  0.40420  0.26160  0.91190  1.0000
  C   C151      1.0  0.90420  0.23840  0.08810  1.0000
  C   C152      1.0  0.59580  0.76160  0.58810  1.0000
  H   H97       1.0  0.92870  0.30210  0.56690  1.0000
  H   H98       1.0  0.57130  0.69790  0.06690  1.0000
  H   H99       1.0  0.07130  0.80210  0.93310  1.0000
  H   H100      1.0  0.42870  0.19790  0.43310  1.0000
  H   H101      1.0  0.07130  0.69790  0.43310  1.0000
  H   H102      1.0  0.42870  0.30210  0.93310  1.0000
  H   H103      1.0  0.92870  0.19790  0.06690  1.0000
  H   H104      1.0  0.57130  0.80210  0.56690  1.0000
  C   C153      1.0  0.17940  0.16530  0.60010  1.0000
  C   C154      1.0  0.32060  0.83470  0.10010  1.0000
  C   C155      1.0  0.82060  0.66530  0.89990  1.0000
  C   C156      1.0  0.67940  0.33470  0.39990  1.0000
  C   C157      1.0  0.82060  0.83470  0.39990  1.0000
  C   C158      1.0  0.67940  0.16530  0.89990  1.0000
  C   C159      1.0  0.17940  0.33470  0.10010  1.0000
  C   C160      1.0  0.32060  0.66530  0.60010  1.0000
  C   C161      1.0  0.18290  0.12810  0.53800  1.0000
  C   C162      1.0  0.31710  0.87190  0.03800  1.0000
  C   C163      1.0  0.81710  0.62810  0.96200  1.0000
  C   C164      1.0  0.68290  0.37190  0.46200  1.0000
  C   C165      1.0  0.81710  0.87190  0.46200  1.0000
  C   C166      1.0  0.68290  0.12810  0.96200  1.0000
  C   C167      1.0  0.18290  0.37190  0.03800  1.0000
  C   C168      1.0  0.31710  0.62810  0.53800  1.0000
  H   H105      1.0  0.13810  0.12890  0.50980  1.0000
  H   H106      1.0  0.36190  0.87110  0.00980  1.0000
  H   H107      1.0  0.86190  0.62890  0.99020  1.0000
  H   H108      1.0  0.63810  0.37110  0.49020  1.0000
  H   H109      1.0  0.86190  0.87110  0.49020  1.0000
  H   H110      1.0  0.63810  0.12890  0.99020  1.0000
  H   H111      1.0  0.13810  0.37110  0.00980  1.0000
  H   H112      1.0  0.36190  0.62890  0.50980  1.0000
  C   C169      1.0  0.25160  0.09070  0.51810  1.0000
  C   C170      1.0  0.24840  0.90930  0.01810  1.0000
  C   C171      1.0  0.74840  0.59070  0.98190  1.0000
  C   C172      1.0  0.75160  0.40930  0.48190  1.0000
  C   C173      1.0  0.74840  0.90930  0.48190  1.0000
  C   C174      1.0  0.75160  0.09070  0.98190  1.0000
  C   C175      1.0  0.25160  0.40930  0.01810  1.0000
  C   C176      1.0  0.24840  0.59070  0.51810  1.0000
  H   H113      1.0  0.25190  0.06440  0.47770  1.0000
  H   H114      1.0  0.24810  0.93560  0.97770  1.0000
  H   H115      1.0  0.74810  0.56440  0.02230  1.0000
  H   H116      1.0  0.75190  0.43560  0.52230  1.0000
  H   H117      1.0  0.74810  0.93560  0.52230  1.0000
  H   H118      1.0  0.75190  0.06440  0.02230  1.0000
  H   H119      1.0  0.25190  0.43560  0.97770  1.0000
  H   H120      1.0  0.24810  0.56440  0.47770  1.0000
  C   C177      1.0  0.31820  0.09200  0.55690  1.0000
  C   C178      1.0  0.18180  0.90800  0.05690  1.0000
  C   C179      1.0  0.68180  0.59200  0.94310  1.0000
  C   C180      1.0  0.81820  0.40800  0.44310  1.0000
  C   C181      1.0  0.68180  0.90800  0.44310  1.0000
  C   C182      1.0  0.81820  0.09200  0.94310  1.0000
  C   C183      1.0  0.31820  0.40800  0.05690  1.0000
  C   C184      1.0  0.18180  0.59200  0.55690  1.0000
  H   H121      1.0  0.36510  0.06840  0.54190  1.0000
  H   H122      1.0  0.13490  0.93160  0.04190  1.0000
  H   H123      1.0  0.63490  0.56840  0.95810  1.0000
  H   H124      1.0  0.86510  0.43160  0.45810  1.0000
  H   H125      1.0  0.63490  0.93160  0.45810  1.0000
  H   H126      1.0  0.86510  0.06840  0.95810  1.0000
  H   H127      1.0  0.36510  0.43160  0.04190  1.0000
  H   H128      1.0  0.13490  0.56840  0.54190  1.0000
  C   C185      1.0  0.31860  0.12730  0.61820  1.0000
  C   C186      1.0  0.18140  0.87270  0.11820  1.0000
  C   C187      1.0  0.68140  0.62730  0.88180  1.0000
  C   C188      1.0  0.81860  0.37270  0.38180  1.0000
  C   C189      1.0  0.68140  0.87270  0.38180  1.0000
  C   C190      1.0  0.81860  0.12730  0.88180  1.0000
  C   C191      1.0  0.31860  0.37270  0.11820  1.0000
  C   C192      1.0  0.18140  0.62730  0.61820  1.0000
  H   H129      1.0  0.36490  0.12790  0.64470  1.0000
  H   H130      1.0  0.13510  0.87210  0.14470  1.0000
  H   H131      1.0  0.63510  0.62790  0.85530  1.0000
  H   H132      1.0  0.86490  0.37210  0.35530  1.0000
  H   H133      1.0  0.63510  0.87210  0.35530  1.0000
  H   H134      1.0  0.86490  0.12790  0.85530  1.0000
  H   H135      1.0  0.36490  0.37210  0.14470  1.0000
  H   H136      1.0  0.13510  0.62790  0.64470  1.0000
  C   C193      1.0  0.24880  0.16190  0.63940  1.0000
  C   C194      1.0  0.25120  0.83810  0.13940  1.0000
  C   C195      1.0  0.75120  0.66190  0.86060  1.0000
  C   C196      1.0  0.74880  0.33810  0.36060  1.0000
  C   C197      1.0  0.75120  0.83810  0.36060  1.0000
  C   C198      1.0  0.74880  0.16190  0.86060  1.0000
  C   C199      1.0  0.24880  0.33810  0.13940  1.0000
  C   C200      1.0  0.25120  0.66190  0.63940  1.0000
  H   H137      1.0  0.24800  0.18380  0.68180  1.0000
  H   H138      1.0  0.25200  0.81620  0.18180  1.0000
  H   H139      1.0  0.75200  0.68380  0.81820  1.0000
  H   H140      1.0  0.74800  0.31620  0.31820  1.0000
  H   H141      1.0  0.75200  0.81620  0.31820  1.0000
  H   H142      1.0  0.74800  0.18380  0.81820  1.0000
  H   H143      1.0  0.24800  0.31620  0.18180  1.0000
  H   H144      1.0  0.25200  0.68380  0.68180  1.0000
