data_image0
_chemical_formula_structural       Sn4N4O24C8H4C8H4C8H4C16H4C4H4C4H4C4H4C4H4C8H4C4H4C4H4C4H4C4H4C8H4C4H4C4H4C4H4C4H4
_chemical_formula_sum              "Sn4 N4 O24 C104 H72"
_cell_length_a       10.5179
_cell_length_b       16.3427
_cell_length_c       20.1897
_cell_angle_alpha    90
_cell_angle_beta     118.725
_cell_angle_gamma    90

_space_group_name_H-M_alt    "P 1"
_space_group_IT_number       1

loop_
  _space_group_symop_operation_xyz
  'x, y, z'

loop_
  _atom_site_type_symbol
  _atom_site_label
  _atom_site_symmetry_multiplicity
  _atom_site_fract_x
  _atom_site_fract_y
  _atom_site_fract_z
  _atom_site_occupancy
  Sn  Sn1       1.0  0.05564  0.73163  0.77945  1.0000
  Sn  Sn2       1.0  0.94436  0.23163  0.72055  1.0000
  Sn  Sn3       1.0  0.94436  0.26837  0.22055  1.0000
  Sn  Sn4       1.0  0.05564  0.76837  0.27945  1.0000
  N   N1        1.0  0.27650  0.48625  0.50180  1.0000
  N   N2        1.0  0.72350  0.98625  0.99820  1.0000
  N   N3        1.0  0.72350  0.51375  0.49820  1.0000
  N   N4        1.0  0.27650  0.01375  0.00180  1.0000
  O   O1        1.0  0.09350  0.63000  0.71742  1.0000
  O   O2        1.0  0.90650  0.13000  0.78258  1.0000
  O   O3        1.0  0.90650  0.37000  0.28258  1.0000
  O   O4        1.0  0.09350  0.87000  0.21742  1.0000
  O   O5        1.0  0.26760  0.68314  0.69759  1.0000
  O   O6        1.0  0.73240  0.18314  0.80241  1.0000
  O   O7        1.0  0.73240  0.31686  0.30241  1.0000
  O   O8        1.0  0.26760  0.81686  0.19759  1.0000
  O   O9        1.0  0.99490  0.33566  0.66867  1.0000
  O   O10       1.0  0.00510  0.83566  0.83133  1.0000
  O   O11       1.0  0.00510  0.66434  0.33133  1.0000
  O   O12       1.0  0.99490  0.16434  0.16867  1.0000
  O   O13       1.0  0.96000  0.29148  0.55623  1.0000
  O   O14       1.0  0.04000  0.79148  0.94377  1.0000
  O   O15       1.0  0.04000  0.70852  0.44377  1.0000
  O   O16       1.0  0.96000  0.20852  0.05623  1.0000
  O   O17       1.0  0.26290  0.42508  0.46552  1.0000
  O   O18       1.0  0.73710  0.92508  0.03448  1.0000
  O   O19       1.0  0.73710  0.57492  0.53448  1.0000
  O   O20       1.0  0.26290  0.07492  0.96552  1.0000
  O   O21       1.0  0.34170  0.54673  0.49970  1.0000
  O   O22       1.0  0.65830  0.04673  0.00030  1.0000
  O   O23       1.0  0.65830  0.45327  0.50030  1.0000
  O   O24       1.0  0.34170  0.95327  0.99970  1.0000
  C   C1        1.0  0.16610  0.55555  0.64237  1.0000
  C   C2        1.0  0.83390  0.05555  0.85763  1.0000
  C   C3        1.0  0.83390  0.44445  0.35763  1.0000
  C   C4        1.0  0.16610  0.94445  0.14237  1.0000
  C   C5        1.0  0.09260  0.48652  0.64586  1.0000
  C   C6        1.0  0.90740  0.98652  0.85414  1.0000
  C   C7        1.0  0.90740  0.51348  0.35414  1.0000
  C   C8        1.0  0.09260  0.01348  0.14586  1.0000
  H   H1        1.0  0.05240  0.48630  0.67810  1.0000
  H   H2        1.0  0.94760  0.98630  0.82190  1.0000
  H   H3        1.0  0.94760  0.51370  0.32190  1.0000
  H   H4        1.0  0.05240  0.01370  0.17810  1.0000
  C   C9        1.0  0.07780  0.41782  0.60228  1.0000
  C   C10       1.0  0.92220  0.91782  0.89772  1.0000
  C   C11       1.0  0.92220  0.58218  0.39772  1.0000
  C   C12       1.0  0.07780  0.08218  0.10228  1.0000
  C   C13       1.0  0.13640  0.41860  0.55363  1.0000
  C   C14       1.0  0.86360  0.91860  0.94637  1.0000
  C   C15       1.0  0.86360  0.58140  0.44637  1.0000
  C   C16       1.0  0.13640  0.08140  0.05363  1.0000
  H   H5        1.0  0.12560  0.37390  0.52280  1.0000
  H   H6        1.0  0.87440  0.87390  0.97720  1.0000
  H   H7        1.0  0.87440  0.62610  0.47720  1.0000
  H   H8        1.0  0.12560  0.12610  0.02280  1.0000
  C   C17       1.0  0.21110  0.48721  0.55216  1.0000
  C   C18       1.0  0.78890  0.98721  0.94784  1.0000
  C   C19       1.0  0.78890  0.51279  0.44784  1.0000
  C   C20       1.0  0.21110  0.01279  0.05216  1.0000
  C   C21       1.0  0.22840  0.55548  0.59522  1.0000
  C   C22       1.0  0.77160  0.05548  0.90478  1.0000
  C   C23       1.0  0.77160  0.44452  0.40478  1.0000
  C   C24       1.0  0.22840  0.94452  0.09522  1.0000
  H   H9        1.0  0.28030  0.60050  0.59300  1.0000
  H   H10       1.0  0.71970  0.10050  0.90700  1.0000
  H   H11       1.0  0.71970  0.39950  0.40700  1.0000
  H   H12       1.0  0.28030  0.89950  0.09300  1.0000
  C   C25       1.0  0.17920  0.62999  0.68935  1.0000
  C   C26       1.0  0.82080  0.12999  0.81065  1.0000
  C   C27       1.0  0.82080  0.37001  0.31065  1.0000
  C   C28       1.0  0.17920  0.87001  0.18935  1.0000
  C   C29       1.0  0.00280  0.34110  0.60712  1.0000
  C   C30       1.0  0.99720  0.84110  0.89288  1.0000
  C   C31       1.0  0.99720  0.65890  0.39288  1.0000
  C   C32       1.0  0.00280  0.15890  0.10712  1.0000
  C   C33       1.0  0.00250  0.81292  0.68629  1.0000
  C   C34       1.0  0.99750  0.31292  0.81371  1.0000
  C   C35       1.0  0.99750  0.18708  0.31371  1.0000
  C   C36       1.0  0.00250  0.68708  0.18629  1.0000
  C   C37       1.0  0.01180  0.89740  0.69550  1.0000
  C   C38       1.0  0.98820  0.39740  0.80450  1.0000
  C   C39       1.0  0.98820  0.10260  0.30450  1.0000
  C   C40       1.0  0.01180  0.60260  0.19550  1.0000
  H   H13       1.0  0.04610  0.91980  0.74340  1.0000
  H   H14       1.0  0.95390  0.41980  0.75660  1.0000
  H   H15       1.0  0.95390  0.08020  0.25660  1.0000
  H   H16       1.0  0.04610  0.58020  0.24340  1.0000
  C   C41       1.0  0.97010  0.94870  0.63340  1.0000
  C   C42       1.0  0.02990  0.44870  0.86660  1.0000
  C   C43       1.0  0.02990  0.05130  0.36660  1.0000
  C   C44       1.0  0.97010  0.55130  0.13340  1.0000
  H   H17       1.0  0.97610  0.00510  0.64020  1.0000
  H   H18       1.0  0.02390  0.50510  0.85980  1.0000
  H   H19       1.0  0.02390  0.99490  0.35980  1.0000
  H   H20       1.0  0.97610  0.49490  0.14020  1.0000
  C   C45       1.0  0.92040  0.91720  0.56240  1.0000
  C   C46       1.0  0.07960  0.41720  0.93760  1.0000
  C   C47       1.0  0.07960  0.08280  0.43760  1.0000
  C   C48       1.0  0.92040  0.58280  0.06240  1.0000
  H   H21       1.0  0.89250  0.95200  0.52120  1.0000
  H   H22       1.0  0.10750  0.45200  0.97880  1.0000
  H   H23       1.0  0.10750  0.04800  0.47880  1.0000
  H   H24       1.0  0.89250  0.54800  0.02120  1.0000
  C   C49       1.0  0.91200  0.83410  0.55230  1.0000
  C   C50       1.0  0.08800  0.33410  0.94770  1.0000
  C   C51       1.0  0.08800  0.16590  0.44770  1.0000
  C   C52       1.0  0.91200  0.66590  0.05230  1.0000
  H   H25       1.0  0.87940  0.81230  0.50420  1.0000
  H   H26       1.0  0.12060  0.31230  0.99580  1.0000
  H   H27       1.0  0.12060  0.18770  0.49580  1.0000
  H   H28       1.0  0.87940  0.68770  0.00420  1.0000
  C   C53       1.0  0.95210  0.78280  0.61334  1.0000
  C   C54       1.0  0.04790  0.28280  0.88666  1.0000
  C   C55       1.0  0.04790  0.21720  0.38666  1.0000
  C   C56       1.0  0.95210  0.71720  0.11334  1.0000
  H   H29       1.0  0.94540  0.72650  0.60560  1.0000
  H   H30       1.0  0.05460  0.22650  0.89440  1.0000
  H   H31       1.0  0.05460  0.27350  0.39440  1.0000
  H   H32       1.0  0.94540  0.77350  0.10560  1.0000
  C   C57       1.0  0.87500  0.66169  0.76909  1.0000
  C   C58       1.0  0.12500  0.16169  0.73091  1.0000
  C   C59       1.0  0.12500  0.33831  0.23091  1.0000
  C   C60       1.0  0.87500  0.83831  0.26909  1.0000
  C   C61       1.0  0.84090  0.65417  0.82731  1.0000
  C   C62       1.0  0.15910  0.15417  0.67269  1.0000
  C   C63       1.0  0.15910  0.34583  0.17269  1.0000
  C   C64       1.0  0.84090  0.84583  0.32731  1.0000
  H   H33       1.0  0.90230  0.67620  0.87450  1.0000
  H   H34       1.0  0.09770  0.17620  0.62550  1.0000
  H   H35       1.0  0.09770  0.32380  0.12550  1.0000
  H   H36       1.0  0.90230  0.82380  0.37450  1.0000
  C   C65       1.0  0.71580  0.61400  0.81530  1.0000
  C   C66       1.0  0.28420  0.11400  0.68470  1.0000
  C   C67       1.0  0.28420  0.38600  0.18470  1.0000
  C   C68       1.0  0.71580  0.88600  0.31530  1.0000
  H   H37       1.0  0.69400  0.60970  0.85470  1.0000
  H   H38       1.0  0.30600  0.10970  0.64530  1.0000
  H   H39       1.0  0.30600  0.39030  0.14530  1.0000
  H   H40       1.0  0.69400  0.89030  0.35470  1.0000
  C   C69       1.0  0.62440  0.58070  0.74730  1.0000
  C   C70       1.0  0.37560  0.08070  0.75270  1.0000
  C   C71       1.0  0.37560  0.41930  0.25270  1.0000
  C   C72       1.0  0.62440  0.91930  0.24730  1.0000
  H   H41       1.0  0.53920  0.55540  0.73960  1.0000
  H   H42       1.0  0.46080  0.05540  0.76040  1.0000
  H   H43       1.0  0.46080  0.44460  0.26040  1.0000
  H   H44       1.0  0.53920  0.94460  0.23960  1.0000
  C   C73       1.0  0.65920  0.58480  0.68970  1.0000
  C   C74       1.0  0.34080  0.08480  0.81030  1.0000
  C   C75       1.0  0.34080  0.41520  0.31030  1.0000
  C   C76       1.0  0.65920  0.91520  0.18970  1.0000
  H   H45       1.0  0.59890  0.56060  0.64330  1.0000
  H   H46       1.0  0.40110  0.06060  0.85670  1.0000
  H   H47       1.0  0.40110  0.43940  0.35670  1.0000
  H   H48       1.0  0.59890  0.93940  0.14330  1.0000
  C   C77       1.0  0.78390  0.62490  0.70087  1.0000
  C   C78       1.0  0.21610  0.12490  0.79913  1.0000
  C   C79       1.0  0.21610  0.37510  0.29913  1.0000
  C   C80       1.0  0.78390  0.87510  0.20087  1.0000
  H   H49       1.0  0.80680  0.62710  0.66180  1.0000
  H   H50       1.0  0.19320  0.12710  0.83820  1.0000
  H   H51       1.0  0.19320  0.37290  0.33820  1.0000
  H   H52       1.0  0.80680  0.87290  0.16180  1.0000
  C   C81       1.0  0.26660  0.71507  0.87224  1.0000
  C   C82       1.0  0.73340  0.21507  0.62776  1.0000
  C   C83       1.0  0.73340  0.28493  0.12776  1.0000
  C   C84       1.0  0.26660  0.78493  0.37224  1.0000
  C   C85       1.0  0.33780  0.77920  0.92190  1.0000
  C   C86       1.0  0.66220  0.27920  0.57810  1.0000
  C   C87       1.0  0.66220  0.22080  0.07810  1.0000
  C   C88       1.0  0.33780  0.72080  0.42190  1.0000
  H   H53       1.0  0.29210  0.82960  0.91460  1.0000
  H   H54       1.0  0.70790  0.32960  0.58540  1.0000
  H   H55       1.0  0.70790  0.17040  0.08540  1.0000
  H   H56       1.0  0.29210  0.67040  0.41460  1.0000
  C   C89       1.0  0.47510  0.76870  0.98150  1.0000
  C   C90       1.0  0.52490  0.26870  0.51850  1.0000
  C   C91       1.0  0.52490  0.23130  0.01850  1.0000
  C   C92       1.0  0.47510  0.73130  0.48150  1.0000
  H   H57       1.0  0.52120  0.81220  0.01400  1.0000
  H   H58       1.0  0.47880  0.31220  0.48600  1.0000
  H   H59       1.0  0.47880  0.18780  0.98600  1.0000
  H   H60       1.0  0.52120  0.68780  0.51400  1.0000
  C   C93       1.0  0.54340  0.69650  0.99320  1.0000
  C   C94       1.0  0.45660  0.19650  0.50680  1.0000
  C   C95       1.0  0.45660  0.30350  0.00680  1.0000
  C   C96       1.0  0.54340  0.80350  0.49320  1.0000
  H   H61       1.0  0.63630  0.69030  0.03360  1.0000
  H   H62       1.0  0.36370  0.19030  0.46640  1.0000
  H   H63       1.0  0.36370  0.30970  0.96640  1.0000
  H   H64       1.0  0.63630  0.80970  0.53360  1.0000
  C   C97       1.0  0.47670  0.63200  0.94600  1.0000
  C   C98       1.0  0.52330  0.13200  0.55400  1.0000
  C   C99       1.0  0.52330  0.36800  0.05400  1.0000
  C   C100      1.0  0.47670  0.86800  0.44600  1.0000
  H   H65       1.0  0.52440  0.58200  0.95460  1.0000
  H   H66       1.0  0.47560  0.08200  0.54540  1.0000
  H   H67       1.0  0.47560  0.41800  0.04540  1.0000
  H   H68       1.0  0.52440  0.91800  0.45460  1.0000
  C   C101      1.0  0.33740  0.64060  0.88490  1.0000
  C   C102      1.0  0.66260  0.14060  0.61510  1.0000
  C   C103      1.0  0.66260  0.35940  0.11510  1.0000
  C   C104      1.0  0.33740  0.85940  0.38490  1.0000
  H   H69       1.0  0.29240  0.59650  0.85300  1.0000
  H   H70       1.0  0.70760  0.09650  0.64700  1.0000
  H   H71       1.0  0.70760  0.40350  0.14700  1.0000
  H   H72       1.0  0.29240  0.90350  0.35300  1.0000
