data_image0
_chemical_formula_structural       Sn4N4O16C4H4C8H4C8H4C12H12C4H12C4H12
_chemical_formula_sum              "Sn4 N4 O16 C40 H48"
_cell_length_a       7.7852
_cell_length_b       20.708
_cell_length_c       12.808
_cell_angle_alpha    90
_cell_angle_beta     98.905
_cell_angle_gamma    90

_space_group_name_H-M_alt    "P 1"
_space_group_IT_number       1

loop_
  _space_group_symop_operation_xyz
  'x, y, z'

loop_
  _atom_site_type_symbol
  _atom_site_label
  _atom_site_symmetry_multiplicity
  _atom_site_fract_x
  _atom_site_fract_y
  _atom_site_fract_z
  _atom_site_occupancy
  Sn  Sn1       1.0  0.23471  0.80612  0.23301  1.0000
  Sn  Sn2       1.0  0.26529  0.30612  0.26699  1.0000
  Sn  Sn3       1.0  0.76529  0.19388  0.76699  1.0000
  Sn  Sn4       1.0  0.73471  0.69388  0.73301  1.0000
  N   N1        1.0  0.22190  0.54531  0.56250  1.0000
  N   N2        1.0  0.27810  0.04531  0.93750  1.0000
  N   N3        1.0  0.77810  0.45469  0.43750  1.0000
  N   N4        1.0  0.72190  0.95469  0.06250  1.0000
  O   O1        1.0  0.25200  0.70543  0.29980  1.0000
  O   O2        1.0  0.24800  0.20543  0.20020  1.0000
  O   O3        1.0  0.74800  0.29457  0.70020  1.0000
  O   O4        1.0  0.75200  0.79457  0.79980  1.0000
  O   O5        1.0  0.23350  0.73566  0.46520  1.0000
  O   O6        1.0  0.26650  0.23566  0.03480  1.0000
  O   O7        1.0  0.76650  0.26434  0.53480  1.0000
  O   O8        1.0  0.73350  0.76434  0.96520  1.0000
  O   O9        1.0  0.27390  0.40068  0.35430  1.0000
  O   O10       1.0  0.22610  0.90068  0.14570  1.0000
  O   O11       1.0  0.72610  0.59932  0.64570  1.0000
  O   O12       1.0  0.77390  0.09932  0.85430  1.0000
  O   O13       1.0  0.32090  0.46800  0.22570  1.0000
  O   O14       1.0  0.17910  0.96800  0.27430  1.0000
  O   O15       1.0  0.67910  0.53200  0.77430  1.0000
  O   O16       1.0  0.82090  0.03200  0.72570  1.0000
  C   C1        1.0  0.22180  0.60610  0.52800  1.0000
  C   C2        1.0  0.27820  0.10610  0.97200  1.0000
  C   C3        1.0  0.77820  0.39390  0.47200  1.0000
  C   C4        1.0  0.72180  0.89390  0.02800  1.0000
  H   H1        1.0  0.20570  0.63880  0.57530  1.0000
  H   H2        1.0  0.29430  0.13880  0.92470  1.0000
  H   H3        1.0  0.79430  0.36120  0.42470  1.0000
  H   H4        1.0  0.70570  0.86120  0.07530  1.0000
  C   C5        1.0  0.24380  0.62395  0.42730  1.0000
  C   C6        1.0  0.25620  0.12395  0.07270  1.0000
  C   C7        1.0  0.75620  0.37605  0.57270  1.0000
  C   C8        1.0  0.74380  0.87605  0.92730  1.0000
  C   C9        1.0  0.26880  0.57499  0.35720  1.0000
  C   C10       1.0  0.23120  0.07499  0.14280  1.0000
  C   C11       1.0  0.73120  0.42501  0.64280  1.0000
  C   C12       1.0  0.76880  0.92501  0.85720  1.0000
  H   H5        1.0  0.28660  0.58490  0.28880  1.0000
  H   H6        1.0  0.21340  0.08490  0.21120  1.0000
  H   H7        1.0  0.71340  0.41510  0.71120  1.0000
  H   H8        1.0  0.78660  0.91510  0.78880  1.0000
  C   C13       1.0  0.26720  0.51144  0.38970  1.0000
  C   C14       1.0  0.23280  0.01144  0.11030  1.0000
  C   C15       1.0  0.73280  0.48856  0.61030  1.0000
  C   C16       1.0  0.76720  0.98856  0.88970  1.0000
  C   C17       1.0  0.24380  0.49950  0.49200  1.0000
  C   C18       1.0  0.25620  0.99950  0.00800  1.0000
  C   C19       1.0  0.75620  0.50050  0.50800  1.0000
  C   C20       1.0  0.74380  0.00050  0.99200  1.0000
  H   H9        1.0  0.24320  0.45660  0.51380  1.0000
  H   H10       1.0  0.25680  0.95660  0.98620  1.0000
  H   H11       1.0  0.75680  0.54340  0.48620  1.0000
  H   H12       1.0  0.74320  0.04340  0.01380  1.0000
  C   C21       1.0  0.24280  0.69446  0.39750  1.0000
  C   C22       1.0  0.25720  0.19446  0.10250  1.0000
  C   C23       1.0  0.75720  0.30554  0.60250  1.0000
  C   C24       1.0  0.74280  0.80554  0.89750  1.0000
  C   C25       1.0  0.29000  0.45613  0.31560  1.0000
  C   C26       1.0  0.21000  0.95613  0.18440  1.0000
  C   C27       1.0  0.71000  0.54387  0.68440  1.0000
  C   C28       1.0  0.79000  0.04387  0.81560  1.0000
  C   C29       1.0  0.24170  0.76440  0.08260  1.0000
  C   C30       1.0  0.25830  0.26440  0.41740  1.0000
  C   C31       1.0  0.75830  0.23560  0.91740  1.0000
  C   C32       1.0  0.74170  0.73560  0.58260  1.0000
  H   H13       1.0  0.12590  0.75320  0.05040  1.0000
  H   H14       1.0  0.37410  0.25320  0.44960  1.0000
  H   H15       1.0  0.87410  0.24680  0.94960  1.0000
  H   H16       1.0  0.62590  0.74680  0.55040  1.0000
  H   H17       1.0  0.31240  0.72620  0.09070  1.0000
  H   H18       1.0  0.18760  0.22620  0.40930  1.0000
  H   H19       1.0  0.68760  0.27380  0.90930  1.0000
  H   H20       1.0  0.81240  0.77380  0.59070  1.0000
  H   H21       1.0  0.29010  0.79480  0.03860  1.0000
  H   H22       1.0  0.20990  0.29480  0.46140  1.0000
  H   H23       1.0  0.70990  0.20520  0.96140  1.0000
  H   H24       1.0  0.79010  0.70520  0.53860  1.0000
  C   C33       1.0  0.47070  0.83570  0.32490  1.0000
  C   C34       1.0  0.02930  0.33570  0.17510  1.0000
  C   C35       1.0  0.52930  0.16430  0.67510  1.0000
  C   C36       1.0  0.97070  0.66430  0.82490  1.0000
  H   H25       1.0  0.56600  0.82470  0.28880  1.0000
  H   H26       1.0  0.93400  0.32470  0.21120  1.0000
  H   H27       1.0  0.43400  0.17530  0.71120  1.0000
  H   H28       1.0  0.06600  0.67530  0.78880  1.0000
  H   H29       1.0  0.48470  0.81430  0.39210  1.0000
  H   H30       1.0  0.01530  0.31430  0.10790  1.0000
  H   H31       1.0  0.51530  0.18570  0.60790  1.0000
  H   H32       1.0  0.98470  0.68570  0.89210  1.0000
  H   H33       1.0  0.46870  0.88160  0.33540  1.0000
  H   H34       1.0  0.03130  0.38160  0.16460  1.0000
  H   H35       1.0  0.53130  0.11840  0.66460  1.0000
  H   H36       1.0  0.96870  0.61840  0.83540  1.0000
  C   C37       1.0  0.98090  0.81770  0.26940  1.0000
  C   C38       1.0  0.51910  0.31770  0.23060  1.0000
  C   C39       1.0  0.01910  0.18230  0.73060  1.0000
  C   C40       1.0  0.48090  0.68230  0.76940  1.0000
  H   H37       1.0  0.89830  0.79980  0.21360  1.0000
  H   H38       1.0  0.60170  0.29980  0.28640  1.0000
  H   H39       1.0  0.10170  0.20020  0.78640  1.0000
  H   H40       1.0  0.39830  0.70020  0.71360  1.0000
  H   H41       1.0  0.95720  0.86290  0.27680  1.0000
  H   H42       1.0  0.54280  0.36290  0.22320  1.0000
  H   H43       1.0  0.04280  0.13710  0.72320  1.0000
  H   H44       1.0  0.45720  0.63710  0.77680  1.0000
  H   H45       1.0  0.97200  0.79580  0.33450  1.0000
  H   H46       1.0  0.52800  0.29580  0.16550  1.0000
  H   H47       1.0  0.02800  0.20420  0.66550  1.0000
  H   H48       1.0  0.47200  0.70420  0.83450  1.0000
