data_image0
_chemical_formula_structural       Mo16Cu2O48N4O4N8C4H4N4C4H8C4H4C4H4N4C8H4C4H4C8H8C4H4N4C4H4C4H4
_chemical_formula_sum              "Mo16 Cu2 O52 N24 C48 H48"
_cell_length_a       13.758
_cell_length_b       17.565
_cell_length_c       16.921
_cell_angle_alpha    90
_cell_angle_beta     100.07
_cell_angle_gamma    90

_space_group_name_H-M_alt    "P 1"
_space_group_IT_number       1

loop_
  _space_group_symop_operation_xyz
  'x, y, z'

loop_
  _atom_site_type_symbol
  _atom_site_label
  _atom_site_symmetry_multiplicity
  _atom_site_fract_x
  _atom_site_fract_y
  _atom_site_fract_z
  _atom_site_occupancy
  Mo  Mo1       1.0  0.86260  0.11948  0.96184  1.0000
  Mo  Mo2       1.0  0.13740  0.61948  0.53816  1.0000
  Mo  Mo3       1.0  0.13740  0.88052  0.03816  1.0000
  Mo  Mo4       1.0  0.86260  0.38052  0.46184  1.0000
  Mo  Mo5       1.0  0.77771  0.01241  0.09450  1.0000
  Mo  Mo6       1.0  0.22229  0.51241  0.40550  1.0000
  Mo  Mo7       1.0  0.22229  0.98759  0.90550  1.0000
  Mo  Mo8       1.0  0.77771  0.48759  0.59450  1.0000
  Mo  Mo9       1.0  0.88367  0.86826  0.01641  1.0000
  Mo  Mo10      1.0  0.11633  0.36826  0.48359  1.0000
  Mo  Mo11      1.0  0.11633  0.13174  0.98359  1.0000
  Mo  Mo12      1.0  0.88367  0.63174  0.51641  1.0000
  Mo  Mo13      1.0  0.96796  0.97930  0.89507  1.0000
  Mo  Mo14      1.0  0.03204  0.47930  0.60493  1.0000
  Mo  Mo15      1.0  0.03204  0.02070  0.10493  1.0000
  Mo  Mo16      1.0  0.96796  0.52070  0.39507  1.0000
  Cu  Cu1       1.0  0.50000  0.00000  0.00000  1.0000
  Cu  Cu2       1.0  0.50000  0.50000  0.50000  1.0000
  O   O1        1.0  0.78380  0.85950  0.94190  1.0000
  O   O2        1.0  0.21620  0.35950  0.55810  1.0000
  O   O3        1.0  0.21620  0.14050  0.05810  1.0000
  O   O4        1.0  0.78380  0.64050  0.44190  1.0000
  O   O5        1.0  0.74020  0.02920  0.18250  1.0000
  O   O6        1.0  0.25980  0.52920  0.31750  1.0000
  O   O7        1.0  0.25980  0.97080  0.81750  1.0000
  O   O8        1.0  0.74020  0.47080  0.68250  1.0000
  O   O9        1.0  0.89940  0.99714  0.99630  1.0000
  O   O10       1.0  0.10060  0.49714  0.50370  1.0000
  O   O11       1.0  0.10060  0.00286  0.00370  1.0000
  O   O12       1.0  0.89940  0.50286  0.49630  1.0000
  O   O13       1.0  0.82360  0.91020  0.10030  1.0000
  O   O14       1.0  0.17640  0.41020  0.39970  1.0000
  O   O15       1.0  0.17640  0.08980  0.89970  1.0000
  O   O16       1.0  0.82360  0.58980  0.60030  1.0000
  O   O17       1.0  0.06710  0.97190  0.84320  1.0000
  O   O18       1.0  0.93290  0.47190  0.65680  1.0000
  O   O19       1.0  0.93290  0.02810  0.15680  1.0000
  O   O20       1.0  0.06710  0.52810  0.34320  1.0000
  O   O21       1.0  0.96920  0.08911  0.90210  1.0000
  O   O22       1.0  0.03080  0.58911  0.59790  1.0000
  O   O23       1.0  0.03080  0.91089  0.09790  1.0000
  O   O24       1.0  0.96920  0.41089  0.40210  1.0000
  O   O25       1.0  0.98570  0.88073  0.94710  1.0000
  O   O26       1.0  0.01430  0.38073  0.55290  1.0000
  O   O27       1.0  0.01430  0.11927  0.05290  1.0000
  O   O28       1.0  0.98570  0.61927  0.44710  1.0000
  O   O29       1.0  0.76390  0.09700  0.89070  1.0000
  O   O30       1.0  0.23610  0.59700  0.60930  1.0000
  O   O31       1.0  0.23610  0.90300  0.10930  1.0000
  O   O32       1.0  0.76390  0.40300  0.39070  1.0000
  O   O33       1.0  0.80650  0.11118  0.05740  1.0000
  O   O34       1.0  0.19350  0.61118  0.44260  1.0000
  O   O35       1.0  0.19350  0.88882  0.94260  1.0000
  O   O36       1.0  0.80650  0.38882  0.55740  1.0000
  O   O37       1.0  0.86740  0.96370  0.82390  1.0000
  O   O38       1.0  0.13260  0.46370  0.67610  1.0000
  O   O39       1.0  0.13260  0.03630  0.17610  1.0000
  O   O40       1.0  0.86740  0.53630  0.32390  1.0000
  O   O41       1.0  0.87500  0.21490  0.95410  1.0000
  O   O42       1.0  0.12500  0.71490  0.54590  1.0000
  O   O43       1.0  0.12500  0.78510  0.04590  1.0000
  O   O44       1.0  0.87500  0.28510  0.45410  1.0000
  O   O45       1.0  0.66980  0.99670  0.02760  1.0000
  O   O46       1.0  0.33020  0.49670  0.47240  1.0000
  O   O47       1.0  0.33020  0.00330  0.97240  1.0000
  O   O48       1.0  0.66980  0.50330  0.52760  1.0000
  N   N1        1.0  0.51560  0.01040  0.88300  1.0000
  N   N2        1.0  0.48440  0.51040  0.61700  1.0000
  N   N3        1.0  0.48440  0.98960  0.11700  1.0000
  N   N4        1.0  0.51560  0.48960  0.38300  1.0000
  O   O49       1.0  0.90750  0.77930  0.05130  1.0000
  O   O50       1.0  0.09250  0.27930  0.44870  1.0000
  O   O51       1.0  0.09250  0.22070  0.94870  1.0000
  O   O52       1.0  0.90750  0.72070  0.55130  1.0000
  N   N5        1.0  0.58300  0.01800  0.77650  1.0000
  N   N6        1.0  0.41700  0.51800  0.72350  1.0000
  N   N7        1.0  0.41700  0.98200  0.22350  1.0000
  N   N8        1.0  0.58300  0.48200  0.27650  1.0000
  N   N9        1.0  0.49970  0.61480  0.49100  1.0000
  N   N10       1.0  0.50030  0.11480  0.00900  1.0000
  N   N11       1.0  0.50030  0.38520  0.50900  1.0000
  N   N12       1.0  0.49970  0.88520  0.99100  1.0000
  C   C1        1.0  0.49750  0.05690  0.75800  1.0000
  C   C2        1.0  0.50250  0.55690  0.74200  1.0000
  C   C3        1.0  0.50250  0.94310  0.24200  1.0000
  C   C4        1.0  0.49750  0.44310  0.25800  1.0000
  H   H1        1.0  0.47180  0.08250  0.70940  1.0000
  H   H2        1.0  0.52820  0.58250  0.79060  1.0000
  H   H3        1.0  0.52820  0.91750  0.29060  1.0000
  H   H4        1.0  0.47180  0.41750  0.20940  1.0000
  N   N13       1.0  0.54310  0.73080  0.47320  1.0000
  N   N14       1.0  0.45690  0.23080  0.02680  1.0000
  N   N15       1.0  0.45690  0.26920  0.52680  1.0000
  N   N16       1.0  0.54310  0.76920  0.97320  1.0000
  C   C5        1.0  0.65450  0.01630  0.72220  1.0000
  C   C6        1.0  0.34550  0.51630  0.77780  1.0000
  C   C7        1.0  0.34550  0.98370  0.27780  1.0000
  C   C8        1.0  0.65450  0.48370  0.22220  1.0000
  H   H5        1.0  0.72100  0.00850  0.75440  1.0000
  H   H6        1.0  0.27900  0.50850  0.74560  1.0000
  H   H7        1.0  0.27900  0.99150  0.24560  1.0000
  H   H8        1.0  0.72100  0.49150  0.25440  1.0000
  H   H9        1.0  0.65420  0.06660  0.69580  1.0000
  H   H10       1.0  0.34580  0.56660  0.80420  1.0000
  H   H11       1.0  0.34580  0.93340  0.30420  1.0000
  H   H12       1.0  0.65420  0.43340  0.19580  1.0000
  C   C9        1.0  0.44780  0.73490  0.47870  1.0000
  C   C10       1.0  0.55220  0.23490  0.02130  1.0000
  C   C11       1.0  0.55220  0.26510  0.52130  1.0000
  C   C12       1.0  0.44780  0.76510  0.97870  1.0000
  H   H13       1.0  0.40730  0.77900  0.47540  1.0000
  H   H14       1.0  0.59270  0.27900  0.02460  1.0000
  H   H15       1.0  0.59270  0.22100  0.52460  1.0000
  H   H16       1.0  0.40730  0.72100  0.97540  1.0000
  C   C13       1.0  0.57410  0.65930  0.48110  1.0000
  C   C14       1.0  0.42590  0.15930  0.01890  1.0000
  C   C15       1.0  0.42590  0.34070  0.51890  1.0000
  C   C16       1.0  0.57410  0.84070  0.98110  1.0000
  H   H17       1.0  0.63950  0.64260  0.47980  1.0000
  H   H18       1.0  0.36050  0.14260  0.02020  1.0000
  H   H19       1.0  0.36050  0.35740  0.52020  1.0000
  H   H20       1.0  0.63950  0.85740  0.97980  1.0000
  N   N17       1.0  0.45860  0.05110  0.82280  1.0000
  N   N18       1.0  0.54140  0.55110  0.67720  1.0000
  N   N19       1.0  0.54140  0.94890  0.17720  1.0000
  N   N20       1.0  0.45860  0.44890  0.32280  1.0000
  C   C17       1.0  0.63690  0.95620  0.65860  1.0000
  C   C18       1.0  0.36310  0.45620  0.84140  1.0000
  C   C19       1.0  0.36310  0.04380  0.34140  1.0000
  C   C20       1.0  0.63690  0.54380  0.15860  1.0000
  C   C21       1.0  0.54910  0.95200  0.60440  1.0000
  C   C22       1.0  0.45090  0.45200  0.89560  1.0000
  C   C23       1.0  0.45090  0.04800  0.39560  1.0000
  C   C24       1.0  0.54910  0.54800  0.10440  1.0000
  H   H21       1.0  0.49600  0.98470  0.61080  1.0000
  H   H22       1.0  0.50400  0.48470  0.88920  1.0000
  H   H23       1.0  0.50400  0.01530  0.38920  1.0000
  H   H24       1.0  0.49600  0.51530  0.11080  1.0000
  C   C25       1.0  0.59320  0.99160  0.85050  1.0000
  C   C26       1.0  0.40680  0.49160  0.64950  1.0000
  C   C27       1.0  0.40680  0.00840  0.14950  1.0000
  C   C28       1.0  0.59320  0.50840  0.35050  1.0000
  H   H25       1.0  0.64820  0.96310  0.87680  1.0000
  H   H26       1.0  0.35180  0.46310  0.62320  1.0000
  H   H27       1.0  0.35180  0.03690  0.12320  1.0000
  H   H28       1.0  0.64820  0.53690  0.37680  1.0000
  C   C29       1.0  0.61290  0.85200  0.53110  1.0000
  C   C30       1.0  0.38710  0.35200  0.96890  1.0000
  C   C31       1.0  0.38710  0.14800  0.46890  1.0000
  C   C32       1.0  0.61290  0.64800  0.03110  1.0000
  C   C33       1.0  0.60220  0.79850  0.46100  1.0000
  C   C34       1.0  0.39780  0.29850  0.03900  1.0000
  C   C35       1.0  0.39780  0.20150  0.53900  1.0000
  C   C36       1.0  0.60220  0.70150  0.96100  1.0000
  H   H29       1.0  0.57010  0.82550  0.41200  1.0000
  H   H30       1.0  0.42990  0.32550  0.08800  1.0000
  H   H31       1.0  0.42990  0.17450  0.58800  1.0000
  H   H32       1.0  0.57010  0.67450  0.91200  1.0000
  H   H33       1.0  0.66840  0.78200  0.45270  1.0000
  H   H34       1.0  0.33160  0.28200  0.04730  1.0000
  H   H35       1.0  0.33160  0.21800  0.54730  1.0000
  H   H36       1.0  0.66840  0.71800  0.95270  1.0000
  C   C37       1.0  0.70050  0.85430  0.58600  1.0000
  C   C38       1.0  0.29950  0.35430  0.91400  1.0000
  C   C39       1.0  0.29950  0.14570  0.41400  1.0000
  C   C40       1.0  0.70050  0.64570  0.08600  1.0000
  H   H37       1.0  0.75260  0.82030  0.58060  1.0000
  H   H38       1.0  0.24740  0.32030  0.91940  1.0000
  H   H39       1.0  0.24740  0.17970  0.41940  1.0000
  H   H40       1.0  0.75260  0.67970  0.08060  1.0000
  N   N21       1.0  0.42270  0.66410  0.48980  1.0000
  N   N22       1.0  0.57730  0.16410  0.01020  1.0000
  N   N23       1.0  0.57730  0.33590  0.51020  1.0000
  N   N24       1.0  0.42270  0.83590  0.98980  1.0000
  C   C41       1.0  0.53710  0.90110  0.54150  1.0000
  C   C42       1.0  0.46290  0.40110  0.95850  1.0000
  C   C43       1.0  0.46290  0.09890  0.45850  1.0000
  C   C44       1.0  0.53710  0.59890  0.04150  1.0000
  H   H41       1.0  0.47640  0.89960  0.50480  1.0000
  H   H42       1.0  0.52360  0.39960  0.99520  1.0000
  H   H43       1.0  0.52360  0.10040  0.49520  1.0000
  H   H44       1.0  0.47640  0.60040  0.00480  1.0000
  C   C45       1.0  0.71180  0.90620  0.64890  1.0000
  C   C46       1.0  0.28820  0.40620  0.85110  1.0000
  C   C47       1.0  0.28820  0.09380  0.35110  1.0000
  C   C48       1.0  0.71180  0.59380  0.14890  1.0000
  H   H45       1.0  0.77220  0.90750  0.68600  1.0000
  H   H46       1.0  0.22780  0.40750  0.81400  1.0000
  H   H47       1.0  0.22780  0.09250  0.31400  1.0000
  H   H48       1.0  0.77220  0.59250  0.18600  1.0000
