data_image0
_chemical_formula_structural       Cd4C40H8C16H8C8H8C16H8C8H8C40H8O48H8O16H8O4H8
_chemical_formula_sum              "Cd4 C128 H72 O68"
_cell_length_a       28.498
_cell_length_b       11.7312
_cell_length_c       12.4676
_cell_angle_alpha    90
_cell_angle_beta     95.487
_cell_angle_gamma    90

_space_group_name_H-M_alt    "P 1"
_space_group_IT_number       1

loop_
  _space_group_symop_operation_xyz
  'x, y, z'

loop_
  _atom_site_type_symbol
  _atom_site_label
  _atom_site_symmetry_multiplicity
  _atom_site_fract_x
  _atom_site_fract_y
  _atom_site_fract_z
  _atom_site_occupancy
  Cd  Cd1       1.0  0.00000  0.09019  0.75000  1.0000
  Cd  Cd2       1.0  0.50000  0.59019  0.75000  1.0000
  Cd  Cd3       1.0  1.00000  0.90981  0.25000  1.0000
  Cd  Cd4       1.0  0.50000  0.40981  0.25000  1.0000
  C   C1        1.0  0.07636  0.13200  0.94700  1.0000
  C   C2        1.0  0.92364  0.13200  0.55300  1.0000
  C   C3        1.0  0.57636  0.63200  0.94700  1.0000
  C   C4        1.0  0.42364  0.63200  0.55300  1.0000
  C   C5        1.0  0.92364  0.86800  0.05300  1.0000
  C   C6        1.0  0.07636  0.86800  0.44700  1.0000
  C   C7        1.0  0.42364  0.36800  0.05300  1.0000
  C   C8        1.0  0.57636  0.36800  0.44700  1.0000
  C   C9        1.0  0.12101  0.10010  0.01620  1.0000
  C   C10       1.0  0.87899  0.10010  0.48380  1.0000
  C   C11       1.0  0.62101  0.60010  0.01620  1.0000
  C   C12       1.0  0.37899  0.60010  0.48380  1.0000
  C   C13       1.0  0.87899  0.89990  0.98380  1.0000
  C   C14       1.0  0.12101  0.89990  0.51620  1.0000
  C   C15       1.0  0.37899  0.39990  0.98380  1.0000
  C   C16       1.0  0.62101  0.39990  0.51620  1.0000
  C   C17       1.0  0.07614  0.98850  0.14910  1.0000
  C   C18       1.0  0.92386  0.98850  0.35090  1.0000
  C   C19       1.0  0.57614  0.48850  0.14910  1.0000
  C   C20       1.0  0.42386  0.48850  0.35090  1.0000
  C   C21       1.0  0.92386  0.01150  0.85090  1.0000
  C   C22       1.0  0.07614  0.01150  0.64910  1.0000
  C   C23       1.0  0.42386  0.51150  0.85090  1.0000
  C   C24       1.0  0.57614  0.51150  0.64910  1.0000
  C   C25       1.0  0.12092  0.03060  0.10690  1.0000
  C   C26       1.0  0.87908  0.03060  0.39310  1.0000
  C   C27       1.0  0.62092  0.53060  0.10690  1.0000
  C   C28       1.0  0.37908  0.53060  0.39310  1.0000
  C   C29       1.0  0.87908  0.96940  0.89310  1.0000
  C   C30       1.0  0.12092  0.96940  0.60690  1.0000
  C   C31       1.0  0.37908  0.46940  0.89310  1.0000
  C   C32       1.0  0.62092  0.46940  0.60690  1.0000
  C   C33       1.0  0.16348  0.00230  0.16430  1.0000
  C   C34       1.0  0.83652  0.00230  0.33570  1.0000
  C   C35       1.0  0.66348  0.50230  0.16430  1.0000
  C   C36       1.0  0.33652  0.50230  0.33570  1.0000
  C   C37       1.0  0.83652  0.99770  0.83570  1.0000
  C   C38       1.0  0.16348  0.99770  0.66430  1.0000
  C   C39       1.0  0.33652  0.49770  0.83570  1.0000
  C   C40       1.0  0.66348  0.49770  0.66430  1.0000
  H   H1        1.0  0.16330  0.95630  0.22500  1.0000
  H   H2        1.0  0.83670  0.95630  0.27500  1.0000
  H   H3        1.0  0.66330  0.45630  0.22500  1.0000
  H   H4        1.0  0.33670  0.45630  0.27500  1.0000
  H   H5        1.0  0.83670  0.04370  0.77500  1.0000
  H   H6        1.0  0.16330  0.04370  0.72500  1.0000
  H   H7        1.0  0.33670  0.54370  0.77500  1.0000
  H   H8        1.0  0.66330  0.54370  0.72500  1.0000
  C   C41       1.0  0.20629  0.04050  0.13370  1.0000
  C   C42       1.0  0.79371  0.04050  0.36630  1.0000
  C   C43       1.0  0.70629  0.54050  0.13370  1.0000
  C   C44       1.0  0.29371  0.54050  0.36630  1.0000
  C   C45       1.0  0.79371  0.95950  0.86630  1.0000
  C   C46       1.0  0.20629  0.95950  0.63370  1.0000
  C   C47       1.0  0.29371  0.45950  0.86630  1.0000
  C   C48       1.0  0.70629  0.45950  0.63370  1.0000
  C   C49       1.0  0.20588  0.10850  0.04270  1.0000
  C   C50       1.0  0.79412  0.10850  0.45730  1.0000
  C   C51       1.0  0.70588  0.60850  0.04270  1.0000
  C   C52       1.0  0.29412  0.60850  0.45730  1.0000
  C   C53       1.0  0.79412  0.89150  0.95730  1.0000
  C   C54       1.0  0.20588  0.89150  0.54270  1.0000
  C   C55       1.0  0.29412  0.39150  0.95730  1.0000
  C   C56       1.0  0.70588  0.39150  0.54270  1.0000
  H   H9        1.0  0.23420  0.13450  0.02030  1.0000
  H   H10       1.0  0.76580  0.13450  0.47970  1.0000
  H   H11       1.0  0.73420  0.63450  0.02030  1.0000
  H   H12       1.0  0.26580  0.63450  0.47970  1.0000
  H   H13       1.0  0.76580  0.86550  0.97970  1.0000
  H   H14       1.0  0.23420  0.86550  0.52030  1.0000
  H   H15       1.0  0.26580  0.36550  0.97970  1.0000
  H   H16       1.0  0.73420  0.36550  0.52030  1.0000
  C   C57       1.0  0.16378  0.13820  0.98490  1.0000
  C   C58       1.0  0.83622  0.13820  0.51510  1.0000
  C   C59       1.0  0.66378  0.63820  0.98490  1.0000
  C   C60       1.0  0.33622  0.63820  0.51510  1.0000
  C   C61       1.0  0.83622  0.86180  0.01510  1.0000
  C   C62       1.0  0.16378  0.86180  0.48490  1.0000
  C   C63       1.0  0.33622  0.36180  0.01510  1.0000
  C   C64       1.0  0.66378  0.36180  0.48490  1.0000
  H   H17       1.0  0.16410  0.18430  0.92430  1.0000
  H   H18       1.0  0.83590  0.18430  0.57570  1.0000
  H   H19       1.0  0.66410  0.68430  0.92430  1.0000
  H   H20       1.0  0.33590  0.68430  0.57570  1.0000
  H   H21       1.0  0.83590  0.81570  0.07570  1.0000
  H   H22       1.0  0.16410  0.81570  0.42430  1.0000
  H   H23       1.0  0.33590  0.31570  0.07570  1.0000
  H   H24       1.0  0.66410  0.31570  0.42430  1.0000
  C   C65       1.0  0.25115  0.00320  0.19450  1.0000
  C   C66       1.0  0.74885  0.00320  0.30550  1.0000
  C   C67       1.0  0.75115  0.50320  0.19450  1.0000
  C   C68       1.0  0.24885  0.50320  0.30550  1.0000
  C   C69       1.0  0.74885  0.99680  0.80550  1.0000
  C   C70       1.0  0.25115  0.99680  0.69450  1.0000
  C   C71       1.0  0.24885  0.49680  0.80550  1.0000
  C   C72       1.0  0.75115  0.49680  0.69450  1.0000
  C   C73       1.0  0.25506  0.89260  0.23490  1.0000
  C   C74       1.0  0.74494  0.89260  0.26510  1.0000
  C   C75       1.0  0.75506  0.39260  0.23490  1.0000
  C   C76       1.0  0.24494  0.39260  0.26510  1.0000
  C   C77       1.0  0.74494  0.10740  0.76510  1.0000
  C   C78       1.0  0.25506  0.10740  0.73490  1.0000
  C   C79       1.0  0.24494  0.60740  0.76510  1.0000
  C   C80       1.0  0.75506  0.60740  0.73490  1.0000
  H   H25       1.0  0.22910  0.84430  0.22730  1.0000
  H   H26       1.0  0.77090  0.84430  0.27270  1.0000
  H   H27       1.0  0.72910  0.34430  0.22730  1.0000
  H   H28       1.0  0.27090  0.34430  0.27270  1.0000
  H   H29       1.0  0.77090  0.15570  0.77270  1.0000
  H   H30       1.0  0.22910  0.15570  0.72730  1.0000
  H   H31       1.0  0.27090  0.65570  0.77270  1.0000
  H   H32       1.0  0.72910  0.65570  0.72730  1.0000
  C   C81       1.0  0.29716  0.85410  0.28590  1.0000
  C   C82       1.0  0.70284  0.85410  0.21410  1.0000
  C   C83       1.0  0.79716  0.35410  0.28590  1.0000
  C   C84       1.0  0.20284  0.35410  0.21410  1.0000
  C   C85       1.0  0.70284  0.14590  0.71410  1.0000
  C   C86       1.0  0.29716  0.14590  0.78590  1.0000
  C   C87       1.0  0.20284  0.64590  0.71410  1.0000
  C   C88       1.0  0.79716  0.64590  0.78590  1.0000
  H   H33       1.0  0.29920  0.77950  0.31110  1.0000
  H   H34       1.0  0.70080  0.77950  0.18890  1.0000
  H   H35       1.0  0.79920  0.27950  0.31110  1.0000
  H   H36       1.0  0.20080  0.27950  0.18890  1.0000
  H   H37       1.0  0.70080  0.22050  0.68890  1.0000
  H   H38       1.0  0.29920  0.22050  0.81110  1.0000
  H   H39       1.0  0.20080  0.72050  0.68890  1.0000
  H   H40       1.0  0.79920  0.72050  0.81110  1.0000
  C   C89       1.0  0.37944  0.86770  0.35730  1.0000
  C   C90       1.0  0.62056  0.86770  0.14270  1.0000
  C   C91       1.0  0.87944  0.36770  0.35730  1.0000
  C   C92       1.0  0.12056  0.36770  0.14270  1.0000
  C   C93       1.0  0.62056  0.13230  0.64270  1.0000
  C   C94       1.0  0.37944  0.13230  0.85730  1.0000
  C   C95       1.0  0.12056  0.63230  0.64270  1.0000
  C   C96       1.0  0.87944  0.63230  0.85730  1.0000
  C   C97       1.0  0.33639  0.92380  0.30070  1.0000
  C   C98       1.0  0.66361  0.92380  0.19930  1.0000
  C   C99       1.0  0.83639  0.42380  0.30070  1.0000
  C   C100      1.0  0.16361  0.42380  0.19930  1.0000
  C   C101      1.0  0.66361  0.07620  0.69930  1.0000
  C   C102      1.0  0.33639  0.07620  0.80070  1.0000
  C   C103      1.0  0.16361  0.57620  0.69930  1.0000
  C   C104      1.0  0.83639  0.57620  0.80070  1.0000
  C   C105      1.0  0.37409  0.11490  0.28410  1.0000
  C   C106      1.0  0.62591  0.11490  0.21590  1.0000
  C   C107      1.0  0.87409  0.61490  0.28410  1.0000
  C   C108      1.0  0.12591  0.61490  0.21590  1.0000
  C   C109      1.0  0.62591  0.88510  0.71590  1.0000
  C   C110      1.0  0.37409  0.88510  0.78410  1.0000
  C   C111      1.0  0.12591  0.38510  0.71590  1.0000
  C   C112      1.0  0.87409  0.38510  0.78410  1.0000
  C   C113      1.0  0.33298  0.03550  0.26290  1.0000
  C   C114      1.0  0.66702  0.03550  0.23710  1.0000
  C   C115      1.0  0.83298  0.53550  0.26290  1.0000
  C   C116      1.0  0.16702  0.53550  0.23710  1.0000
  C   C117      1.0  0.66702  0.96450  0.73710  1.0000
  C   C118      1.0  0.33298  0.96450  0.76290  1.0000
  C   C119      1.0  0.16702  0.46450  0.73710  1.0000
  C   C120      1.0  0.83298  0.46450  0.76290  1.0000
  C   C121      1.0  0.29042  0.07330  0.21000  1.0000
  C   C122      1.0  0.70958  0.07330  0.29000  1.0000
  C   C123      1.0  0.79042  0.57330  0.21000  1.0000
  C   C124      1.0  0.20958  0.57330  0.29000  1.0000
  C   C125      1.0  0.70958  0.92670  0.79000  1.0000
  C   C126      1.0  0.29042  0.92670  0.71000  1.0000
  C   C127      1.0  0.20958  0.42670  0.79000  1.0000
  C   C128      1.0  0.79042  0.42670  0.71000  1.0000
  H   H41       1.0  0.28830  0.14780  0.18440  1.0000
  H   H42       1.0  0.71170  0.14780  0.31560  1.0000
  H   H43       1.0  0.78830  0.64780  0.18440  1.0000
  H   H44       1.0  0.21170  0.64780  0.31560  1.0000
  H   H45       1.0  0.71170  0.85220  0.81560  1.0000
  H   H46       1.0  0.28830  0.85220  0.68440  1.0000
  H   H47       1.0  0.21170  0.35220  0.81560  1.0000
  H   H48       1.0  0.78830  0.35220  0.68440  1.0000
  O   O1        1.0  0.05263  0.05354  0.90187  1.0000
  O   O2        1.0  0.94737  0.05354  0.59813  1.0000
  O   O3        1.0  0.55263  0.55354  0.90187  1.0000
  O   O4        1.0  0.44737  0.55354  0.59813  1.0000
  O   O5        1.0  0.94737  0.94646  0.09813  1.0000
  O   O6        1.0  0.05263  0.94646  0.40187  1.0000
  O   O7        1.0  0.44737  0.44646  0.09813  1.0000
  O   O8        1.0  0.55263  0.44646  0.40187  1.0000
  O   O9        1.0  0.06715  0.23645  0.93425  1.0000
  O   O10       1.0  0.93285  0.23645  0.56575  1.0000
  O   O11       1.0  0.56715  0.73645  0.93425  1.0000
  O   O12       1.0  0.43285  0.73645  0.56575  1.0000
  O   O13       1.0  0.93285  0.76355  0.06575  1.0000
  O   O14       1.0  0.06715  0.76355  0.43425  1.0000
  O   O15       1.0  0.43285  0.26355  0.06575  1.0000
  O   O16       1.0  0.56715  0.26355  0.43425  1.0000
  O   O17       1.0  0.07353  0.88442  0.17460  1.0000
  O   O18       1.0  0.92647  0.88442  0.32540  1.0000
  O   O19       1.0  0.57353  0.38442  0.17460  1.0000
  O   O20       1.0  0.42647  0.38442  0.32540  1.0000
  O   O21       1.0  0.92647  0.11558  0.82540  1.0000
  O   O22       1.0  0.07353  0.11558  0.67460  1.0000
  O   O23       1.0  0.42647  0.61558  0.82540  1.0000
  O   O24       1.0  0.57353  0.61558  0.67460  1.0000
  O   O25       1.0  0.04388  0.05747  0.16208  1.0000
  O   O26       1.0  0.95612  0.05747  0.33792  1.0000
  O   O27       1.0  0.54388  0.55747  0.16208  1.0000
  O   O28       1.0  0.45612  0.55747  0.33792  1.0000
  O   O29       1.0  0.95612  0.94253  0.83792  1.0000
  O   O30       1.0  0.04388  0.94253  0.66208  1.0000
  O   O31       1.0  0.45612  0.44253  0.83792  1.0000
  O   O32       1.0  0.54388  0.44253  0.66208  1.0000
  O   O33       1.0  0.40530  0.80840  0.31014  1.0000
  O   O34       1.0  0.59470  0.80840  0.18986  1.0000
  O   O35       1.0  0.90530  0.30840  0.31014  1.0000
  O   O36       1.0  0.09470  0.30840  0.18986  1.0000
  O   O37       1.0  0.59470  0.19160  0.68986  1.0000
  O   O38       1.0  0.40530  0.19160  0.81014  1.0000
  O   O39       1.0  0.09470  0.69160  0.68986  1.0000
  O   O40       1.0  0.90530  0.69160  0.81014  1.0000
  O   O41       1.0  0.38211  0.87929  0.46177  1.0000
  O   O42       1.0  0.61789  0.87929  0.03823  1.0000
  O   O43       1.0  0.88211  0.37929  0.46177  1.0000
  O   O44       1.0  0.11789  0.37929  0.03823  1.0000
  O   O45       1.0  0.61789  0.12071  0.53823  1.0000
  O   O46       1.0  0.38211  0.12071  0.96177  1.0000
  O   O47       1.0  0.11789  0.62071  0.53823  1.0000
  O   O48       1.0  0.88211  0.62071  0.96177  1.0000
  H   H49       1.0  0.39990  0.83100  0.49100  1.0000
  H   H50       1.0  0.60010  0.83100  0.00900  1.0000
  H   H51       1.0  0.89990  0.33100  0.49100  1.0000
  H   H52       1.0  0.10010  0.33100  0.00900  1.0000
  H   H53       1.0  0.60010  0.16900  0.50900  1.0000
  H   H54       1.0  0.39990  0.16900  0.99100  1.0000
  H   H55       1.0  0.10010  0.66900  0.50900  1.0000
  H   H56       1.0  0.89990  0.66900  0.99100  1.0000
  O   O49       1.0  0.41301  0.08249  0.31590  1.0000
  O   O50       1.0  0.58699  0.08249  0.18410  1.0000
  O   O51       1.0  0.91301  0.58249  0.31590  1.0000
  O   O52       1.0  0.08699  0.58249  0.18410  1.0000
  O   O53       1.0  0.58699  0.91751  0.68410  1.0000
  O   O54       1.0  0.41301  0.91751  0.81590  1.0000
  O   O55       1.0  0.08699  0.41751  0.68410  1.0000
  O   O56       1.0  0.91301  0.41751  0.81590  1.0000
  O   O57       1.0  0.36252  0.22333  0.26807  1.0000
  O   O58       1.0  0.63748  0.22333  0.23193  1.0000
  O   O59       1.0  0.86252  0.72333  0.26807  1.0000
  O   O60       1.0  0.13748  0.72333  0.23193  1.0000
  O   O61       1.0  0.63748  0.77667  0.73193  1.0000
  O   O62       1.0  0.36252  0.77667  0.76807  1.0000
  O   O63       1.0  0.13748  0.27667  0.73193  1.0000
  O   O64       1.0  0.86252  0.27667  0.76807  1.0000
  H   H57       1.0  0.38490  0.26500  0.28600  1.0000
  H   H58       1.0  0.61510  0.26500  0.21400  1.0000
  H   H59       1.0  0.88490  0.76500  0.28600  1.0000
  H   H60       1.0  0.11510  0.76500  0.21400  1.0000
  H   H61       1.0  0.61510  0.73500  0.71400  1.0000
  H   H62       1.0  0.38490  0.73500  0.78600  1.0000
  H   H63       1.0  0.11510  0.23500  0.71400  1.0000
  H   H64       1.0  0.88490  0.23500  0.78600  1.0000
  O   O65       1.0  0.00000  0.28210  0.75000  1.0000
  O   O66       1.0  0.50000  0.78210  0.75000  1.0000
  O   O67       1.0  1.00000  0.71790  0.25000  1.0000
  O   O68       1.0  0.50000  0.21790  0.25000  1.0000
  H   H65       1.0  0.97430  0.31200  0.74600  1.0000
  H   H66       1.0  0.02570  0.31200  0.75400  1.0000
  H   H67       1.0  0.47430  0.81200  0.74600  1.0000
  H   H68       1.0  0.52570  0.81200  0.75400  1.0000
  H   H69       1.0  0.02570  0.68800  0.25400  1.0000
  H   H70       1.0  0.97430  0.68800  0.24600  1.0000
  H   H71       1.0  0.52570  0.18800  0.25400  1.0000
  H   H72       1.0  0.47430  0.18800  0.24600  1.0000
