data_image0
_chemical_formula_structural       Sr6O16C16H4C4H4C12H4C4H4C4H4C4H4C4O16C16H4C4H4C12H4C4H4C4H4C4H4C4
_chemical_formula_sum              "Sr6 O32 C96 H48"
_cell_length_a       12.8639
_cell_length_b       13.9067
_cell_length_c       16.0119
_cell_angle_alpha    90
_cell_angle_beta     99.757
_cell_angle_gamma    90

_space_group_name_H-M_alt    "P 1"
_space_group_IT_number       1

loop_
  _space_group_symop_operation_xyz
  'x, y, z'

loop_
  _atom_site_type_symbol
  _atom_site_label
  _atom_site_symmetry_multiplicity
  _atom_site_fract_x
  _atom_site_fract_y
  _atom_site_fract_z
  _atom_site_occupancy
  Sr  Sr1       1.0  0.00000  0.50000  0.00000  1.0000
  Sr  Sr2       1.0  0.50000  0.00000  0.50000  1.0000
  Sr  Sr3       1.0  0.34057  0.50935  0.00854  1.0000
  Sr  Sr4       1.0  0.15943  0.00935  0.49146  1.0000
  Sr  Sr5       1.0  0.65943  0.49065  0.99146  1.0000
  Sr  Sr6       1.0  0.84057  0.99065  0.50854  1.0000
  O   O1        1.0  0.10070  0.56110  0.13620  1.0000
  O   O2        1.0  0.39930  0.06110  0.36380  1.0000
  O   O3        1.0  0.89930  0.43890  0.86380  1.0000
  O   O4        1.0  0.60070  0.93890  0.63620  1.0000
  O   O5        1.0  0.26790  0.52160  0.14230  1.0000
  O   O6        1.0  0.23210  0.02160  0.35770  1.0000
  O   O7        1.0  0.73210  0.47840  0.85770  1.0000
  O   O8        1.0  0.76790  0.97840  0.64230  1.0000
  O   O9        1.0  0.24490  0.85480  0.49410  1.0000
  O   O10       1.0  0.25510  0.35480  0.00590  1.0000
  O   O11       1.0  0.75510  0.14520  0.50590  1.0000
  O   O12       1.0  0.74490  0.64520  0.99410  1.0000
  O   O13       1.0  0.41390  0.83890  0.47720  1.0000
  O   O14       1.0  0.08610  0.33890  0.02280  1.0000
  O   O15       1.0  0.58610  0.16110  0.52280  1.0000
  O   O16       1.0  0.91390  0.66110  0.97720  1.0000
  C   C1        1.0  0.19450  0.56300  0.16990  1.0000
  C   C2        1.0  0.30550  0.06300  0.33010  1.0000
  C   C3        1.0  0.80550  0.43700  0.83010  1.0000
  C   C4        1.0  0.69450  0.93700  0.66990  1.0000
  C   C5        1.0  0.31660  0.81800  0.46090  1.0000
  C   C6        1.0  0.18340  0.31800  0.03910  1.0000
  C   C7        1.0  0.68340  0.18200  0.53910  1.0000
  C   C8        1.0  0.81660  0.68200  0.96090  1.0000
  C   C9        1.0  0.22640  0.62220  0.25030  1.0000
  C   C10       1.0  0.27360  0.12220  0.24970  1.0000
  C   C11       1.0  0.77360  0.37780  0.74970  1.0000
  C   C12       1.0  0.72640  0.87780  0.75030  1.0000
  C   C13       1.0  0.31190  0.67960  0.25640  1.0000
  C   C14       1.0  0.18810  0.17960  0.24360  1.0000
  C   C15       1.0  0.68810  0.32040  0.74360  1.0000
  C   C16       1.0  0.81190  0.82040  0.75640  1.0000
  H   H1        1.0  0.35200  0.67900  0.21320  1.0000
  H   H2        1.0  0.14800  0.17900  0.28680  1.0000
  H   H3        1.0  0.64800  0.32100  0.78680  1.0000
  H   H4        1.0  0.85200  0.82100  0.71320  1.0000
  C   C17       1.0  0.34150  0.73960  0.32600  1.0000
  C   C18       1.0  0.15850  0.23960  0.17400  1.0000
  C   C19       1.0  0.65850  0.26040  0.67400  1.0000
  C   C20       1.0  0.84150  0.76040  0.82600  1.0000
  H   H5        1.0  0.40060  0.77860  0.32770  1.0000
  H   H6        1.0  0.09940  0.27860  0.17230  1.0000
  H   H7        1.0  0.59940  0.22140  0.67230  1.0000
  H   H8        1.0  0.90060  0.72140  0.82770  1.0000
  C   C21       1.0  0.28680  0.74280  0.39110  1.0000
  C   C22       1.0  0.21320  0.24280  0.10890  1.0000
  C   C23       1.0  0.71320  0.25720  0.60890  1.0000
  C   C24       1.0  0.78680  0.75720  0.89110  1.0000
  C   C25       1.0  0.19890  0.68040  0.39040  1.0000
  C   C26       1.0  0.30110  0.18040  0.10960  1.0000
  C   C27       1.0  0.80110  0.31960  0.60960  1.0000
  C   C28       1.0  0.69890  0.81960  0.89040  1.0000
  C   C29       1.0  0.13850  0.67460  0.45730  1.0000
  C   C30       1.0  0.36150  0.17460  0.04270  1.0000
  C   C31       1.0  0.86150  0.32540  0.54270  1.0000
  C   C32       1.0  0.63850  0.82540  0.95730  1.0000
  H   H9        1.0  0.15710  0.71270  0.50530  1.0000
  H   H10       1.0  0.34290  0.21270  0.99470  1.0000
  H   H11       1.0  0.84290  0.28730  0.49470  1.0000
  H   H12       1.0  0.65710  0.78730  0.00530  1.0000
  C   C33       1.0  0.05370  0.61400  0.45210  1.0000
  C   C34       1.0  0.44630  0.11400  0.04790  1.0000
  C   C35       1.0  0.94630  0.38600  0.54790  1.0000
  C   C36       1.0  0.55370  0.88600  0.95210  1.0000
  H   H13       1.0  0.01330  0.61350  0.49500  1.0000
  H   H14       1.0  0.48670  0.11350  0.00500  1.0000
  H   H15       1.0  0.98670  0.38650  0.50500  1.0000
  H   H16       1.0  0.51330  0.88650  0.99500  1.0000
  C   C37       1.0  0.02810  0.55370  0.38330  1.0000
  C   C38       1.0  0.47190  0.05370  0.11670  1.0000
  C   C39       1.0  0.97190  0.44630  0.61670  1.0000
  C   C40       1.0  0.52810  0.94630  0.88330  1.0000
  H   H17       1.0  0.97160  0.51160  0.38110  1.0000
  H   H18       1.0  0.52840  0.01160  0.11890  1.0000
  H   H19       1.0  0.02840  0.48840  0.61890  1.0000
  H   H20       1.0  0.47160  0.98840  0.88110  1.0000
  C   C41       1.0  0.08320  0.55500  0.31990  1.0000
  C   C42       1.0  0.41680  0.05500  0.18010  1.0000
  C   C43       1.0  0.91680  0.44500  0.68010  1.0000
  C   C44       1.0  0.58320  0.94500  0.81990  1.0000
  H   H21       1.0  0.06480  0.51250  0.27500  1.0000
  H   H22       1.0  0.43520  0.01250  0.22500  1.0000
  H   H23       1.0  0.93520  0.48750  0.72500  1.0000
  H   H24       1.0  0.56480  0.98750  0.77500  1.0000
  C   C45       1.0  0.16910  0.61910  0.31820  1.0000
  C   C46       1.0  0.33090  0.11910  0.18180  1.0000
  C   C47       1.0  0.83090  0.38090  0.68180  1.0000
  C   C48       1.0  0.66910  0.88090  0.81820  1.0000
  O   O17       1.0  0.85340  0.42910  0.07280  1.0000
  O   O18       1.0  0.64660  0.92910  0.42720  1.0000
  O   O19       1.0  0.14660  0.57090  0.92720  1.0000
  O   O20       1.0  0.35340  0.07090  0.57280  1.0000
  O   O21       1.0  0.70480  0.37790  0.10940  1.0000
  O   O22       1.0  0.79520  0.87790  0.39060  1.0000
  O   O23       1.0  0.29520  0.62210  0.89060  1.0000
  O   O24       1.0  0.20480  0.12210  0.60940  1.0000
  O   O25       1.0  0.08240  0.17420  0.43120  1.0000
  O   O26       1.0  0.41760  0.67420  0.06880  1.0000
  O   O27       1.0  0.91760  0.82580  0.56880  1.0000
  O   O28       1.0  0.58240  0.32580  0.93120  1.0000
  O   O29       1.0  0.96590  0.05840  0.41350  1.0000
  O   O30       1.0  0.53410  0.55840  0.08650  1.0000
  O   O31       1.0  0.03410  0.94160  0.58650  1.0000
  O   O32       1.0  0.46590  0.44160  0.91350  1.0000
  C   C49       1.0  0.80320  0.37540  0.11410  1.0000
  C   C50       1.0  0.69680  0.87540  0.38590  1.0000
  C   C51       1.0  0.19680  0.62460  0.88590  1.0000
  C   C52       1.0  0.30320  0.12460  0.61410  1.0000
  C   C53       1.0  0.99920  0.13250  0.39210  1.0000
  C   C54       1.0  0.50080  0.63250  0.10790  1.0000
  C   C55       1.0  0.00080  0.86750  0.60790  1.0000
  C   C56       1.0  0.49920  0.36750  0.89210  1.0000
  C   C57       1.0  0.85670  0.30300  0.17560  1.0000
  C   C58       1.0  0.64330  0.80300  0.32440  1.0000
  C   C59       1.0  0.14330  0.69700  0.82440  1.0000
  C   C60       1.0  0.35670  0.19700  0.67560  1.0000
  C   C61       1.0  0.91620  0.33750  0.24600  1.0000
  C   C62       1.0  0.58380  0.83750  0.25400  1.0000
  C   C63       1.0  0.08380  0.66250  0.75400  1.0000
  C   C64       1.0  0.41620  0.16250  0.74600  1.0000
  H   H25       1.0  0.92900  0.40330  0.24880  1.0000
  H   H26       1.0  0.57100  0.90330  0.25120  1.0000
  H   H27       1.0  0.07100  0.59670  0.75120  1.0000
  H   H28       1.0  0.42900  0.09670  0.74880  1.0000
  C   C65       1.0  0.95830  0.28420  0.31230  1.0000
  C   C66       1.0  0.54170  0.78420  0.18770  1.0000
  C   C67       1.0  0.04170  0.71580  0.68770  1.0000
  C   C68       1.0  0.45830  0.21580  0.81230  1.0000
  H   H29       1.0  0.99920  0.31360  0.35880  1.0000
  H   H30       1.0  0.50080  0.81360  0.14120  1.0000
  H   H31       1.0  0.00080  0.68640  0.64120  1.0000
  H   H32       1.0  0.49920  0.18640  0.85880  1.0000
  C   C69       1.0  0.94310  0.19090  0.31330  1.0000
  C   C70       1.0  0.55690  0.69090  0.18670  1.0000
  C   C71       1.0  0.05690  0.80910  0.68670  1.0000
  C   C72       1.0  0.44310  0.30910  0.81330  1.0000
  C   C73       1.0  0.88070  0.14260  0.24210  1.0000
  C   C74       1.0  0.61930  0.64260  0.25790  1.0000
  C   C75       1.0  0.11930  0.85740  0.75790  1.0000
  C   C76       1.0  0.38070  0.35740  0.74210  1.0000
  C   C77       1.0  0.85930  0.04580  0.23600  1.0000
  C   C78       1.0  0.64070  0.54580  0.26400  1.0000
  C   C79       1.0  0.14070  0.95420  0.76400  1.0000
  C   C80       1.0  0.35930  0.45420  0.73600  1.0000
  H   H33       1.0  0.88570  0.00530  0.28080  1.0000
  H   H34       1.0  0.61430  0.50530  0.21920  1.0000
  H   H35       1.0  0.11430  0.99470  0.71920  1.0000
  H   H36       1.0  0.38570  0.49470  0.78080  1.0000
  C   C81       1.0  0.80230  0.01020  0.16770  1.0000
  C   C82       1.0  0.69770  0.51020  0.33230  1.0000
  C   C83       1.0  0.19770  0.98980  0.83230  1.0000
  C   C84       1.0  0.30230  0.48980  0.66770  1.0000
  H   H37       1.0  0.79310  0.94390  0.16640  1.0000
  H   H38       1.0  0.70690  0.44390  0.33360  1.0000
  H   H39       1.0  0.20690  0.05610  0.83360  1.0000
  H   H40       1.0  0.29310  0.55610  0.66640  1.0000
  C   C85       1.0  0.75140  0.06370  0.09300  1.0000
  C   C86       1.0  0.74860  0.56370  0.40700  1.0000
  C   C87       1.0  0.24860  0.93630  0.90700  1.0000
  C   C88       1.0  0.25140  0.43630  0.59300  1.0000
  H   H41       1.0  0.70900  0.03450  0.04720  1.0000
  H   H42       1.0  0.79100  0.53450  0.45280  1.0000
  H   H43       1.0  0.29100  0.96550  0.95280  1.0000
  H   H44       1.0  0.20900  0.46550  0.54720  1.0000
  C   C89       1.0  0.77270  0.16520  0.09680  1.0000
  C   C90       1.0  0.72730  0.66520  0.40320  1.0000
  C   C91       1.0  0.22730  0.83480  0.90320  1.0000
  C   C92       1.0  0.27270  0.33480  0.59680  1.0000
  H   H45       1.0  0.74490  0.20500  0.05180  1.0000
  H   H46       1.0  0.75510  0.70500  0.44820  1.0000
  H   H47       1.0  0.25510  0.79500  0.94820  1.0000
  H   H48       1.0  0.24490  0.29500  0.55180  1.0000
  C   C93       1.0  0.83550  0.20300  0.16850  1.0000
  C   C94       1.0  0.66450  0.70300  0.33150  1.0000
  C   C95       1.0  0.16450  0.79700  0.83150  1.0000
  C   C96       1.0  0.33550  0.29700  0.66850  1.0000
