data_image0
_chemical_formula_structural       Co4Na4O16C24H8C16H8C16H8O16C8H8
_chemical_formula_sum              "Co4 Na4 O32 C64 H32"
_cell_length_a       13.3751
_cell_length_b       14.3847
_cell_length_c       11.3178
_cell_angle_alpha    90
_cell_angle_beta     111.405
_cell_angle_gamma    90

_space_group_name_H-M_alt    "P 1"
_space_group_IT_number       1

loop_
  _space_group_symop_operation_xyz
  'x, y, z'

loop_
  _atom_site_type_symbol
  _atom_site_label
  _atom_site_symmetry_multiplicity
  _atom_site_fract_x
  _atom_site_fract_y
  _atom_site_fract_z
  _atom_site_occupancy
  Co  Co1       1.0  0.00000  0.11366  0.25000  1.0000
  Co  Co2       1.0  0.50000  0.61366  0.25000  1.0000
  Co  Co3       1.0  0.00000  0.88634  0.75000  1.0000
  Co  Co4       1.0  0.50000  0.38634  0.75000  1.0000
  Na  Na1       1.0  0.00000  0.00000  0.50000  1.0000
  Na  Na2       1.0  0.50000  0.50000  0.50000  1.0000
  Na  Na3       1.0  0.00000  0.00000  0.00000  1.0000
  Na  Na4       1.0  0.50000  0.50000  0.00000  1.0000
  O   O1        1.0  0.86560  0.97390  0.29140  1.0000
  O   O2        1.0  0.36560  0.47390  0.29140  1.0000
  O   O3        1.0  0.13440  0.97390  0.20860  1.0000
  O   O4        1.0  0.63440  0.47390  0.20860  1.0000
  O   O5        1.0  0.13440  0.02610  0.70860  1.0000
  O   O6        1.0  0.63440  0.52610  0.70860  1.0000
  O   O7        1.0  0.86560  0.02610  0.79140  1.0000
  O   O8        1.0  0.36560  0.52610  0.79140  1.0000
  O   O9        1.0  0.88980  0.03350  0.12380  1.0000
  O   O10       1.0  0.38980  0.53350  0.12380  1.0000
  O   O11       1.0  0.11020  0.03350  0.37620  1.0000
  O   O12       1.0  0.61020  0.53350  0.37620  1.0000
  O   O13       1.0  0.11020  0.96650  0.87620  1.0000
  O   O14       1.0  0.61020  0.46650  0.87620  1.0000
  O   O15       1.0  0.88980  0.96650  0.62380  1.0000
  O   O16       1.0  0.38980  0.46650  0.62380  1.0000
  C   C1        1.0  0.84300  0.97830  0.17560  1.0000
  C   C2        1.0  0.34300  0.47830  0.17560  1.0000
  C   C3        1.0  0.15700  0.97830  0.32440  1.0000
  C   C4        1.0  0.65700  0.47830  0.32440  1.0000
  C   C5        1.0  0.15700  0.02170  0.82440  1.0000
  C   C6        1.0  0.65700  0.52170  0.82440  1.0000
  C   C7        1.0  0.84300  0.02170  0.67560  1.0000
  C   C8        1.0  0.34300  0.52170  0.67560  1.0000
  C   C9        1.0  0.75660  0.91750  0.08800  1.0000
  C   C10       1.0  0.25660  0.41750  0.08800  1.0000
  C   C11       1.0  0.24340  0.91750  0.41200  1.0000
  C   C12       1.0  0.74340  0.41750  0.41200  1.0000
  C   C13       1.0  0.24340  0.08250  0.91200  1.0000
  C   C14       1.0  0.74340  0.58250  0.91200  1.0000
  C   C15       1.0  0.75660  0.08250  0.58800  1.0000
  C   C16       1.0  0.25660  0.58250  0.58800  1.0000
  C   C17       1.0  0.70700  0.84990  0.13560  1.0000
  C   C18       1.0  0.20700  0.34990  0.13560  1.0000
  C   C19       1.0  0.29300  0.84990  0.36440  1.0000
  C   C20       1.0  0.79300  0.34990  0.36440  1.0000
  C   C21       1.0  0.29300  0.15010  0.86440  1.0000
  C   C22       1.0  0.79300  0.65010  0.86440  1.0000
  C   C23       1.0  0.70700  0.15010  0.63560  1.0000
  C   C24       1.0  0.20700  0.65010  0.63560  1.0000
  H   H1        1.0  0.72610  0.84410  0.22290  1.0000
  H   H2        1.0  0.22610  0.34410  0.22290  1.0000
  H   H3        1.0  0.27390  0.84410  0.27710  1.0000
  H   H4        1.0  0.77390  0.34410  0.27710  1.0000
  H   H5        1.0  0.27390  0.15590  0.77710  1.0000
  H   H6        1.0  0.77390  0.65590  0.77710  1.0000
  H   H7        1.0  0.72610  0.15590  0.72290  1.0000
  H   H8        1.0  0.22610  0.65590  0.72290  1.0000
  C   C25       1.0  0.57990  0.71760  0.11300  1.0000
  C   C26       1.0  0.07990  0.21760  0.11300  1.0000
  C   C27       1.0  0.42010  0.71760  0.38700  1.0000
  C   C28       1.0  0.92010  0.21760  0.38700  1.0000
  C   C29       1.0  0.42010  0.28240  0.88700  1.0000
  C   C30       1.0  0.92010  0.78240  0.88700  1.0000
  C   C31       1.0  0.57990  0.28240  0.61300  1.0000
  C   C32       1.0  0.07990  0.78240  0.61300  1.0000
  C   C33       1.0  0.72590  0.92600  0.95690  1.0000
  C   C34       1.0  0.22590  0.42600  0.95690  1.0000
  C   C35       1.0  0.27410  0.92600  0.54310  1.0000
  C   C36       1.0  0.77410  0.42600  0.54310  1.0000
  C   C37       1.0  0.27410  0.07400  0.04310  1.0000
  C   C38       1.0  0.77410  0.57400  0.04310  1.0000
  C   C39       1.0  0.72590  0.07400  0.45690  1.0000
  C   C40       1.0  0.22590  0.57400  0.45690  1.0000
  H   H9        1.0  0.75770  0.97080  0.92280  1.0000
  H   H10       1.0  0.25770  0.47080  0.92280  1.0000
  H   H11       1.0  0.24230  0.97080  0.57720  1.0000
  H   H12       1.0  0.74230  0.47080  0.57720  1.0000
  H   H13       1.0  0.24230  0.02920  0.07720  1.0000
  H   H14       1.0  0.74230  0.52920  0.07720  1.0000
  H   H15       1.0  0.75770  0.02920  0.42280  1.0000
  H   H16       1.0  0.25770  0.52920  0.42280  1.0000
  C   C41       1.0  0.63060  0.79160  0.05630  1.0000
  C   C42       1.0  0.13060  0.29160  0.05630  1.0000
  C   C43       1.0  0.36940  0.79160  0.44370  1.0000
  C   C44       1.0  0.86940  0.29160  0.44370  1.0000
  C   C45       1.0  0.36940  0.20840  0.94370  1.0000
  C   C46       1.0  0.86940  0.70840  0.94370  1.0000
  C   C47       1.0  0.63060  0.20840  0.55630  1.0000
  C   C48       1.0  0.13060  0.70840  0.55630  1.0000
  C   C49       1.0  0.60140  0.80000  0.92640  1.0000
  C   C50       1.0  0.10140  0.30000  0.92640  1.0000
  C   C51       1.0  0.39860  0.80000  0.57360  1.0000
  C   C52       1.0  0.89860  0.30000  0.57360  1.0000
  C   C53       1.0  0.39860  0.20000  0.07360  1.0000
  C   C54       1.0  0.89860  0.70000  0.07360  1.0000
  C   C55       1.0  0.60140  0.20000  0.42640  1.0000
  C   C56       1.0  0.10140  0.70000  0.42640  1.0000
  H   H17       1.0  0.55030  0.76010  0.87240  1.0000
  H   H18       1.0  0.05030  0.26010  0.87240  1.0000
  H   H19       1.0  0.44970  0.76010  0.62760  1.0000
  H   H20       1.0  0.94970  0.26010  0.62760  1.0000
  H   H21       1.0  0.44970  0.23990  0.12760  1.0000
  H   H22       1.0  0.94970  0.73990  0.12760  1.0000
  H   H23       1.0  0.55030  0.23990  0.37240  1.0000
  H   H24       1.0  0.05030  0.73990  0.37240  1.0000
  O   O17       1.0  0.60230  0.71570  0.22850  1.0000
  O   O18       1.0  0.10230  0.21570  0.22850  1.0000
  O   O19       1.0  0.39770  0.71570  0.27150  1.0000
  O   O20       1.0  0.89770  0.21570  0.27150  1.0000
  O   O21       1.0  0.39770  0.28430  0.77150  1.0000
  O   O22       1.0  0.89770  0.78430  0.77150  1.0000
  O   O23       1.0  0.60230  0.28430  0.72850  1.0000
  O   O24       1.0  0.10230  0.78430  0.72850  1.0000
  O   O25       1.0  0.51640  0.66280  0.04150  1.0000
  O   O26       1.0  0.01640  0.16280  0.04150  1.0000
  O   O27       1.0  0.48360  0.66280  0.45850  1.0000
  O   O28       1.0  0.98360  0.16280  0.45850  1.0000
  O   O29       1.0  0.48360  0.33720  0.95850  1.0000
  O   O30       1.0  0.98360  0.83720  0.95850  1.0000
  O   O31       1.0  0.51640  0.33720  0.54150  1.0000
  O   O32       1.0  0.01640  0.83720  0.54150  1.0000
  C   C57       1.0  0.64790  0.86730  0.87710  1.0000
  C   C58       1.0  0.14790  0.36730  0.87710  1.0000
  C   C59       1.0  0.35210  0.86730  0.62290  1.0000
  C   C60       1.0  0.85210  0.36730  0.62290  1.0000
  C   C61       1.0  0.35210  0.13270  0.12290  1.0000
  C   C62       1.0  0.85210  0.63270  0.12290  1.0000
  C   C63       1.0  0.64790  0.13270  0.37710  1.0000
  C   C64       1.0  0.14790  0.63270  0.37710  1.0000
  H   H25       1.0  0.62700  0.87360  0.78960  1.0000
  H   H26       1.0  0.12700  0.37360  0.78960  1.0000
  H   H27       1.0  0.37300  0.87360  0.71040  1.0000
  H   H28       1.0  0.87300  0.37360  0.71040  1.0000
  H   H29       1.0  0.37300  0.12640  0.21040  1.0000
  H   H30       1.0  0.87300  0.62640  0.21040  1.0000
  H   H31       1.0  0.62700  0.12640  0.28960  1.0000
  H   H32       1.0  0.12700  0.62640  0.28960  1.0000
