data_image0
_chemical_formula_structural       C24H8C24H8C8H8C8H8O32Na4Cd4
_chemical_formula_sum              "C64 H32 O32 Na4 Cd4"
_cell_length_a       14.7366
_cell_length_b       13.5985
_cell_length_c       11.3369
_cell_angle_alpha    90
_cell_angle_beta     113.141
_cell_angle_gamma    90

_space_group_name_H-M_alt    "P 1"
_space_group_IT_number       1

loop_
  _space_group_symop_operation_xyz
  'x, y, z'

loop_
  _atom_site_type_symbol
  _atom_site_label
  _atom_site_symmetry_multiplicity
  _atom_site_fract_x
  _atom_site_fract_y
  _atom_site_fract_z
  _atom_site_occupancy
  C   C1        1.0  0.34690  0.48470  0.15430  1.0000
  C   C2        1.0  0.84690  0.98470  0.15430  1.0000
  C   C3        1.0  0.65310  0.48470  0.34570  1.0000
  C   C4        1.0  0.15310  0.98470  0.34570  1.0000
  C   C5        1.0  0.65310  0.51530  0.84570  1.0000
  C   C6        1.0  0.15310  0.01530  0.84570  1.0000
  C   C7        1.0  0.34690  0.51530  0.65430  1.0000
  C   C8        1.0  0.84690  0.01530  0.65430  1.0000
  C   C9        1.0  0.26030  0.42350  0.07030  1.0000
  C   C10       1.0  0.76030  0.92350  0.07030  1.0000
  C   C11       1.0  0.73970  0.42350  0.42970  1.0000
  C   C12       1.0  0.23970  0.92350  0.42970  1.0000
  C   C13       1.0  0.73970  0.57650  0.92970  1.0000
  C   C14       1.0  0.23970  0.07650  0.92970  1.0000
  C   C15       1.0  0.26030  0.57650  0.57030  1.0000
  C   C16       1.0  0.76030  0.07650  0.57030  1.0000
  C   C17       1.0  0.21270  0.36250  0.12590  1.0000
  C   C18       1.0  0.71270  0.86250  0.12590  1.0000
  C   C19       1.0  0.78730  0.36250  0.37410  1.0000
  C   C20       1.0  0.28730  0.86250  0.37410  1.0000
  C   C21       1.0  0.78730  0.63750  0.87410  1.0000
  C   C22       1.0  0.28730  0.13750  0.87410  1.0000
  C   C23       1.0  0.21270  0.63750  0.62590  1.0000
  C   C24       1.0  0.71270  0.13750  0.62590  1.0000
  H   H1        1.0  0.23310  0.36150  0.21460  1.0000
  H   H2        1.0  0.73310  0.86150  0.21460  1.0000
  H   H3        1.0  0.76690  0.36150  0.28540  1.0000
  H   H4        1.0  0.26690  0.86150  0.28540  1.0000
  H   H5        1.0  0.76690  0.63850  0.78540  1.0000
  H   H6        1.0  0.26690  0.13850  0.78540  1.0000
  H   H7        1.0  0.23310  0.63850  0.71460  1.0000
  H   H8        1.0  0.73310  0.13850  0.71460  1.0000
  C   C25       1.0  0.13490  0.30300  0.05070  1.0000
  C   C26       1.0  0.63490  0.80300  0.05070  1.0000
  C   C27       1.0  0.86510  0.30300  0.44930  1.0000
  C   C28       1.0  0.36510  0.80300  0.44930  1.0000
  C   C29       1.0  0.86510  0.69700  0.94930  1.0000
  C   C30       1.0  0.36510  0.19700  0.94930  1.0000
  C   C31       1.0  0.13490  0.69700  0.55070  1.0000
  C   C32       1.0  0.63490  0.19700  0.55070  1.0000
  C   C33       1.0  0.08510  0.23490  0.11150  1.0000
  C   C34       1.0  0.58510  0.73490  0.11150  1.0000
  C   C35       1.0  0.91490  0.23490  0.38850  1.0000
  C   C36       1.0  0.41490  0.73490  0.38850  1.0000
  C   C37       1.0  0.91490  0.76510  0.88850  1.0000
  C   C38       1.0  0.41490  0.26510  0.88850  1.0000
  C   C39       1.0  0.08510  0.76510  0.61150  1.0000
  C   C40       1.0  0.58510  0.26510  0.61150  1.0000
  C   C41       1.0  0.10390  0.30600  0.91800  1.0000
  C   C42       1.0  0.60390  0.80600  0.91800  1.0000
  C   C43       1.0  0.89610  0.30600  0.58200  1.0000
  C   C44       1.0  0.39610  0.80600  0.58200  1.0000
  C   C45       1.0  0.89610  0.69400  0.08200  1.0000
  C   C46       1.0  0.39610  0.19400  0.08200  1.0000
  C   C47       1.0  0.10390  0.69400  0.41800  1.0000
  C   C48       1.0  0.60390  0.19400  0.41800  1.0000
  H   H9        1.0  0.05220  0.26600  0.86670  1.0000
  H   H10       1.0  0.55220  0.76600  0.86670  1.0000
  H   H11       1.0  0.94780  0.26600  0.63330  1.0000
  H   H12       1.0  0.44780  0.76600  0.63330  1.0000
  H   H13       1.0  0.94780  0.73400  0.13330  1.0000
  H   H14       1.0  0.44780  0.23400  0.13330  1.0000
  H   H15       1.0  0.05220  0.73400  0.36670  1.0000
  H   H16       1.0  0.55220  0.23400  0.36670  1.0000
  C   C49       1.0  0.22810  0.42690  0.93750  1.0000
  C   C50       1.0  0.72810  0.92690  0.93750  1.0000
  C   C51       1.0  0.77190  0.42690  0.56250  1.0000
  C   C52       1.0  0.27190  0.92690  0.56250  1.0000
  C   C53       1.0  0.77190  0.57310  0.06250  1.0000
  C   C54       1.0  0.27190  0.07310  0.06250  1.0000
  C   C55       1.0  0.22810  0.57310  0.43750  1.0000
  C   C56       1.0  0.72810  0.07310  0.43750  1.0000
  H   H17       1.0  0.25900  0.46810  0.89940  1.0000
  H   H18       1.0  0.75900  0.96810  0.89940  1.0000
  H   H19       1.0  0.74100  0.46810  0.60060  1.0000
  H   H20       1.0  0.24100  0.96810  0.60060  1.0000
  H   H21       1.0  0.74100  0.53190  0.10060  1.0000
  H   H22       1.0  0.24100  0.03190  0.10060  1.0000
  H   H23       1.0  0.25900  0.53190  0.39940  1.0000
  H   H24       1.0  0.75900  0.03190  0.39940  1.0000
  C   C57       1.0  0.14960  0.36840  0.86230  1.0000
  C   C58       1.0  0.64960  0.86840  0.86230  1.0000
  C   C59       1.0  0.85040  0.36840  0.63770  1.0000
  C   C60       1.0  0.35040  0.86840  0.63770  1.0000
  C   C61       1.0  0.85040  0.63160  0.13770  1.0000
  C   C62       1.0  0.35040  0.13160  0.13770  1.0000
  C   C63       1.0  0.14960  0.63160  0.36230  1.0000
  C   C64       1.0  0.64960  0.13160  0.36230  1.0000
  H   H25       1.0  0.12760  0.37120  0.77340  1.0000
  H   H26       1.0  0.62760  0.87120  0.77340  1.0000
  H   H27       1.0  0.87240  0.37120  0.72660  1.0000
  H   H28       1.0  0.37240  0.87120  0.72660  1.0000
  H   H29       1.0  0.87240  0.62880  0.22660  1.0000
  H   H30       1.0  0.37240  0.12880  0.22660  1.0000
  H   H31       1.0  0.12760  0.62880  0.27340  1.0000
  H   H32       1.0  0.62760  0.12880  0.27340  1.0000
  O   O1        1.0  0.38530  0.54120  0.09600  1.0000
  O   O2        1.0  0.88530  0.04120  0.09600  1.0000
  O   O3        1.0  0.61470  0.54120  0.40400  1.0000
  O   O4        1.0  0.11470  0.04120  0.40400  1.0000
  O   O5        1.0  0.61470  0.45880  0.90400  1.0000
  O   O6        1.0  0.11470  0.95880  0.90400  1.0000
  O   O7        1.0  0.38530  0.45880  0.59600  1.0000
  O   O8        1.0  0.88530  0.95880  0.59600  1.0000
  O   O9        1.0  0.37670  0.48100  0.27300  1.0000
  O   O10       1.0  0.87670  0.98100  0.27300  1.0000
  O   O11       1.0  0.62330  0.48100  0.22700  1.0000
  O   O12       1.0  0.12330  0.98100  0.22700  1.0000
  O   O13       1.0  0.62330  0.51900  0.72700  1.0000
  O   O14       1.0  0.12330  0.01900  0.72700  1.0000
  O   O15       1.0  0.37670  0.51900  0.77300  1.0000
  O   O16       1.0  0.87670  0.01900  0.77300  1.0000
  O   O17       1.0  0.02490  0.17300  0.04460  1.0000
  O   O18       1.0  0.52490  0.67300  0.04460  1.0000
  O   O19       1.0  0.97510  0.17300  0.45540  1.0000
  O   O20       1.0  0.47510  0.67300  0.45540  1.0000
  O   O21       1.0  0.97510  0.82700  0.95540  1.0000
  O   O22       1.0  0.47510  0.32700  0.95540  1.0000
  O   O23       1.0  0.02490  0.82700  0.54460  1.0000
  O   O24       1.0  0.52490  0.32700  0.54460  1.0000
  O   O25       1.0  0.10530  0.24330  0.22930  1.0000
  O   O26       1.0  0.60530  0.74330  0.22930  1.0000
  O   O27       1.0  0.89470  0.24330  0.27070  1.0000
  O   O28       1.0  0.39470  0.74330  0.27070  1.0000
  O   O29       1.0  0.89470  0.75670  0.77070  1.0000
  O   O30       1.0  0.39470  0.25670  0.77070  1.0000
  O   O31       1.0  0.10530  0.75670  0.72930  1.0000
  O   O32       1.0  0.60530  0.25670  0.72930  1.0000
  Na  Na1       1.0  0.50000  0.50000  0.00000  1.0000
  Na  Na2       1.0  0.00000  0.00000  0.00000  1.0000
  Na  Na3       1.0  0.50000  0.50000  0.50000  1.0000
  Na  Na4       1.0  0.00000  0.00000  0.50000  1.0000
  Cd  Cd1       1.0  0.50000  0.62767  0.25000  1.0000
  Cd  Cd2       1.0  0.00000  0.12767  0.25000  1.0000
  Cd  Cd3       1.0  0.50000  0.37233  0.75000  1.0000
  Cd  Cd4       1.0  0.00000  0.87233  0.75000  1.0000
