data_image0
_chemical_formula_structural       C8H4C8H4C12N4O28U4
_chemical_formula_sum              "C28 H8 N4 O28 U4"
_cell_length_a       9.3588
_cell_length_b       12.8986
_cell_length_c       13.0717
_cell_angle_alpha    90
_cell_angle_beta     97.534
_cell_angle_gamma    90

_space_group_name_H-M_alt    "P 1"
_space_group_IT_number       1

loop_
  _space_group_symop_operation_xyz
  'x, y, z'

loop_
  _atom_site_type_symbol
  _atom_site_label
  _atom_site_symmetry_multiplicity
  _atom_site_fract_x
  _atom_site_fract_y
  _atom_site_fract_z
  _atom_site_occupancy
  C   C1        1.0  0.36610  0.69573  0.39688  1.0000
  C   C2        1.0  0.13390  0.19573  0.10312  1.0000
  C   C3        1.0  0.63390  0.30427  0.60312  1.0000
  C   C4        1.0  0.86610  0.80427  0.89688  1.0000
  C   C5        1.0  0.42472  0.63147  0.47501  1.0000
  C   C6        1.0  0.07528  0.13147  0.02499  1.0000
  C   C7        1.0  0.57528  0.36853  0.52499  1.0000
  C   C8        1.0  0.92472  0.86853  0.97501  1.0000
  H   H1        1.0  0.38260  0.56760  0.48500  1.0000
  H   H2        1.0  0.11740  0.06760  0.01500  1.0000
  H   H3        1.0  0.61740  0.43240  0.51500  1.0000
  H   H4        1.0  0.88260  0.93240  0.98500  1.0000
  C   C9        1.0  0.54224  0.81895  0.43748  1.0000
  C   C10       1.0  0.95776  0.31895  0.06252  1.0000
  C   C11       1.0  0.45776  0.18105  0.56252  1.0000
  C   C12       1.0  0.04224  0.68105  0.93748  1.0000
  C   C13       1.0  0.61018  0.75952  0.51764  1.0000
  C   C14       1.0  0.88982  0.25952  0.98236  1.0000
  C   C15       1.0  0.38982  0.24048  0.48236  1.0000
  C   C16       1.0  0.11018  0.74048  0.01764  1.0000
  H   H5        1.0  0.69470  0.78280  0.55610  1.0000
  H   H6        1.0  0.80530  0.28280  0.94390  1.0000
  H   H7        1.0  0.30530  0.21720  0.44390  1.0000
  H   H8        1.0  0.19470  0.71720  0.05610  1.0000
  C   C17       1.0  0.59900  0.92110  0.40455  1.0000
  C   C18       1.0  0.90100  0.42110  0.09545  1.0000
  C   C19       1.0  0.40100  0.07890  0.59545  1.0000
  C   C20       1.0  0.09900  0.57890  0.90455  1.0000
  C   C21       1.0  0.23690  0.66726  0.32115  1.0000
  C   C22       1.0  0.26310  0.16726  0.17885  1.0000
  C   C23       1.0  0.76310  0.33274  0.67885  1.0000
  C   C24       1.0  0.73690  0.83274  0.82115  1.0000
  C   C25       1.0  0.54986  0.66326  0.54040  1.0000
  C   C26       1.0  0.95014  0.16326  0.95960  1.0000
  C   C27       1.0  0.45014  0.33674  0.45960  1.0000
  C   C28       1.0  0.04986  0.83674  0.04040  1.0000
  N   N1        1.0  0.42030  0.78951  0.37795  1.0000
  N   N2        1.0  0.07970  0.28951  0.12205  1.0000
  N   N3        1.0  0.57970  0.21049  0.62205  1.0000
  N   N4        1.0  0.92030  0.71049  0.87795  1.0000
  O   O1        1.0  0.40872  0.85763  0.15215  1.0000
  O   O2        1.0  0.09128  0.35763  0.34785  1.0000
  O   O3        1.0  0.59128  0.14237  0.84785  1.0000
  O   O4        1.0  0.90872  0.64237  0.65215  1.0000
  O   O5        1.0  0.18595  0.95894  0.32814  1.0000
  O   O6        1.0  0.31405  0.45894  0.17186  1.0000
  O   O7        1.0  0.81405  0.04106  0.67186  1.0000
  O   O8        1.0  0.68595  0.54106  0.82814  1.0000
  O   O9        1.0  0.60314  0.60356  0.61634  1.0000
  O   O10       1.0  0.89686  0.10356  0.88366  1.0000
  O   O11       1.0  0.39686  0.39644  0.38366  1.0000
  O   O12       1.0  0.10314  0.89644  0.11634  1.0000
  O   O13       1.0  0.18448  0.57736  0.32624  1.0000
  O   O14       1.0  0.31552  0.07736  0.17376  1.0000
  O   O15       1.0  0.81552  0.42264  0.67376  1.0000
  O   O16       1.0  0.68448  0.92264  0.82624  1.0000
  O   O17       1.0  0.51050  0.97201  0.33977  1.0000
  O   O18       1.0  0.98950  0.47201  0.16023  1.0000
  O   O19       1.0  0.48950  0.02799  0.66023  1.0000
  O   O20       1.0  0.01050  0.52799  0.83977  1.0000
  O   O21       1.0  0.72358  0.94847  0.43598  1.0000
  O   O22       1.0  0.77642  0.44847  0.06402  1.0000
  O   O23       1.0  0.27642  0.05153  0.56402  1.0000
  O   O24       1.0  0.22358  0.55153  0.93598  1.0000
  O   O25       1.0  0.19019  0.73617  0.25752  1.0000
  O   O26       1.0  0.30981  0.23617  0.24248  1.0000
  O   O27       1.0  0.80981  0.26383  0.74248  1.0000
  O   O28       1.0  0.69019  0.76383  0.75752  1.0000
  U   U1        1.0  0.29806  0.90850  0.24083  1.0000
  U   U2        1.0  0.20194  0.40850  0.25917  1.0000
  U   U3        1.0  0.70194  0.09150  0.75917  1.0000
  U   U4        1.0  0.79806  0.59150  0.74083  1.0000
