data_image0
_chemical_formula_structural       CuCl2O6C6H4
_chemical_formula_sum              "Cu1 Cl2 O6 C6 H4"
_cell_length_a       8.0712
_cell_length_b       11.266
_cell_length_c       4.9905
_cell_angle_alpha    97.8
_cell_angle_beta     99.58
_cell_angle_gamma    83.017

_space_group_name_H-M_alt    "P 1"
_space_group_IT_number       1

loop_
  _space_group_symop_operation_xyz
  'x, y, z'

loop_
  _atom_site_type_symbol
  _atom_site_label
  _atom_site_symmetry_multiplicity
  _atom_site_fract_x
  _atom_site_fract_y
  _atom_site_fract_z
  _atom_site_occupancy
  Cu  Cu1       1.0  0.00000  0.00000  0.00000  1.0000
  Cl  Cl1       1.0  0.41367  0.19319  0.57740  1.0000
  Cl  Cl2       1.0  0.58633  0.80681  0.42260  1.0000
  O   O1        1.0  0.75040  0.08510  0.81770  1.0000
  O   O2        1.0  0.24960  0.91490  0.18230  1.0000
  O   O3        1.0  0.82820  0.92140  0.16820  1.0000
  O   O4        1.0  0.17180  0.07860  0.83180  1.0000
  O   O5        1.0  0.00630  0.12460  0.31620  1.0000
  O   O6        1.0  0.99370  0.87540  0.68380  1.0000
  C   C1        1.0  0.37020  0.95170  0.10430  1.0000
  C   C2        1.0  0.62980  0.04830  0.89570  1.0000
  C   C3        1.0  0.32810  0.04580  0.90190  1.0000
  C   C4        1.0  0.67190  0.95420  0.09810  1.0000
  C   C5        1.0  0.45870  0.08820  0.80940  1.0000
  C   C6        1.0  0.54130  0.91180  0.19060  1.0000
  H   H1        1.0  0.05500  0.11300  0.42900  1.0000
  H   H2        1.0  0.94500  0.88700  0.57100  1.0000
  H   H3        1.0  0.00600  0.20700  0.29700  1.0000
  H   H4        1.0  0.99400  0.79300  0.70300  1.0000
