data_image0
_chemical_formula_structural       Cd8N8O48C48H16C16H16C32H16C16H16C32H16C16H16C32H16C16H16C24H16C16H16C32H16C16H16C16
_chemical_formula_sum              "Cd8 N8 O48 C312 H192"
_cell_length_a       12.0107
_cell_length_b       18.7677
_cell_length_c       37.418
_cell_angle_alpha    90
_cell_angle_beta     90
_cell_angle_gamma    90

_space_group_name_H-M_alt    "P 1"
_space_group_IT_number       1

loop_
  _space_group_symop_operation_xyz
  'x, y, z'

loop_
  _atom_site_type_symbol
  _atom_site_label
  _atom_site_symmetry_multiplicity
  _atom_site_fract_x
  _atom_site_fract_y
  _atom_site_fract_z
  _atom_site_occupancy
  Cd  Cd1       1.0  0.50000  0.25000  0.15982  1.0000
  Cd  Cd2       1.0  0.00000  0.75000  0.65982  1.0000
  Cd  Cd3       1.0  0.50000  0.75000  0.34018  1.0000
  Cd  Cd4       1.0  0.00000  0.25000  0.84018  1.0000
  Cd  Cd5       1.0  0.50000  0.75000  0.84018  1.0000
  Cd  Cd6       1.0  0.00000  0.25000  0.34018  1.0000
  Cd  Cd7       1.0  0.50000  0.25000  0.65982  1.0000
  Cd  Cd8       1.0  0.00000  0.75000  0.15982  1.0000
  N   N1        1.0  0.00000  0.75000  0.99878  1.0000
  N   N2        1.0  0.50000  0.25000  0.49878  1.0000
  N   N3        1.0  0.00000  0.25000  0.50122  1.0000
  N   N4        1.0  0.50000  0.75000  0.00122  1.0000
  N   N5        1.0  0.00000  0.25000  0.00122  1.0000
  N   N6        1.0  0.50000  0.75000  0.50122  1.0000
  N   N7        1.0  0.00000  0.75000  0.49878  1.0000
  N   N8        1.0  0.50000  0.25000  0.99878  1.0000
  O   O1        1.0  0.36063  0.29419  0.12508  1.0000
  O   O2        1.0  0.13937  0.70581  0.62508  1.0000
  O   O3        1.0  0.63937  0.79419  0.37492  1.0000
  O   O4        1.0  0.86063  0.20581  0.87492  1.0000
  O   O5        1.0  0.86063  0.79419  0.62508  1.0000
  O   O6        1.0  0.63937  0.20581  0.12508  1.0000
  O   O7        1.0  0.13937  0.29419  0.87492  1.0000
  O   O8        1.0  0.36063  0.70581  0.37492  1.0000
  O   O9        1.0  0.63937  0.70581  0.87492  1.0000
  O   O10       1.0  0.86063  0.29419  0.37492  1.0000
  O   O11       1.0  0.36063  0.20581  0.62508  1.0000
  O   O12       1.0  0.13937  0.79419  0.12508  1.0000
  O   O13       1.0  0.13937  0.20581  0.37492  1.0000
  O   O14       1.0  0.36063  0.79419  0.87492  1.0000
  O   O15       1.0  0.86063  0.70581  0.12508  1.0000
  O   O16       1.0  0.63937  0.29419  0.62508  1.0000
  O   O17       1.0  0.48826  0.36988  0.14189  1.0000
  O   O18       1.0  0.01174  0.63012  0.64189  1.0000
  O   O19       1.0  0.51174  0.86988  0.35811  1.0000
  O   O20       1.0  0.98826  0.13012  0.85811  1.0000
  O   O21       1.0  0.98826  0.86988  0.64189  1.0000
  O   O22       1.0  0.51174  0.13012  0.14189  1.0000
  O   O23       1.0  0.01174  0.36988  0.85811  1.0000
  O   O24       1.0  0.48826  0.63012  0.35811  1.0000
  O   O25       1.0  0.51174  0.63012  0.85811  1.0000
  O   O26       1.0  0.98826  0.36988  0.35811  1.0000
  O   O27       1.0  0.48826  0.13012  0.64189  1.0000
  O   O28       1.0  0.01174  0.86988  0.14189  1.0000
  O   O29       1.0  0.01174  0.13012  0.35811  1.0000
  O   O30       1.0  0.48826  0.86988  0.85811  1.0000
  O   O31       1.0  0.98826  0.63012  0.14189  1.0000
  O   O32       1.0  0.51174  0.36988  0.64189  1.0000
  O   O33       1.0  0.08700  0.76503  0.71432  1.0000
  O   O34       1.0  0.41300  0.23497  0.21432  1.0000
  O   O35       1.0  0.91300  0.26503  0.78568  1.0000
  O   O36       1.0  0.58700  0.73497  0.28568  1.0000
  O   O37       1.0  0.58700  0.26503  0.21432  1.0000
  O   O38       1.0  0.91300  0.73497  0.71432  1.0000
  O   O39       1.0  0.41300  0.76503  0.28568  1.0000
  O   O40       1.0  0.08700  0.23497  0.78568  1.0000
  O   O41       1.0  0.91300  0.23497  0.28568  1.0000
  O   O42       1.0  0.58700  0.76503  0.78568  1.0000
  O   O43       1.0  0.08700  0.73497  0.21432  1.0000
  O   O44       1.0  0.41300  0.26503  0.71432  1.0000
  O   O45       1.0  0.41300  0.73497  0.78568  1.0000
  O   O46       1.0  0.08700  0.26503  0.28568  1.0000
  O   O47       1.0  0.58700  0.23497  0.71432  1.0000
  O   O48       1.0  0.91300  0.76503  0.21432  1.0000
  C   C1        1.0  0.39940  0.35580  0.12536  1.0000
  C   C2        1.0  0.10060  0.64420  0.62536  1.0000
  C   C3        1.0  0.60060  0.85580  0.37464  1.0000
  C   C4        1.0  0.89940  0.14420  0.87464  1.0000
  C   C5        1.0  0.89940  0.85580  0.62536  1.0000
  C   C6        1.0  0.60060  0.14420  0.12536  1.0000
  C   C7        1.0  0.10060  0.35580  0.87464  1.0000
  C   C8        1.0  0.39940  0.64420  0.37464  1.0000
  C   C9        1.0  0.60060  0.64420  0.87464  1.0000
  C   C10       1.0  0.89940  0.35580  0.37464  1.0000
  C   C11       1.0  0.39940  0.14420  0.62536  1.0000
  C   C12       1.0  0.10060  0.85580  0.12536  1.0000
  C   C13       1.0  0.10060  0.14420  0.37464  1.0000
  C   C14       1.0  0.39940  0.85580  0.87464  1.0000
  C   C15       1.0  0.89940  0.64420  0.12536  1.0000
  C   C16       1.0  0.60060  0.35580  0.62536  1.0000
  C   C17       1.0  0.34110  0.41350  0.10500  1.0000
  C   C18       1.0  0.15890  0.58650  0.60500  1.0000
  C   C19       1.0  0.65890  0.91350  0.39500  1.0000
  C   C20       1.0  0.84110  0.08650  0.89500  1.0000
  C   C21       1.0  0.84110  0.91350  0.60500  1.0000
  C   C22       1.0  0.65890  0.08650  0.10500  1.0000
  C   C23       1.0  0.15890  0.41350  0.89500  1.0000
  C   C24       1.0  0.34110  0.58650  0.39500  1.0000
  C   C25       1.0  0.65890  0.58650  0.89500  1.0000
  C   C26       1.0  0.84110  0.41350  0.39500  1.0000
  C   C27       1.0  0.34110  0.08650  0.60500  1.0000
  C   C28       1.0  0.15890  0.91350  0.10500  1.0000
  C   C29       1.0  0.15890  0.08650  0.39500  1.0000
  C   C30       1.0  0.34110  0.91350  0.89500  1.0000
  C   C31       1.0  0.84110  0.58650  0.10500  1.0000
  C   C32       1.0  0.65890  0.41350  0.60500  1.0000
  C   C33       1.0  0.24430  0.39952  0.08755  1.0000
  C   C34       1.0  0.25570  0.60048  0.58755  1.0000
  C   C35       1.0  0.75570  0.89952  0.41245  1.0000
  C   C36       1.0  0.74430  0.10048  0.91245  1.0000
  C   C37       1.0  0.74430  0.89952  0.58755  1.0000
  C   C38       1.0  0.75570  0.10048  0.08755  1.0000
  C   C39       1.0  0.25570  0.39952  0.91245  1.0000
  C   C40       1.0  0.24430  0.60048  0.41245  1.0000
  C   C41       1.0  0.75570  0.60048  0.91245  1.0000
  C   C42       1.0  0.74430  0.39952  0.41245  1.0000
  C   C43       1.0  0.24430  0.10048  0.58755  1.0000
  C   C44       1.0  0.25570  0.89952  0.08755  1.0000
  C   C45       1.0  0.25570  0.10048  0.41245  1.0000
  C   C46       1.0  0.24430  0.89952  0.91245  1.0000
  C   C47       1.0  0.74430  0.60048  0.08755  1.0000
  C   C48       1.0  0.75570  0.39952  0.58755  1.0000
  H   H1        1.0  0.21620  0.35330  0.08750  1.0000
  H   H2        1.0  0.28380  0.64670  0.58750  1.0000
  H   H3        1.0  0.78380  0.85330  0.41250  1.0000
  H   H4        1.0  0.71620  0.14670  0.91250  1.0000
  H   H5        1.0  0.71620  0.85330  0.58750  1.0000
  H   H6        1.0  0.78380  0.14670  0.08750  1.0000
  H   H7        1.0  0.28380  0.35330  0.91250  1.0000
  H   H8        1.0  0.21620  0.64670  0.41250  1.0000
  H   H9        1.0  0.78380  0.64670  0.91250  1.0000
  H   H10       1.0  0.71620  0.35330  0.41250  1.0000
  H   H11       1.0  0.21620  0.14670  0.58750  1.0000
  H   H12       1.0  0.28380  0.85330  0.08750  1.0000
  H   H13       1.0  0.28380  0.14670  0.41250  1.0000
  H   H14       1.0  0.21620  0.85330  0.91250  1.0000
  H   H15       1.0  0.71620  0.64670  0.08750  1.0000
  H   H16       1.0  0.78380  0.35330  0.58750  1.0000
  C   C49       1.0  0.18670  0.45251  0.06984  1.0000
  C   C50       1.0  0.31330  0.54749  0.56984  1.0000
  C   C51       1.0  0.81330  0.95251  0.43016  1.0000
  C   C52       1.0  0.68670  0.04749  0.93016  1.0000
  C   C53       1.0  0.68670  0.95251  0.56984  1.0000
  C   C54       1.0  0.81330  0.04749  0.06984  1.0000
  C   C55       1.0  0.31330  0.45251  0.93016  1.0000
  C   C56       1.0  0.18670  0.54749  0.43016  1.0000
  C   C57       1.0  0.81330  0.54749  0.93016  1.0000
  C   C58       1.0  0.68670  0.45251  0.43016  1.0000
  C   C59       1.0  0.18670  0.04749  0.56984  1.0000
  C   C60       1.0  0.31330  0.95251  0.06984  1.0000
  C   C61       1.0  0.31330  0.04749  0.43016  1.0000
  C   C62       1.0  0.18670  0.95251  0.93016  1.0000
  C   C63       1.0  0.68670  0.54749  0.06984  1.0000
  C   C64       1.0  0.81330  0.45251  0.56984  1.0000
  H   H17       1.0  0.12150  0.44110  0.05770  1.0000
  H   H18       1.0  0.37850  0.55890  0.55770  1.0000
  H   H19       1.0  0.87850  0.94110  0.44230  1.0000
  H   H20       1.0  0.62150  0.05890  0.94230  1.0000
  H   H21       1.0  0.62150  0.94110  0.55770  1.0000
  H   H22       1.0  0.87850  0.05890  0.05770  1.0000
  H   H23       1.0  0.37850  0.44110  0.94230  1.0000
  H   H24       1.0  0.12150  0.55890  0.44230  1.0000
  H   H25       1.0  0.87850  0.55890  0.94230  1.0000
  H   H26       1.0  0.62150  0.44110  0.44230  1.0000
  H   H27       1.0  0.12150  0.05890  0.55770  1.0000
  H   H28       1.0  0.37850  0.94110  0.05770  1.0000
  H   H29       1.0  0.37850  0.05890  0.44230  1.0000
  H   H30       1.0  0.12150  0.94110  0.94230  1.0000
  H   H31       1.0  0.62150  0.55890  0.05770  1.0000
  H   H32       1.0  0.87850  0.44110  0.55770  1.0000
  C   C65       1.0  0.22360  0.52159  0.06970  1.0000
  C   C66       1.0  0.27640  0.47841  0.56970  1.0000
  C   C67       1.0  0.77640  0.02159  0.43030  1.0000
  C   C68       1.0  0.72360  0.97841  0.93030  1.0000
  C   C69       1.0  0.72360  0.02159  0.56970  1.0000
  C   C70       1.0  0.77640  0.97841  0.06970  1.0000
  C   C71       1.0  0.27640  0.52159  0.93030  1.0000
  C   C72       1.0  0.22360  0.47841  0.43030  1.0000
  C   C73       1.0  0.77640  0.47841  0.93030  1.0000
  C   C74       1.0  0.72360  0.52159  0.43030  1.0000
  C   C75       1.0  0.22360  0.97841  0.56970  1.0000
  C   C76       1.0  0.27640  0.02159  0.06970  1.0000
  C   C77       1.0  0.27640  0.97841  0.43030  1.0000
  C   C78       1.0  0.22360  0.02159  0.93030  1.0000
  C   C79       1.0  0.72360  0.47841  0.06970  1.0000
  C   C80       1.0  0.77640  0.52159  0.56970  1.0000
  C   C81       1.0  0.32550  0.53452  0.08547  1.0000
  C   C82       1.0  0.17450  0.46548  0.58547  1.0000
  C   C83       1.0  0.67450  0.03452  0.41453  1.0000
  C   C84       1.0  0.82550  0.96548  0.91453  1.0000
  C   C85       1.0  0.82550  0.03452  0.58547  1.0000
  C   C86       1.0  0.67450  0.96548  0.08547  1.0000
  C   C87       1.0  0.17450  0.53452  0.91453  1.0000
  C   C88       1.0  0.32550  0.46548  0.41453  1.0000
  C   C89       1.0  0.67450  0.46548  0.91453  1.0000
  C   C90       1.0  0.82550  0.53452  0.41453  1.0000
  C   C91       1.0  0.32550  0.96548  0.58547  1.0000
  C   C92       1.0  0.17450  0.03452  0.08547  1.0000
  C   C93       1.0  0.17450  0.96548  0.41453  1.0000
  C   C94       1.0  0.32550  0.03452  0.91453  1.0000
  C   C95       1.0  0.82550  0.46548  0.08547  1.0000
  C   C96       1.0  0.67450  0.53452  0.58547  1.0000
  H   H33       1.0  0.35560  0.58010  0.08430  1.0000
  H   H34       1.0  0.14440  0.41990  0.58430  1.0000
  H   H35       1.0  0.64440  0.08010  0.41570  1.0000
  H   H36       1.0  0.85560  0.91990  0.91570  1.0000
  H   H37       1.0  0.85560  0.08010  0.58430  1.0000
  H   H38       1.0  0.64440  0.91990  0.08430  1.0000
  H   H39       1.0  0.14440  0.58010  0.91570  1.0000
  H   H40       1.0  0.35560  0.41990  0.41570  1.0000
  H   H41       1.0  0.64440  0.41990  0.91570  1.0000
  H   H42       1.0  0.85560  0.58010  0.41570  1.0000
  H   H43       1.0  0.35560  0.91990  0.58430  1.0000
  H   H44       1.0  0.14440  0.08010  0.08430  1.0000
  H   H45       1.0  0.14440  0.91990  0.41570  1.0000
  H   H46       1.0  0.35560  0.08010  0.91570  1.0000
  H   H47       1.0  0.85560  0.41990  0.08430  1.0000
  H   H48       1.0  0.64440  0.58010  0.58430  1.0000
  C   C97       1.0  0.38410  0.48131  0.10294  1.0000
  C   C98       1.0  0.11590  0.51869  0.60294  1.0000
  C   C99       1.0  0.61590  0.98131  0.39706  1.0000
  C   C100      1.0  0.88410  0.01869  0.89706  1.0000
  C   C101      1.0  0.88410  0.98131  0.60294  1.0000
  C   C102      1.0  0.61590  0.01869  0.10294  1.0000
  C   C103      1.0  0.11590  0.48131  0.89706  1.0000
  C   C104      1.0  0.38410  0.51869  0.39706  1.0000
  C   C105      1.0  0.61590  0.51869  0.89706  1.0000
  C   C106      1.0  0.88410  0.48131  0.39706  1.0000
  C   C107      1.0  0.38410  0.01869  0.60294  1.0000
  C   C108      1.0  0.11590  0.98131  0.10294  1.0000
  C   C109      1.0  0.11590  0.01869  0.39706  1.0000
  C   C110      1.0  0.38410  0.98131  0.89706  1.0000
  C   C111      1.0  0.88410  0.51869  0.10294  1.0000
  C   C112      1.0  0.61590  0.48131  0.60294  1.0000
  H   H49       1.0  0.45270  0.49150  0.11330  1.0000
  H   H50       1.0  0.04730  0.50850  0.61330  1.0000
  H   H51       1.0  0.54730  0.99150  0.38670  1.0000
  H   H52       1.0  0.95270  0.00850  0.88670  1.0000
  H   H53       1.0  0.95270  0.99150  0.61330  1.0000
  H   H54       1.0  0.54730  0.00850  0.11330  1.0000
  H   H55       1.0  0.04730  0.49150  0.88670  1.0000
  H   H56       1.0  0.45270  0.50850  0.38670  1.0000
  H   H57       1.0  0.54730  0.50850  0.88670  1.0000
  H   H58       1.0  0.95270  0.49150  0.38670  1.0000
  H   H59       1.0  0.45270  0.00850  0.61330  1.0000
  H   H60       1.0  0.04730  0.99150  0.11330  1.0000
  H   H61       1.0  0.04730  0.00850  0.38670  1.0000
  H   H62       1.0  0.45270  0.99150  0.88670  1.0000
  H   H63       1.0  0.95270  0.50850  0.11330  1.0000
  H   H64       1.0  0.54730  0.49150  0.61330  1.0000
  C   C113      1.0  0.16010  0.57972  0.05162  1.0000
  C   C114      1.0  0.33990  0.42028  0.55162  1.0000
  C   C115      1.0  0.83990  0.07972  0.44838  1.0000
  C   C116      1.0  0.66010  0.92028  0.94838  1.0000
  C   C117      1.0  0.66010  0.07972  0.55162  1.0000
  C   C118      1.0  0.83990  0.92028  0.05162  1.0000
  C   C119      1.0  0.33990  0.57972  0.94838  1.0000
  C   C120      1.0  0.16010  0.42028  0.44838  1.0000
  C   C121      1.0  0.83990  0.42028  0.94838  1.0000
  C   C122      1.0  0.66010  0.57972  0.44838  1.0000
  C   C123      1.0  0.16010  0.92028  0.55162  1.0000
  C   C124      1.0  0.33990  0.07972  0.05162  1.0000
  C   C125      1.0  0.33990  0.92028  0.44838  1.0000
  C   C126      1.0  0.16010  0.07972  0.94838  1.0000
  C   C127      1.0  0.66010  0.42028  0.05162  1.0000
  C   C128      1.0  0.83990  0.57972  0.55162  1.0000
  C   C129      1.0  0.10700  0.56964  0.01919  1.0000
  C   C130      1.0  0.39300  0.43036  0.51919  1.0000
  C   C131      1.0  0.89300  0.06964  0.48081  1.0000
  C   C132      1.0  0.60700  0.93036  0.98081  1.0000
  C   C133      1.0  0.60700  0.06964  0.51919  1.0000
  C   C134      1.0  0.89300  0.93036  0.01919  1.0000
  C   C135      1.0  0.39300  0.56964  0.98081  1.0000
  C   C136      1.0  0.10700  0.43036  0.48081  1.0000
  C   C137      1.0  0.89300  0.43036  0.98081  1.0000
  C   C138      1.0  0.60700  0.56964  0.48081  1.0000
  C   C139      1.0  0.10700  0.93036  0.51919  1.0000
  C   C140      1.0  0.39300  0.06964  0.01919  1.0000
  C   C141      1.0  0.39300  0.93036  0.48081  1.0000
  C   C142      1.0  0.10700  0.06964  0.98081  1.0000
  C   C143      1.0  0.60700  0.43036  0.01919  1.0000
  C   C144      1.0  0.89300  0.56964  0.51919  1.0000
  H   H65       1.0  0.10840  0.52490  0.00850  1.0000
  H   H66       1.0  0.39160  0.47510  0.50850  1.0000
  H   H67       1.0  0.89160  0.02490  0.49150  1.0000
  H   H68       1.0  0.60840  0.97510  0.99150  1.0000
  H   H69       1.0  0.60840  0.02490  0.50850  1.0000
  H   H70       1.0  0.89160  0.97510  0.00850  1.0000
  H   H71       1.0  0.39160  0.52490  0.99150  1.0000
  H   H72       1.0  0.10840  0.47510  0.49150  1.0000
  H   H73       1.0  0.89160  0.47510  0.99150  1.0000
  H   H74       1.0  0.60840  0.52490  0.49150  1.0000
  H   H75       1.0  0.10840  0.97510  0.50850  1.0000
  H   H76       1.0  0.39160  0.02490  0.00850  1.0000
  H   H77       1.0  0.39160  0.97510  0.49150  1.0000
  H   H78       1.0  0.10840  0.02490  0.99150  1.0000
  H   H79       1.0  0.60840  0.47510  0.00850  1.0000
  H   H80       1.0  0.89160  0.52490  0.50850  1.0000
  C   C145      1.0  0.05200  0.62489  0.00244  1.0000
  C   C146      1.0  0.44800  0.37511  0.50244  1.0000
  C   C147      1.0  0.94800  0.12489  0.49756  1.0000
  C   C148      1.0  0.55200  0.87511  0.99756  1.0000
  C   C149      1.0  0.55200  0.12489  0.50244  1.0000
  C   C150      1.0  0.94800  0.87511  0.00244  1.0000
  C   C151      1.0  0.44800  0.62489  0.99756  1.0000
  C   C152      1.0  0.05200  0.37511  0.49756  1.0000
  C   C153      1.0  0.94800  0.37511  0.99756  1.0000
  C   C154      1.0  0.55200  0.62489  0.49756  1.0000
  C   C155      1.0  0.05200  0.87511  0.50244  1.0000
  C   C156      1.0  0.44800  0.12489  0.00244  1.0000
  C   C157      1.0  0.44800  0.87511  0.49756  1.0000
  C   C158      1.0  0.05200  0.12489  0.99756  1.0000
  C   C159      1.0  0.55200  0.37511  0.00244  1.0000
  C   C160      1.0  0.94800  0.62489  0.50244  1.0000
  H   H81       1.0  0.01470  0.61640  0.98110  1.0000
  H   H82       1.0  0.48530  0.38360  0.48110  1.0000
  H   H83       1.0  0.98530  0.11640  0.51890  1.0000
  H   H84       1.0  0.51470  0.88360  0.01890  1.0000
  H   H85       1.0  0.51470  0.11640  0.48110  1.0000
  H   H86       1.0  0.98530  0.88360  0.98110  1.0000
  H   H87       1.0  0.48530  0.61640  0.01890  1.0000
  H   H88       1.0  0.01470  0.38360  0.51890  1.0000
  H   H89       1.0  0.98530  0.38360  0.01890  1.0000
  H   H90       1.0  0.51470  0.61640  0.51890  1.0000
  H   H91       1.0  0.01470  0.88360  0.48110  1.0000
  H   H92       1.0  0.48530  0.11640  0.98110  1.0000
  H   H93       1.0  0.48530  0.88360  0.51890  1.0000
  H   H94       1.0  0.01470  0.11640  0.01890  1.0000
  H   H95       1.0  0.51470  0.38360  0.98110  1.0000
  H   H96       1.0  0.98530  0.61640  0.48110  1.0000
  C   C161      1.0  0.05150  0.69275  0.01693  1.0000
  C   C162      1.0  0.44850  0.30725  0.51693  1.0000
  C   C163      1.0  0.94850  0.19275  0.48307  1.0000
  C   C164      1.0  0.55150  0.80725  0.98307  1.0000
  C   C165      1.0  0.55150  0.19275  0.51693  1.0000
  C   C166      1.0  0.94850  0.80725  0.01693  1.0000
  C   C167      1.0  0.44850  0.69275  0.98307  1.0000
  C   C168      1.0  0.05150  0.30725  0.48307  1.0000
  C   C169      1.0  0.94850  0.30725  0.98307  1.0000
  C   C170      1.0  0.55150  0.69275  0.48307  1.0000
  C   C171      1.0  0.05150  0.80725  0.51693  1.0000
  C   C172      1.0  0.44850  0.19275  0.01693  1.0000
  C   C173      1.0  0.44850  0.80725  0.48307  1.0000
  C   C174      1.0  0.05150  0.19275  0.98307  1.0000
  C   C175      1.0  0.55150  0.30725  0.01693  1.0000
  C   C176      1.0  0.94850  0.69275  0.51693  1.0000
  C   C177      1.0  0.10360  0.70299  0.04963  1.0000
  C   C178      1.0  0.39640  0.29701  0.54963  1.0000
  C   C179      1.0  0.89640  0.20299  0.45037  1.0000
  C   C180      1.0  0.60360  0.79701  0.95037  1.0000
  C   C181      1.0  0.60360  0.20299  0.54963  1.0000
  C   C182      1.0  0.89640  0.79701  0.04963  1.0000
  C   C183      1.0  0.39640  0.70299  0.95037  1.0000
  C   C184      1.0  0.10360  0.29701  0.45037  1.0000
  C   C185      1.0  0.89640  0.29701  0.95037  1.0000
  C   C186      1.0  0.60360  0.70299  0.45037  1.0000
  C   C187      1.0  0.10360  0.79701  0.54963  1.0000
  C   C188      1.0  0.39640  0.20299  0.04963  1.0000
  C   C189      1.0  0.39640  0.79701  0.45037  1.0000
  C   C190      1.0  0.10360  0.20299  0.95037  1.0000
  C   C191      1.0  0.60360  0.29701  0.04963  1.0000
  C   C192      1.0  0.89640  0.70299  0.54963  1.0000
  H   H97       1.0  0.10380  0.74790  0.06010  1.0000
  H   H98       1.0  0.39620  0.25210  0.56010  1.0000
  H   H99       1.0  0.89620  0.24790  0.43990  1.0000
  H   H100      1.0  0.60380  0.75210  0.93990  1.0000
  H   H101      1.0  0.60380  0.24790  0.56010  1.0000
  H   H102      1.0  0.89620  0.75210  0.06010  1.0000
  H   H103      1.0  0.39620  0.74790  0.93990  1.0000
  H   H104      1.0  0.10380  0.25210  0.43990  1.0000
  H   H105      1.0  0.89620  0.25210  0.93990  1.0000
  H   H106      1.0  0.60380  0.74790  0.43990  1.0000
  H   H107      1.0  0.10380  0.75210  0.56010  1.0000
  H   H108      1.0  0.39620  0.24790  0.06010  1.0000
  H   H109      1.0  0.39620  0.75210  0.43990  1.0000
  H   H110      1.0  0.10380  0.24790  0.93990  1.0000
  H   H111      1.0  0.60380  0.25210  0.06010  1.0000
  H   H112      1.0  0.89620  0.74790  0.56010  1.0000
  C   C193      1.0  0.15500  0.64683  0.06665  1.0000
  C   C194      1.0  0.34500  0.35317  0.56665  1.0000
  C   C195      1.0  0.84500  0.14683  0.43335  1.0000
  C   C196      1.0  0.65500  0.85317  0.93335  1.0000
  C   C197      1.0  0.65500  0.14683  0.56665  1.0000
  C   C198      1.0  0.84500  0.85317  0.06665  1.0000
  C   C199      1.0  0.34500  0.64683  0.93335  1.0000
  C   C200      1.0  0.15500  0.35317  0.43335  1.0000
  C   C201      1.0  0.84500  0.35317  0.93335  1.0000
  C   C202      1.0  0.65500  0.64683  0.43335  1.0000
  C   C203      1.0  0.15500  0.85317  0.56665  1.0000
  C   C204      1.0  0.34500  0.14683  0.06665  1.0000
  C   C205      1.0  0.34500  0.85317  0.43335  1.0000
  C   C206      1.0  0.15500  0.14683  0.93335  1.0000
  C   C207      1.0  0.65500  0.35317  0.06665  1.0000
  C   C208      1.0  0.84500  0.64683  0.56665  1.0000
  H   H113      1.0  0.18720  0.65430  0.08890  1.0000
  H   H114      1.0  0.31280  0.34570  0.58890  1.0000
  H   H115      1.0  0.81280  0.15430  0.41110  1.0000
  H   H116      1.0  0.68720  0.84570  0.91110  1.0000
  H   H117      1.0  0.68720  0.15430  0.58890  1.0000
  H   H118      1.0  0.81280  0.84570  0.08890  1.0000
  H   H119      1.0  0.31280  0.65430  0.91110  1.0000
  H   H120      1.0  0.18720  0.34570  0.41110  1.0000
  H   H121      1.0  0.81280  0.34570  0.91110  1.0000
  H   H122      1.0  0.68720  0.65430  0.41110  1.0000
  H   H123      1.0  0.18720  0.84570  0.58890  1.0000
  H   H124      1.0  0.31280  0.15430  0.08890  1.0000
  H   H125      1.0  0.31280  0.84570  0.41110  1.0000
  H   H126      1.0  0.18720  0.15430  0.91110  1.0000
  H   H127      1.0  0.68720  0.34570  0.08890  1.0000
  H   H128      1.0  0.81280  0.65430  0.58890  1.0000
  C   C209      1.0  0.00000  0.75000  0.96040  1.0000
  C   C210      1.0  0.50000  0.25000  0.46040  1.0000
  C   C211      1.0  0.00000  0.25000  0.53960  1.0000
  C   C212      1.0  0.50000  0.75000  0.03960  1.0000
  C   C213      1.0  0.00000  0.25000  0.03960  1.0000
  C   C214      1.0  0.50000  0.75000  0.53960  1.0000
  C   C215      1.0  0.00000  0.75000  0.46040  1.0000
  C   C216      1.0  0.50000  0.25000  0.96040  1.0000
  C   C217      1.0  0.09580  0.73602  0.94177  1.0000
  C   C218      1.0  0.40420  0.26398  0.44177  1.0000
  C   C219      1.0  0.90420  0.23602  0.55823  1.0000
  C   C220      1.0  0.59580  0.76398  0.05823  1.0000
  C   C221      1.0  0.59580  0.23602  0.44177  1.0000
  C   C222      1.0  0.90420  0.76398  0.94177  1.0000
  C   C223      1.0  0.40420  0.73602  0.05823  1.0000
  C   C224      1.0  0.09580  0.26398  0.55823  1.0000
  C   C225      1.0  0.90420  0.26398  0.05823  1.0000
  C   C226      1.0  0.59580  0.73602  0.55823  1.0000
  C   C227      1.0  0.09580  0.76398  0.44177  1.0000
  C   C228      1.0  0.40420  0.23602  0.94177  1.0000
  C   C229      1.0  0.40420  0.76398  0.55823  1.0000
  C   C230      1.0  0.09580  0.23602  0.05823  1.0000
  C   C231      1.0  0.59580  0.26398  0.94177  1.0000
  C   C232      1.0  0.90420  0.73602  0.44177  1.0000
  H   H129      1.0  0.16150  0.72680  0.95410  1.0000
  H   H130      1.0  0.33850  0.27320  0.45410  1.0000
  H   H131      1.0  0.83850  0.22680  0.54590  1.0000
  H   H132      1.0  0.66150  0.77320  0.04590  1.0000
  H   H133      1.0  0.66150  0.22680  0.45410  1.0000
  H   H134      1.0  0.83850  0.77320  0.95410  1.0000
  H   H135      1.0  0.33850  0.72680  0.04590  1.0000
  H   H136      1.0  0.16150  0.27320  0.54590  1.0000
  H   H137      1.0  0.83850  0.27320  0.04590  1.0000
  H   H138      1.0  0.66150  0.72680  0.54590  1.0000
  H   H139      1.0  0.16150  0.77320  0.45410  1.0000
  H   H140      1.0  0.33850  0.22680  0.95410  1.0000
  H   H141      1.0  0.33850  0.77320  0.54590  1.0000
  H   H142      1.0  0.16150  0.22680  0.04590  1.0000
  H   H143      1.0  0.66150  0.27320  0.95410  1.0000
  H   H144      1.0  0.83850  0.72680  0.45410  1.0000
  C   C233      1.0  0.09520  0.73549  0.90471  1.0000
  C   C234      1.0  0.40480  0.26451  0.40471  1.0000
  C   C235      1.0  0.90480  0.23549  0.59529  1.0000
  C   C236      1.0  0.59520  0.76451  0.09529  1.0000
  C   C237      1.0  0.59520  0.23549  0.40471  1.0000
  C   C238      1.0  0.90480  0.76451  0.90471  1.0000
  C   C239      1.0  0.40480  0.73549  0.09529  1.0000
  C   C240      1.0  0.09520  0.26451  0.59529  1.0000
  C   C241      1.0  0.90480  0.26451  0.09529  1.0000
  C   C242      1.0  0.59520  0.73549  0.59529  1.0000
  C   C243      1.0  0.09520  0.76451  0.40471  1.0000
  C   C244      1.0  0.40480  0.23549  0.90471  1.0000
  C   C245      1.0  0.40480  0.76451  0.59529  1.0000
  C   C246      1.0  0.09520  0.23549  0.09529  1.0000
  C   C247      1.0  0.59520  0.26451  0.90471  1.0000
  C   C248      1.0  0.90480  0.73549  0.40471  1.0000
  H   H145      1.0  0.16060  0.72510  0.89250  1.0000
  H   H146      1.0  0.33940  0.27490  0.39250  1.0000
  H   H147      1.0  0.83940  0.22510  0.60750  1.0000
  H   H148      1.0  0.66060  0.77490  0.10750  1.0000
  H   H149      1.0  0.66060  0.22510  0.39250  1.0000
  H   H150      1.0  0.83940  0.77490  0.89250  1.0000
  H   H151      1.0  0.33940  0.72510  0.10750  1.0000
  H   H152      1.0  0.16060  0.27490  0.60750  1.0000
  H   H153      1.0  0.83940  0.27490  0.10750  1.0000
  H   H154      1.0  0.66060  0.72510  0.60750  1.0000
  H   H155      1.0  0.16060  0.77490  0.39250  1.0000
  H   H156      1.0  0.33940  0.22510  0.89250  1.0000
  H   H157      1.0  0.33940  0.77490  0.60750  1.0000
  H   H158      1.0  0.16060  0.22510  0.10750  1.0000
  H   H159      1.0  0.66060  0.27490  0.89250  1.0000
  H   H160      1.0  0.83940  0.72510  0.39250  1.0000
  C   C249      1.0  0.00000  0.75000  0.88561  1.0000
  C   C250      1.0  0.50000  0.25000  0.38561  1.0000
  C   C251      1.0  0.00000  0.25000  0.61439  1.0000
  C   C252      1.0  0.50000  0.75000  0.11439  1.0000
  C   C253      1.0  0.00000  0.25000  0.11439  1.0000
  C   C254      1.0  0.50000  0.75000  0.61439  1.0000
  C   C255      1.0  0.00000  0.75000  0.38561  1.0000
  C   C256      1.0  0.50000  0.25000  0.88561  1.0000
  C   C257      1.0  0.00000  0.75000  0.84574  1.0000
  C   C258      1.0  0.50000  0.25000  0.34574  1.0000
  C   C259      1.0  0.00000  0.25000  0.65426  1.0000
  C   C260      1.0  0.50000  0.75000  0.15426  1.0000
  C   C261      1.0  0.00000  0.25000  0.15426  1.0000
  C   C262      1.0  0.50000  0.75000  0.65426  1.0000
  C   C263      1.0  0.00000  0.75000  0.34574  1.0000
  C   C264      1.0  0.50000  0.25000  0.84574  1.0000
  C   C265      1.0  0.09690  0.76320  0.82658  1.0000
  C   C266      1.0  0.40310  0.23680  0.32658  1.0000
  C   C267      1.0  0.90310  0.26320  0.67342  1.0000
  C   C268      1.0  0.59690  0.73680  0.17342  1.0000
  C   C269      1.0  0.59690  0.26320  0.32658  1.0000
  C   C270      1.0  0.90310  0.73680  0.82658  1.0000
  C   C271      1.0  0.40310  0.76320  0.17342  1.0000
  C   C272      1.0  0.09690  0.23680  0.67342  1.0000
  C   C273      1.0  0.90310  0.23680  0.17342  1.0000
  C   C274      1.0  0.59690  0.76320  0.67342  1.0000
  C   C275      1.0  0.09690  0.73680  0.32658  1.0000
  C   C276      1.0  0.40310  0.26320  0.82658  1.0000
  C   C277      1.0  0.40310  0.73680  0.67342  1.0000
  C   C278      1.0  0.09690  0.26320  0.17342  1.0000
  C   C279      1.0  0.59690  0.23680  0.82658  1.0000
  C   C280      1.0  0.90310  0.76320  0.32658  1.0000
  H   H161      1.0  0.16290  0.77220  0.83880  1.0000
  H   H162      1.0  0.33710  0.22780  0.33880  1.0000
  H   H163      1.0  0.83710  0.27220  0.66120  1.0000
  H   H164      1.0  0.66290  0.72780  0.16120  1.0000
  H   H165      1.0  0.66290  0.27220  0.33880  1.0000
  H   H166      1.0  0.83710  0.72780  0.83880  1.0000
  H   H167      1.0  0.33710  0.77220  0.16120  1.0000
  H   H168      1.0  0.16290  0.22780  0.66120  1.0000
  H   H169      1.0  0.83710  0.22780  0.16120  1.0000
  H   H170      1.0  0.66290  0.77220  0.66120  1.0000
  H   H171      1.0  0.16290  0.72780  0.33880  1.0000
  H   H172      1.0  0.33710  0.27220  0.83880  1.0000
  H   H173      1.0  0.33710  0.72780  0.66120  1.0000
  H   H174      1.0  0.16290  0.27220  0.16120  1.0000
  H   H175      1.0  0.66290  0.22780  0.83880  1.0000
  H   H176      1.0  0.83710  0.77220  0.33880  1.0000
  C   C281      1.0  0.09700  0.76320  0.78961  1.0000
  C   C282      1.0  0.40300  0.23680  0.28961  1.0000
  C   C283      1.0  0.90300  0.26320  0.71039  1.0000
  C   C284      1.0  0.59700  0.73680  0.21039  1.0000
  C   C285      1.0  0.59700  0.26320  0.28961  1.0000
  C   C286      1.0  0.90300  0.73680  0.78961  1.0000
  C   C287      1.0  0.40300  0.76320  0.21039  1.0000
  C   C288      1.0  0.09700  0.23680  0.71039  1.0000
  C   C289      1.0  0.90300  0.23680  0.21039  1.0000
  C   C290      1.0  0.59700  0.76320  0.71039  1.0000
  C   C291      1.0  0.09700  0.73680  0.28961  1.0000
  C   C292      1.0  0.40300  0.26320  0.78961  1.0000
  C   C293      1.0  0.40300  0.73680  0.71039  1.0000
  C   C294      1.0  0.09700  0.26320  0.21039  1.0000
  C   C295      1.0  0.59700  0.23680  0.78961  1.0000
  C   C296      1.0  0.90300  0.76320  0.28961  1.0000
  H   H177      1.0  0.16290  0.77210  0.77730  1.0000
  H   H178      1.0  0.33710  0.22790  0.27730  1.0000
  H   H179      1.0  0.83710  0.27210  0.72270  1.0000
  H   H180      1.0  0.66290  0.72790  0.22270  1.0000
  H   H181      1.0  0.66290  0.27210  0.27730  1.0000
  H   H182      1.0  0.83710  0.72790  0.77730  1.0000
  H   H183      1.0  0.33710  0.77210  0.22270  1.0000
  H   H184      1.0  0.16290  0.22790  0.72270  1.0000
  H   H185      1.0  0.83710  0.22790  0.22270  1.0000
  H   H186      1.0  0.66290  0.77210  0.72270  1.0000
  H   H187      1.0  0.16290  0.72790  0.27730  1.0000
  H   H188      1.0  0.33710  0.27210  0.77730  1.0000
  H   H189      1.0  0.33710  0.72790  0.72270  1.0000
  H   H190      1.0  0.16290  0.27210  0.22270  1.0000
  H   H191      1.0  0.66290  0.22790  0.77730  1.0000
  H   H192      1.0  0.83710  0.77210  0.27730  1.0000
  C   C297      1.0  0.00000  0.75000  0.77072  1.0000
  C   C298      1.0  0.50000  0.25000  0.27072  1.0000
  C   C299      1.0  0.00000  0.25000  0.72928  1.0000
  C   C300      1.0  0.50000  0.75000  0.22928  1.0000
  C   C301      1.0  0.00000  0.25000  0.22928  1.0000
  C   C302      1.0  0.50000  0.75000  0.72928  1.0000
  C   C303      1.0  0.00000  0.75000  0.27072  1.0000
  C   C304      1.0  0.50000  0.25000  0.77072  1.0000
  C   C305      1.0  0.00000  0.75000  0.73083  1.0000
  C   C306      1.0  0.50000  0.25000  0.23083  1.0000
  C   C307      1.0  0.00000  0.25000  0.76917  1.0000
  C   C308      1.0  0.50000  0.75000  0.26917  1.0000
  C   C309      1.0  0.00000  0.25000  0.26917  1.0000
  C   C310      1.0  0.50000  0.75000  0.76917  1.0000
  C   C311      1.0  0.00000  0.75000  0.23083  1.0000
  C   C312      1.0  0.50000  0.25000  0.73083  1.0000
