data_image0
_chemical_formula_structural       Zn6N2O2N2O2N2O2N2O4N6C4N6C4H2O2C4N2O2C6H2C2H2C8H2C2H2N2C4H2C2H2C4H2C10H2C2H2C2H2O2C2H2
_chemical_formula_sum              "Zn6 N24 O16 C56 H24"
_cell_length_a       10.1264
_cell_length_b       15.0101
_cell_length_c       17.4862
_cell_angle_alpha    90
_cell_angle_beta     106.359
_cell_angle_gamma    90

_space_group_name_H-M_alt    "P 1"
_space_group_IT_number       1

loop_
  _space_group_symop_operation_xyz
  'x, y, z'

loop_
  _atom_site_type_symbol
  _atom_site_label
  _atom_site_symmetry_multiplicity
  _atom_site_fract_x
  _atom_site_fract_y
  _atom_site_fract_z
  _atom_site_occupancy
  Zn  Zn1       1.0  0.09807  0.55096  0.84164  1.0000
  Zn  Zn2       1.0  0.90193  0.05096  0.15836  1.0000
  Zn  Zn3       1.0  0.41104  0.23888  0.16927  1.0000
  Zn  Zn4       1.0  0.58896  0.73888  0.83073  1.0000
  Zn  Zn5       1.0  0.22740  0.58213  0.54309  1.0000
  Zn  Zn6       1.0  0.77260  0.08213  0.45691  1.0000
  N   N1        1.0  0.35530  0.64350  0.84690  1.0000
  N   N2        1.0  0.64470  0.14350  0.15310  1.0000
  O   O1        1.0  0.42180  0.35190  0.11320  1.0000
  O   O2        1.0  0.57820  0.85190  0.88680  1.0000
  N   N3        1.0  0.15300  0.15470  0.17660  1.0000
  N   N4        1.0  0.84700  0.65470  0.82340  1.0000
  O   O3        1.0  0.08930  0.45200  0.90870  1.0000
  O   O4        1.0  0.91070  0.95200  0.09130  1.0000
  N   N5        1.0  0.29980  0.58240  0.88600  1.0000
  N   N6        1.0  0.70020  0.08240  0.11400  1.0000
  O   O5        1.0  0.86540  0.16210  0.54330  1.0000
  O   O6        1.0  0.13460  0.66210  0.45670  1.0000
  N   N7        1.0  0.01430  0.15240  0.13840  1.0000
  N   N8        1.0  0.98570  0.65240  0.86160  1.0000
  O   O7        1.0  0.93220  0.23680  0.45100  1.0000
  O   O8        1.0  0.06780  0.73680  0.54900  1.0000
  O   O9        1.0  0.32050  0.48070  0.51230  1.0000
  O   O10       1.0  0.67950  0.98070  0.48770  1.0000
  N   N9        1.0  0.20220  0.21880  0.13470  1.0000
  N   N10       1.0  0.79780  0.71880  0.86530  1.0000
  N   N11       1.0  0.49050  0.64590  0.87630  1.0000
  N   N12       1.0  0.50950  0.14590  0.12370  1.0000
  N   N13       1.0  0.07230  0.51860  0.72810  1.0000
  N   N14       1.0  0.92770  0.01860  0.27190  1.0000
  C   C1        1.0  0.40610  0.54310  0.94170  1.0000
  C   C2        1.0  0.59390  0.04310  0.05830  1.0000
  C   C3        1.0  0.52910  0.58220  0.93450  1.0000
  C   C4        1.0  0.47090  0.08220  0.06550  1.0000
  N   N15       1.0  0.57750  0.16350  0.31490  1.0000
  N   N16       1.0  0.42250  0.66350  0.68510  1.0000
  N   N17       1.0  0.61400  0.16210  0.39280  1.0000
  N   N18       1.0  0.38600  0.66210  0.60720  1.0000
  N   N19       1.0  0.47930  0.22650  0.28530  1.0000
  N   N20       1.0  0.52070  0.72650  0.71470  1.0000
  C   C5        1.0  0.97510  0.41950  0.91130  1.0000
  C   C6        1.0  0.02490  0.91950  0.08870  1.0000
  C   C7        1.0  0.85330  0.24310  0.03000  1.0000
  C   C8        1.0  0.14670  0.74310  0.97000  1.0000
  H   H1        1.0  0.77130  0.21600  0.03130  1.0000
  H   H2        1.0  0.22870  0.71600  0.96870  1.0000
  O   O11       1.0  0.65300  0.34910  0.14420  1.0000
  O   O12       1.0  0.34700  0.84910  0.85580  1.0000
  C   C9        1.0  0.53850  0.38040  0.10770  1.0000
  C   C10       1.0  0.46150  0.88040  0.89230  1.0000
  C   C11       1.0  0.10290  0.25920  0.08130  1.0000
  C   C12       1.0  0.89710  0.75920  0.91870  1.0000
  N   N21       1.0  0.12990  0.57100  0.68280  1.0000
  N   N22       1.0  0.87010  0.07100  0.31720  1.0000
  O   O13       1.0  0.86560  0.44550  0.86670  1.0000
  O   O14       1.0  0.13440  0.94550  0.13330  1.0000
  C   C13       1.0  0.97830  0.35040  0.97470  1.0000
  C   C14       1.0  0.02170  0.85040  0.02530  1.0000
  C   C15       1.0  0.45530  0.26710  0.35210  1.0000
  C   C16       1.0  0.54470  0.76710  0.64790  1.0000
  C   C17       1.0  0.65810  0.55000  0.98340  1.0000
  C   C18       1.0  0.34190  0.05000  0.01660  1.0000
  H   H3        1.0  0.74060  0.57500  0.98050  1.0000
  H   H4        1.0  0.25940  0.07500  0.01950  1.0000
  C   C19       1.0  0.02660  0.37920  0.55810  1.0000
  C   C20       1.0  0.97340  0.87920  0.44190  1.0000
  H   H5        1.0  0.04490  0.38370  0.50900  1.0000
  H   H6        1.0  0.95510  0.88370  0.49100  1.0000
  C   C21       1.0  0.98080  0.21720  0.08450  1.0000
  C   C22       1.0  0.01920  0.71720  0.91550  1.0000
  C   C23       1.0  0.96210  0.30490  0.57750  1.0000
  C   C24       1.0  0.03790  0.80490  0.42250  1.0000
  C   C25       1.0  0.91850  0.23140  0.51690  1.0000
  C   C26       1.0  0.08150  0.73140  0.48310  1.0000
  C   C27       1.0  0.40750  0.47790  0.99750  1.0000
  C   C28       1.0  0.59250  0.97790  0.00250  1.0000
  H   H7        1.0  0.32610  0.45300  0.00230  1.0000
  H   H8        1.0  0.67390  0.95300  0.99770  1.0000
  C   C29       1.0  0.10460  0.32610  0.02430  1.0000
  C   C30       1.0  0.89540  0.82610  0.97570  1.0000
  H   H9        1.0  0.18600  0.35200  0.02060  1.0000
  H   H10       1.0  0.81400  0.85200  0.97940  1.0000
  N   N23       1.0  0.12170  0.52950  0.61380  1.0000
  N   N24       1.0  0.87830  0.02950  0.38620  1.0000
  C   C31       1.0  0.53270  0.45080  0.04570  1.0000
  C   C32       1.0  0.46730  0.95080  0.95430  1.0000
  C   C33       1.0  0.85440  0.30650  0.97760  1.0000
  C   C34       1.0  0.14560  0.80650  0.02240  1.0000
  H   H11       1.0  0.77170  0.32320  0.94140  1.0000
  H   H12       1.0  0.22830  0.82320  0.05860  1.0000
  C   C35       1.0  0.65680  0.48470  0.03240  1.0000
  C   C36       1.0  0.34320  0.98470  0.96760  1.0000
  H   H13       1.0  0.74010  0.45890  0.05990  1.0000
  H   H14       1.0  0.25990  0.95890  0.94010  1.0000
  C   C37       1.0  0.06400  0.44820  0.61510  1.0000
  C   C38       1.0  0.93600  0.94820  0.38490  1.0000
  C   C39       1.0  0.36720  0.33560  0.36090  1.0000
  C   C40       1.0  0.63280  0.83560  0.63910  1.0000
  H   H15       1.0  0.30520  0.36040  0.31640  1.0000
  H   H16       1.0  0.69480  0.86040  0.68360  1.0000
  C   C41       1.0  0.28510  0.43910  0.44930  1.0000
  C   C42       1.0  0.71490  0.93910  0.55070  1.0000
  C   C43       1.0  0.37280  0.36500  0.43330  1.0000
  C   C44       1.0  0.62720  0.86500  0.56670  1.0000
  C   C45       1.0  0.54440  0.22700  0.41840  1.0000
  C   C46       1.0  0.45560  0.72700  0.58160  1.0000
  C   C47       1.0  0.02650  0.44300  0.68530  1.0000
  C   C48       1.0  0.97350  0.94300  0.31470  1.0000
  C   C49       1.0  0.96490  0.36610  0.70720  1.0000
  C   C50       1.0  0.03510  0.86610  0.29280  1.0000
  H   H17       1.0  0.95000  0.36060  0.75710  1.0000
  H   H18       1.0  0.05000  0.86060  0.24290  1.0000
  C   C51       1.0  0.46360  0.32670  0.50170  1.0000
  C   C52       1.0  0.53640  0.82670  0.49830  1.0000
  H   H19       1.0  0.46710  0.34970  0.55160  1.0000
  H   H20       1.0  0.53290  0.84970  0.44840  1.0000
  C   C53       1.0  0.54940  0.25440  0.49640  1.0000
  C   C54       1.0  0.45060  0.75440  0.50360  1.0000
  H   H21       1.0  0.60570  0.22660  0.54130  1.0000
  H   H22       1.0  0.39430  0.72660  0.45870  1.0000
  O   O15       1.0  0.17950  0.45520  0.39310  1.0000
  O   O16       1.0  0.82050  0.95520  0.60690  1.0000
  C   C55       1.0  0.92840  0.30000  0.65110  1.0000
  C   C56       1.0  0.07160  0.80000  0.34890  1.0000
  H   H23       1.0  0.88040  0.25070  0.66140  1.0000
  H   H24       1.0  0.11960  0.75070  0.33860  1.0000
