data_image0
_chemical_formula_structural       Nb12Cl24Mn4N20C20H4C4H4C4H4C4H4C8H4C4H8C4H8C8H4C4H4C4H4C4H4C8H4O8
_chemical_formula_sum              "Nb12 Cl24 Mn4 N20 C76 H56 O8"
_cell_length_a       14.949
_cell_length_b       13.373
_cell_length_c       22.736
_cell_angle_alpha    90
_cell_angle_beta     94.409
_cell_angle_gamma    90

_space_group_name_H-M_alt    "P 1"
_space_group_IT_number       1

loop_
  _space_group_symop_operation_xyz
  'x, y, z'

loop_
  _atom_site_type_symbol
  _atom_site_label
  _atom_site_symmetry_multiplicity
  _atom_site_fract_x
  _atom_site_fract_y
  _atom_site_fract_z
  _atom_site_occupancy
  Nb  Nb1       1.0  0.40383  0.09903  0.46254  1.0000
  Nb  Nb2       1.0  0.59617  0.59903  0.03746  1.0000
  Nb  Nb3       1.0  0.59617  0.90097  0.53746  1.0000
  Nb  Nb4       1.0  0.40383  0.40097  0.96254  1.0000
  Nb  Nb5       1.0  0.56178  0.11656  0.54637  1.0000
  Nb  Nb6       1.0  0.43822  0.61656  0.95363  1.0000
  Nb  Nb7       1.0  0.43822  0.88344  0.45363  1.0000
  Nb  Nb8       1.0  0.56178  0.38344  0.04637  1.0000
  Nb  Nb9       1.0  0.57958  0.02537  0.43075  1.0000
  Nb  Nb10      1.0  0.42042  0.52537  0.06925  1.0000
  Nb  Nb11      1.0  0.42042  0.97463  0.56925  1.0000
  Nb  Nb12      1.0  0.57958  0.47463  0.93075  1.0000
  Cl  Cl1       1.0  0.45923  0.25303  0.51245  1.0000
  Cl  Cl2       1.0  0.54077  0.75303  0.98755  1.0000
  Cl  Cl3       1.0  0.54077  0.74697  0.48755  1.0000
  Cl  Cl4       1.0  0.45923  0.24697  0.01245  1.0000
  Cl  Cl5       1.0  0.66534  0.16972  0.47253  1.0000
  Cl  Cl6       1.0  0.33466  0.66972  0.02747  1.0000
  Cl  Cl7       1.0  0.33466  0.83028  0.52747  1.0000
  Cl  Cl8       1.0  0.66534  0.33028  0.97253  1.0000
  Cl  Cl9       1.0  0.48008  0.10733  0.63640  1.0000
  Cl  Cl10      1.0  0.51992  0.60733  0.86360  1.0000
  Cl  Cl11      1.0  0.51992  0.89267  0.36360  1.0000
  Cl  Cl12      1.0  0.48008  0.39267  0.13640  1.0000
  Cl  Cl13      1.0  0.48029  0.14398  0.37411  1.0000
  Cl  Cl14      1.0  0.51971  0.64398  0.12589  1.0000
  Cl  Cl15      1.0  0.51971  0.85602  0.62589  1.0000
  Cl  Cl16      1.0  0.48029  0.35602  0.87411  1.0000
  Cl  Cl17      1.0  0.29256  0.08394  0.53693  1.0000
  Cl  Cl18      1.0  0.70744  0.58394  0.96307  1.0000
  Cl  Cl19      1.0  0.70744  0.91606  0.46307  1.0000
  Cl  Cl20      1.0  0.29256  0.41606  0.03693  1.0000
  Cl  Cl21      1.0  0.31472  0.97865  0.40095  1.0000
  Cl  Cl22      1.0  0.68528  0.47865  0.09905  1.0000
  Cl  Cl23      1.0  0.68528  0.02135  0.59905  1.0000
  Cl  Cl24      1.0  0.31472  0.52135  0.90095  1.0000
  Mn  Mn1       1.0  0.70547  0.12776  0.21807  1.0000
  Mn  Mn2       1.0  0.29453  0.62776  0.28193  1.0000
  Mn  Mn3       1.0  0.29453  0.87224  0.78193  1.0000
  Mn  Mn4       1.0  0.70547  0.37224  0.71807  1.0000
  N   N1        1.0  0.70670  0.07050  0.31450  1.0000
  N   N2        1.0  0.29330  0.57050  0.18550  1.0000
  N   N3        1.0  0.29330  0.92950  0.68550  1.0000
  N   N4        1.0  0.70670  0.42950  0.81450  1.0000
  N   N5        1.0  0.25200  0.26720  0.39801  1.0000
  N   N6        1.0  0.74800  0.76720  0.10199  1.0000
  N   N7        1.0  0.74800  0.73280  0.60199  1.0000
  N   N8        1.0  0.25200  0.23280  0.89801  1.0000
  N   N9        1.0  0.67200  0.30010  0.62754  1.0000
  N   N10       1.0  0.32800  0.80010  0.87246  1.0000
  N   N11       1.0  0.32800  0.69990  0.37246  1.0000
  N   N12       1.0  0.67200  0.19990  0.12754  1.0000
  N   N13       1.0  0.58690  0.18700  0.23497  1.0000
  N   N14       1.0  0.41310  0.68700  0.26503  1.0000
  N   N15       1.0  0.41310  0.81300  0.76503  1.0000
  N   N16       1.0  0.58690  0.31300  0.73497  1.0000
  N   N17       1.0  0.74850  0.26060  0.24702  1.0000
  N   N18       1.0  0.25150  0.76060  0.25298  1.0000
  N   N19       1.0  0.25150  0.73940  0.75298  1.0000
  N   N20       1.0  0.74850  0.23940  0.74702  1.0000
  C   C1        1.0  0.66640  0.05380  0.35401  1.0000
  C   C2        1.0  0.33360  0.55380  0.14599  1.0000
  C   C3        1.0  0.33360  0.94620  0.64599  1.0000
  C   C4        1.0  0.66640  0.44620  0.85401  1.0000
  C   C5        1.0  0.30070  0.20910  0.42000  1.0000
  C   C6        1.0  0.69930  0.70910  0.08000  1.0000
  C   C7        1.0  0.69930  0.79090  0.58000  1.0000
  C   C8        1.0  0.30070  0.29090  0.92000  1.0000
  C   C9        1.0  0.63320  0.24220  0.59858  1.0000
  C   C10       1.0  0.36680  0.74220  0.90142  1.0000
  C   C11       1.0  0.36680  0.75780  0.40142  1.0000
  C   C12       1.0  0.63320  0.25780  0.09858  1.0000
  C   C13       1.0  0.56690  0.99950  0.16560  1.0000
  C   C14       1.0  0.43310  0.49950  0.33440  1.0000
  C   C15       1.0  0.43310  0.00050  0.83440  1.0000
  C   C16       1.0  0.56690  0.50050  0.66560  1.0000
  C   C17       1.0  0.54610  0.92050  0.12630  1.0000
  C   C18       1.0  0.45390  0.42050  0.37370  1.0000
  C   C19       1.0  0.45390  0.07950  0.87370  1.0000
  C   C20       1.0  0.54610  0.57950  0.62630  1.0000
  H   H1        1.0  0.59270  0.87880  0.11410  1.0000
  H   H2        1.0  0.40730  0.37880  0.38590  1.0000
  H   H3        1.0  0.40730  0.12120  0.88590  1.0000
  H   H4        1.0  0.59270  0.62120  0.61410  1.0000
  C   C21       1.0  0.45860  0.90290  0.10520  1.0000
  C   C22       1.0  0.54140  0.40290  0.39480  1.0000
  C   C23       1.0  0.54140  0.09710  0.89480  1.0000
  C   C24       1.0  0.45860  0.59710  0.60520  1.0000
  H   H5        1.0  0.44550  0.84840  0.07910  1.0000
  H   H6        1.0  0.55450  0.34840  0.42090  1.0000
  H   H7        1.0  0.55450  0.15160  0.92090  1.0000
  H   H8        1.0  0.44550  0.65160  0.57910  1.0000
  C   C25       1.0  0.38990  0.96300  0.12130  1.0000
  C   C26       1.0  0.61010  0.46300  0.37870  1.0000
  C   C27       1.0  0.61010  0.03700  0.87870  1.0000
  C   C28       1.0  0.38990  0.53700  0.62130  1.0000
  H   H9        1.0  0.32970  0.94910  0.10710  1.0000
  H   H10       1.0  0.67030  0.44910  0.39290  1.0000
  H   H11       1.0  0.67030  0.05090  0.89290  1.0000
  H   H12       1.0  0.32970  0.55090  0.60710  1.0000
  C   C29       1.0  0.40840  0.04260  0.15790  1.0000
  C   C30       1.0  0.59160  0.54260  0.34210  1.0000
  C   C31       1.0  0.59160  0.95740  0.84210  1.0000
  C   C32       1.0  0.40840  0.45740  0.65790  1.0000
  H   H13       1.0  0.36090  0.08460  0.16840  1.0000
  H   H14       1.0  0.63910  0.58460  0.33160  1.0000
  H   H15       1.0  0.63910  0.91540  0.83160  1.0000
  H   H16       1.0  0.36090  0.41540  0.66840  1.0000
  C   C33       1.0  0.49690  0.06340  0.18020  1.0000
  C   C34       1.0  0.50310  0.56340  0.31980  1.0000
  C   C35       1.0  0.50310  0.93660  0.81980  1.0000
  C   C36       1.0  0.49690  0.43660  0.68020  1.0000
  C   C37       1.0  0.51070  0.15100  0.21640  1.0000
  C   C38       1.0  0.48930  0.65100  0.28360  1.0000
  C   C39       1.0  0.48930  0.84900  0.78360  1.0000
  C   C40       1.0  0.51070  0.34900  0.71640  1.0000
  H   H17       1.0  0.45880  0.18500  0.22750  1.0000
  H   H18       1.0  0.54120  0.68500  0.27250  1.0000
  H   H19       1.0  0.54120  0.81500  0.77250  1.0000
  H   H20       1.0  0.45880  0.31500  0.72750  1.0000
  C   C41       1.0  0.59580  0.27830  0.27040  1.0000
  C   C42       1.0  0.40420  0.77830  0.22960  1.0000
  C   C43       1.0  0.40420  0.72170  0.72960  1.0000
  C   C44       1.0  0.59580  0.22170  0.77040  1.0000
  H   H21       1.0  0.60600  0.26150  0.31280  1.0000
  H   H22       1.0  0.39400  0.76150  0.18720  1.0000
  H   H23       1.0  0.39400  0.73850  0.68720  1.0000
  H   H24       1.0  0.60600  0.23850  0.81280  1.0000
  H   H25       1.0  0.54060  0.31910  0.26460  1.0000
  H   H26       1.0  0.45940  0.81910  0.23540  1.0000
  H   H27       1.0  0.45940  0.68090  0.73540  1.0000
  H   H28       1.0  0.54060  0.18090  0.76460  1.0000
  C   C45       1.0  0.67550  0.33540  0.24980  1.0000
  C   C46       1.0  0.32450  0.83540  0.25020  1.0000
  C   C47       1.0  0.32450  0.66460  0.75020  1.0000
  C   C48       1.0  0.67550  0.16460  0.74980  1.0000
  H   H29       1.0  0.66040  0.36540  0.21050  1.0000
  H   H30       1.0  0.33960  0.86540  0.28950  1.0000
  H   H31       1.0  0.33960  0.63460  0.78950  1.0000
  H   H32       1.0  0.66040  0.13460  0.71050  1.0000
  H   H33       1.0  0.69380  0.38940  0.27800  1.0000
  H   H34       1.0  0.30620  0.88940  0.22200  1.0000
  H   H35       1.0  0.30620  0.61060  0.72200  1.0000
  H   H36       1.0  0.69380  0.11060  0.77800  1.0000
  C   C49       1.0  0.89860  0.11790  0.23974  1.0000
  C   C50       1.0  0.10140  0.61790  0.26026  1.0000
  C   C51       1.0  0.10140  0.88210  0.76026  1.0000
  C   C52       1.0  0.89860  0.38210  0.73974  1.0000
  C   C53       1.0  0.97450  0.05780  0.24560  1.0000
  C   C54       1.0  0.02550  0.55780  0.25440  1.0000
  C   C55       1.0  0.02550  0.94220  0.75440  1.0000
  C   C56       1.0  0.97450  0.44220  0.74560  1.0000
  H   H37       1.0  0.97220  0.99250  0.22910  1.0000
  H   H38       1.0  0.02780  0.49250  0.27090  1.0000
  H   H39       1.0  0.02780  0.00750  0.77090  1.0000
  H   H40       1.0  0.97220  0.50750  0.72910  1.0000
  C   C57       1.0  0.05310  0.09090  0.27490  1.0000
  C   C58       1.0  0.94690  0.59090  0.22510  1.0000
  C   C59       1.0  0.94690  0.90910  0.72510  1.0000
  C   C60       1.0  0.05310  0.40910  0.77490  1.0000
  H   H41       1.0  0.10370  0.04770  0.27880  1.0000
  H   H42       1.0  0.89630  0.54770  0.22120  1.0000
  H   H43       1.0  0.89630  0.95230  0.72120  1.0000
  H   H44       1.0  0.10370  0.45230  0.77880  1.0000
  C   C61       1.0  0.05960  0.18590  0.29860  1.0000
  C   C62       1.0  0.94040  0.68590  0.20140  1.0000
  C   C63       1.0  0.94040  0.81410  0.70140  1.0000
  C   C64       1.0  0.05960  0.31410  0.79860  1.0000
  H   H45       1.0  0.11450  0.20850  0.31790  1.0000
  H   H46       1.0  0.88550  0.70850  0.18210  1.0000
  H   H47       1.0  0.88550  0.79150  0.68210  1.0000
  H   H48       1.0  0.11450  0.29150  0.81790  1.0000
  C   C65       1.0  0.98620  0.24700  0.29400  1.0000
  C   C66       1.0  0.01380  0.74700  0.20600  1.0000
  C   C67       1.0  0.01380  0.75300  0.70600  1.0000
  C   C68       1.0  0.98620  0.25300  0.79400  1.0000
  H   H49       1.0  0.99030  0.31220  0.31060  1.0000
  H   H50       1.0  0.00970  0.81220  0.18940  1.0000
  H   H51       1.0  0.00970  0.68780  0.68940  1.0000
  H   H52       1.0  0.99030  0.18780  0.81060  1.0000
  C   C69       1.0  0.90440  0.21480  0.26500  1.0000
  C   C70       1.0  0.09560  0.71480  0.23500  1.0000
  C   C71       1.0  0.09560  0.78520  0.73500  1.0000
  C   C72       1.0  0.90440  0.28520  0.76500  1.0000
  C   C73       1.0  0.82970  0.28280  0.26460  1.0000
  C   C74       1.0  0.17030  0.78280  0.23540  1.0000
  C   C75       1.0  0.17030  0.71720  0.73540  1.0000
  C   C76       1.0  0.82970  0.21720  0.76460  1.0000
  H   H53       1.0  0.84140  0.34900  0.27830  1.0000
  H   H54       1.0  0.15860  0.84900  0.22170  1.0000
  H   H55       1.0  0.15860  0.65100  0.72170  1.0000
  H   H56       1.0  0.84140  0.15100  0.77830  1.0000
  O   O1        1.0  0.65170  0.00960  0.18746  1.0000
  O   O2        1.0  0.34830  0.50960  0.31254  1.0000
  O   O3        1.0  0.34830  0.99040  0.81254  1.0000
  O   O4        1.0  0.65170  0.49040  0.68746  1.0000
  O   O5        1.0  0.82473  0.08360  0.20895  1.0000
  O   O6        1.0  0.17527  0.58360  0.29105  1.0000
  O   O7        1.0  0.17527  0.91640  0.79105  1.0000
  O   O8        1.0  0.82473  0.41640  0.70895  1.0000
