data_image0
_chemical_formula_structural       Nb24Cl48Mn8O24N48C16H8C8H8C8H8C8H8C16H8C8H16C8H16C8H8C16H8C8H8C8H8C8H8C16H8C8H8C16H8C8H8C24
_chemical_formula_sum              "Nb24 Cl48 Mn8 O24 N48 C192 H144"
_cell_length_a       21.822
_cell_length_b       17.499
_cell_length_c       29.117
_cell_angle_alpha    90
_cell_angle_beta     90
_cell_angle_gamma    90

_space_group_name_H-M_alt    "P 1"
_space_group_IT_number       1

loop_
  _space_group_symop_operation_xyz
  'x, y, z'

loop_
  _atom_site_type_symbol
  _atom_site_label
  _atom_site_symmetry_multiplicity
  _atom_site_fract_x
  _atom_site_fract_y
  _atom_site_fract_z
  _atom_site_occupancy
  Nb  Nb1       1.0  0.55874  0.58506  0.02204  1.0000
  Nb  Nb2       1.0  0.94126  0.91494  0.52204  1.0000
  Nb  Nb3       1.0  0.44126  0.58506  0.47796  1.0000
  Nb  Nb4       1.0  0.05874  0.91494  0.97796  1.0000
  Nb  Nb5       1.0  0.44126  0.41494  0.97796  1.0000
  Nb  Nb6       1.0  0.05874  0.08506  0.47796  1.0000
  Nb  Nb7       1.0  0.55874  0.41494  0.52204  1.0000
  Nb  Nb8       1.0  0.94126  0.08506  0.02204  1.0000
  Nb  Nb9       1.0  0.47621  0.56644  0.94357  1.0000
  Nb  Nb10      1.0  0.02379  0.93356  0.44357  1.0000
  Nb  Nb11      1.0  0.52379  0.56644  0.55643  1.0000
  Nb  Nb12      1.0  0.97621  0.93356  0.05643  1.0000
  Nb  Nb13      1.0  0.52379  0.43356  0.05643  1.0000
  Nb  Nb14      1.0  0.97621  0.06644  0.55643  1.0000
  Nb  Nb15      1.0  0.47621  0.43356  0.44357  1.0000
  Nb  Nb16      1.0  0.02379  0.06644  0.94357  1.0000
  Nb  Nb17      1.0  0.57044  0.45143  0.96238  1.0000
  Nb  Nb18      1.0  0.92956  0.04857  0.46238  1.0000
  Nb  Nb19      1.0  0.42956  0.45143  0.53762  1.0000
  Nb  Nb20      1.0  0.07044  0.04857  0.03762  1.0000
  Nb  Nb21      1.0  0.42956  0.54857  0.03762  1.0000
  Nb  Nb22      1.0  0.07044  0.95143  0.53762  1.0000
  Nb  Nb23      1.0  0.57044  0.54857  0.46238  1.0000
  Nb  Nb24      1.0  0.92956  0.95143  0.96238  1.0000
  Cl  Cl1       1.0  0.65277  0.54287  0.98201  1.0000
  Cl  Cl2       1.0  0.84723  0.95713  0.48201  1.0000
  Cl  Cl3       1.0  0.34723  0.54287  0.51799  1.0000
  Cl  Cl4       1.0  0.15277  0.95713  0.01799  1.0000
  Cl  Cl5       1.0  0.34723  0.45713  0.01799  1.0000
  Cl  Cl6       1.0  0.15277  0.04287  0.51799  1.0000
  Cl  Cl7       1.0  0.65277  0.45713  0.48201  1.0000
  Cl  Cl8       1.0  0.84723  0.04287  0.98201  1.0000
  Cl  Cl9       1.0  0.54103  0.67887  0.95980  1.0000
  Cl  Cl10      1.0  0.95897  0.82113  0.45980  1.0000
  Cl  Cl11      1.0  0.45897  0.67887  0.54020  1.0000
  Cl  Cl12      1.0  0.04103  0.82113  0.04020  1.0000
  Cl  Cl13      1.0  0.45897  0.32113  0.04020  1.0000
  Cl  Cl14      1.0  0.04103  0.17887  0.54020  1.0000
  Cl  Cl15      1.0  0.54103  0.32113  0.45980  1.0000
  Cl  Cl16      1.0  0.95897  0.17887  0.95980  1.0000
  Cl  Cl17      1.0  0.59732  0.52187  0.09178  1.0000
  Cl  Cl18      1.0  0.90268  0.97813  0.59178  1.0000
  Cl  Cl19      1.0  0.40268  0.52187  0.40822  1.0000
  Cl  Cl20      1.0  0.09732  0.97813  0.90822  1.0000
  Cl  Cl21      1.0  0.40268  0.47813  0.90822  1.0000
  Cl  Cl22      1.0  0.09732  0.02187  0.40822  1.0000
  Cl  Cl23      1.0  0.59732  0.47813  0.59178  1.0000
  Cl  Cl24      1.0  0.90268  0.02187  0.09178  1.0000
  Cl  Cl25      1.0  0.48638  0.65786  0.07006  1.0000
  Cl  Cl26      1.0  0.01362  0.84214  0.57006  1.0000
  Cl  Cl27      1.0  0.51362  0.65786  0.42994  1.0000
  Cl  Cl28      1.0  0.98638  0.84214  0.92994  1.0000
  Cl  Cl29      1.0  0.51362  0.34214  0.92994  1.0000
  Cl  Cl30      1.0  0.98638  0.15786  0.42994  1.0000
  Cl  Cl31      1.0  0.48638  0.34214  0.57006  1.0000
  Cl  Cl32      1.0  0.01362  0.15786  0.07006  1.0000
  Cl  Cl33      1.0  0.55529  0.52109  0.88986  1.0000
  Cl  Cl34      1.0  0.94471  0.97891  0.38986  1.0000
  Cl  Cl35      1.0  0.44471  0.52109  0.61014  1.0000
  Cl  Cl36      1.0  0.05529  0.97891  0.11014  1.0000
  Cl  Cl37      1.0  0.44471  0.47891  0.11014  1.0000
  Cl  Cl38      1.0  0.05529  0.02109  0.61014  1.0000
  Cl  Cl39      1.0  0.55529  0.47891  0.38986  1.0000
  Cl  Cl40      1.0  0.94471  0.02109  0.88986  1.0000
  Cl  Cl41      1.0  0.38850  0.63541  0.97796  1.0000
  Cl  Cl42      1.0  0.11150  0.86459  0.47796  1.0000
  Cl  Cl43      1.0  0.61150  0.63541  0.52204  1.0000
  Cl  Cl44      1.0  0.88850  0.86459  0.02204  1.0000
  Cl  Cl45      1.0  0.61150  0.36459  0.02204  1.0000
  Cl  Cl46      1.0  0.88850  0.13541  0.52204  1.0000
  Cl  Cl47      1.0  0.38850  0.36459  0.47796  1.0000
  Cl  Cl48      1.0  0.11150  0.13541  0.97796  1.0000
  Mn  Mn1       1.0  0.79168  0.37515  0.89240  1.0000
  Mn  Mn2       1.0  0.70832  0.12485  0.39240  1.0000
  Mn  Mn3       1.0  0.20832  0.37515  0.60760  1.0000
  Mn  Mn4       1.0  0.29168  0.12485  0.10760  1.0000
  Mn  Mn5       1.0  0.20832  0.62485  0.10760  1.0000
  Mn  Mn6       1.0  0.29168  0.87515  0.60760  1.0000
  Mn  Mn7       1.0  0.79168  0.62485  0.39240  1.0000
  Mn  Mn8       1.0  0.70832  0.87515  0.89240  1.0000
  O   O1        1.0  0.79854  0.48218  0.88500  1.0000
  O   O2        1.0  0.70146  0.01782  0.38500  1.0000
  O   O3        1.0  0.20146  0.48218  0.61500  1.0000
  O   O4        1.0  0.29854  0.01782  0.11500  1.0000
  O   O5        1.0  0.20146  0.51782  0.11500  1.0000
  O   O6        1.0  0.29854  0.98218  0.61500  1.0000
  O   O7        1.0  0.79854  0.51782  0.38500  1.0000
  O   O8        1.0  0.70146  0.98218  0.88500  1.0000
  O   O9        1.0  0.79289  0.35339  0.82945  1.0000
  O   O10       1.0  0.70711  0.14661  0.32945  1.0000
  O   O11       1.0  0.20711  0.35339  0.67055  1.0000
  O   O12       1.0  0.29289  0.14661  0.17055  1.0000
  O   O13       1.0  0.20711  0.64661  0.17055  1.0000
  O   O14       1.0  0.29289  0.85339  0.67055  1.0000
  O   O15       1.0  0.79289  0.64661  0.32945  1.0000
  O   O16       1.0  0.70711  0.85339  0.82945  1.0000
  O   O17       1.0  0.89696  0.36760  0.89706  1.0000
  O   O18       1.0  0.60304  0.13240  0.39706  1.0000
  O   O19       1.0  0.10304  0.36760  0.60294  1.0000
  O   O20       1.0  0.39696  0.13240  0.10294  1.0000
  O   O21       1.0  0.10304  0.63240  0.10294  1.0000
  O   O22       1.0  0.39696  0.86760  0.60294  1.0000
  O   O23       1.0  0.89696  0.63240  0.39706  1.0000
  O   O24       1.0  0.60304  0.86760  0.89706  1.0000
  N   N1        1.0  0.79277  0.38440  0.96020  1.0000
  N   N2        1.0  0.70723  0.11560  0.46020  1.0000
  N   N3        1.0  0.20723  0.38440  0.53980  1.0000
  N   N4        1.0  0.29277  0.11560  0.03980  1.0000
  N   N5        1.0  0.20723  0.61560  0.03980  1.0000
  N   N6        1.0  0.29277  0.88440  0.53980  1.0000
  N   N7        1.0  0.79277  0.61560  0.46020  1.0000
  N   N8        1.0  0.70723  0.88440  0.96020  1.0000
  N   N9        1.0  0.79347  0.26450  0.90782  1.0000
  N   N10       1.0  0.70653  0.23550  0.40782  1.0000
  N   N11       1.0  0.20653  0.26450  0.59218  1.0000
  N   N12       1.0  0.29347  0.23550  0.09218  1.0000
  N   N13       1.0  0.20653  0.73550  0.09218  1.0000
  N   N14       1.0  0.29347  0.76450  0.59218  1.0000
  N   N15       1.0  0.79347  0.73550  0.40782  1.0000
  N   N16       1.0  0.70653  0.76450  0.90782  1.0000
  N   N17       1.0  0.92546  0.36750  0.85668  1.0000
  N   N18       1.0  0.57454  0.13250  0.35668  1.0000
  N   N19       1.0  0.07454  0.36750  0.64332  1.0000
  N   N20       1.0  0.42546  0.13250  0.14332  1.0000
  N   N21       1.0  0.07454  0.63250  0.14332  1.0000
  N   N22       1.0  0.42546  0.86750  0.64332  1.0000
  N   N23       1.0  0.92546  0.63250  0.35668  1.0000
  N   N24       1.0  0.57454  0.86750  0.85668  1.0000
  N   N25       1.0  0.68900  0.38120  0.89872  1.0000
  N   N26       1.0  0.81100  0.11880  0.39872  1.0000
  N   N27       1.0  0.31100  0.38120  0.60128  1.0000
  N   N28       1.0  0.18900  0.11880  0.10128  1.0000
  N   N29       1.0  0.31100  0.61880  0.10128  1.0000
  N   N30       1.0  0.18900  0.88120  0.60128  1.0000
  N   N31       1.0  0.68900  0.61880  0.39872  1.0000
  N   N32       1.0  0.81100  0.88120  0.89872  1.0000
  N   N33       1.0  0.65420  0.72290  0.06227  1.0000
  N   N34       1.0  0.84580  0.77710  0.56227  1.0000
  N   N35       1.0  0.34580  0.72290  0.43773  1.0000
  N   N36       1.0  0.15420  0.77710  0.93773  1.0000
  N   N37       1.0  0.34580  0.27710  0.93773  1.0000
  N   N38       1.0  0.15420  0.22290  0.43773  1.0000
  N   N39       1.0  0.65420  0.27710  0.56227  1.0000
  N   N40       1.0  0.84580  0.22290  0.06227  1.0000
  N   N41       1.0  0.43750  0.66260  0.84625  1.0000
  N   N42       1.0  0.06250  0.83740  0.34625  1.0000
  N   N43       1.0  0.56250  0.66260  0.65375  1.0000
  N   N44       1.0  0.93750  0.83740  0.15375  1.0000
  N   N45       1.0  0.56250  0.33740  0.15375  1.0000
  N   N46       1.0  0.93750  0.16260  0.65375  1.0000
  N   N47       1.0  0.43750  0.33740  0.34625  1.0000
  N   N48       1.0  0.06250  0.16260  0.84625  1.0000
  C   C1        1.0  0.82110  0.53120  0.91484  1.0000
  C   C2        1.0  0.67890  0.96880  0.41484  1.0000
  C   C3        1.0  0.17890  0.53120  0.58516  1.0000
  C   C4        1.0  0.32110  0.96880  0.08516  1.0000
  C   C5        1.0  0.17890  0.46880  0.08516  1.0000
  C   C6        1.0  0.32110  0.03120  0.58516  1.0000
  C   C7        1.0  0.82110  0.46880  0.41484  1.0000
  C   C8        1.0  0.67890  0.03120  0.91484  1.0000
  C   C9        1.0  0.83950  0.60350  0.89950  1.0000
  C   C10       1.0  0.66050  0.89650  0.39950  1.0000
  C   C11       1.0  0.16050  0.60350  0.60050  1.0000
  C   C12       1.0  0.33950  0.89650  0.10050  1.0000
  C   C13       1.0  0.16050  0.39650  0.10050  1.0000
  C   C14       1.0  0.33950  0.10350  0.60050  1.0000
  C   C15       1.0  0.83950  0.39650  0.39950  1.0000
  C   C16       1.0  0.66050  0.10350  0.89950  1.0000
  H   H1        1.0  0.83490  0.61630  0.86800  1.0000
  H   H2        1.0  0.66510  0.88370  0.36800  1.0000
  H   H3        1.0  0.16510  0.61630  0.63200  1.0000
  H   H4        1.0  0.33490  0.88370  0.13200  1.0000
  H   H5        1.0  0.16510  0.38370  0.13200  1.0000
  H   H6        1.0  0.33490  0.11630  0.63200  1.0000
  H   H7        1.0  0.83490  0.38370  0.36800  1.0000
  H   H8        1.0  0.66510  0.11630  0.86800  1.0000
  C   C17       1.0  0.86400  0.65650  0.92930  1.0000
  C   C18       1.0  0.63600  0.84350  0.42930  1.0000
  C   C19       1.0  0.13600  0.65650  0.57070  1.0000
  C   C20       1.0  0.36400  0.84350  0.07070  1.0000
  C   C21       1.0  0.13600  0.34350  0.07070  1.0000
  C   C22       1.0  0.36400  0.15650  0.57070  1.0000
  C   C23       1.0  0.86400  0.34350  0.42930  1.0000
  C   C24       1.0  0.63600  0.15650  0.92930  1.0000
  H   H9        1.0  0.87550  0.70540  0.91800  1.0000
  H   H10       1.0  0.62450  0.79460  0.41800  1.0000
  H   H11       1.0  0.12450  0.70540  0.58200  1.0000
  H   H12       1.0  0.37550  0.79460  0.08200  1.0000
  H   H13       1.0  0.12450  0.29460  0.08200  1.0000
  H   H14       1.0  0.37550  0.20540  0.58200  1.0000
  H   H15       1.0  0.87550  0.29460  0.41800  1.0000
  H   H16       1.0  0.62450  0.20540  0.91800  1.0000
  C   C25       1.0  0.87240  0.63990  0.97570  1.0000
  C   C26       1.0  0.62760  0.86010  0.47570  1.0000
  C   C27       1.0  0.12760  0.63990  0.52430  1.0000
  C   C28       1.0  0.37240  0.86010  0.02430  1.0000
  C   C29       1.0  0.12760  0.36010  0.02430  1.0000
  C   C30       1.0  0.37240  0.13990  0.52430  1.0000
  C   C31       1.0  0.87240  0.36010  0.47570  1.0000
  C   C32       1.0  0.62760  0.13990  0.97570  1.0000
  H   H17       1.0  0.89100  0.67590  0.99570  1.0000
  H   H18       1.0  0.60900  0.82410  0.49570  1.0000
  H   H19       1.0  0.10900  0.67590  0.50430  1.0000
  H   H20       1.0  0.39100  0.82410  0.00430  1.0000
  H   H21       1.0  0.10900  0.32410  0.00430  1.0000
  H   H22       1.0  0.39100  0.17590  0.50430  1.0000
  H   H23       1.0  0.89100  0.32410  0.49570  1.0000
  H   H24       1.0  0.60900  0.17590  0.99570  1.0000
  C   C33       1.0  0.85340  0.57150  0.99120  1.0000
  C   C34       1.0  0.64660  0.92850  0.49120  1.0000
  C   C35       1.0  0.14660  0.57150  0.50880  1.0000
  C   C36       1.0  0.35340  0.92850  0.00880  1.0000
  C   C37       1.0  0.14660  0.42850  0.00880  1.0000
  C   C38       1.0  0.35340  0.07150  0.50880  1.0000
  C   C39       1.0  0.85340  0.42850  0.49120  1.0000
  C   C40       1.0  0.64660  0.07150  0.99120  1.0000
  H   H25       1.0  0.85690  0.56070  0.02310  1.0000
  H   H26       1.0  0.64310  0.93930  0.52310  1.0000
  H   H27       1.0  0.14310  0.56070  0.47690  1.0000
  H   H28       1.0  0.35690  0.93930  0.97690  1.0000
  H   H29       1.0  0.14310  0.43930  0.97690  1.0000
  H   H30       1.0  0.35690  0.06070  0.47690  1.0000
  H   H31       1.0  0.85690  0.43930  0.52310  1.0000
  H   H32       1.0  0.64310  0.06070  0.02310  1.0000
  C   C41       1.0  0.82850  0.51540  0.96211  1.0000
  C   C42       1.0  0.67150  0.98460  0.46211  1.0000
  C   C43       1.0  0.17150  0.51540  0.53789  1.0000
  C   C44       1.0  0.32850  0.98460  0.03789  1.0000
  C   C45       1.0  0.17150  0.48460  0.03789  1.0000
  C   C46       1.0  0.32850  0.01540  0.53789  1.0000
  C   C47       1.0  0.82850  0.48460  0.46211  1.0000
  C   C48       1.0  0.67150  0.01540  0.96211  1.0000
  C   C49       1.0  0.80950  0.44470  0.98260  1.0000
  C   C50       1.0  0.69050  0.05530  0.48260  1.0000
  C   C51       1.0  0.19050  0.44470  0.51740  1.0000
  C   C52       1.0  0.30950  0.05530  0.01740  1.0000
  C   C53       1.0  0.19050  0.55530  0.01740  1.0000
  C   C54       1.0  0.30950  0.94470  0.51740  1.0000
  C   C55       1.0  0.80950  0.55530  0.48260  1.0000
  C   C56       1.0  0.69050  0.94470  0.98260  1.0000
  H   H33       1.0  0.80920  0.44190  0.01520  1.0000
  H   H34       1.0  0.69080  0.05810  0.51520  1.0000
  H   H35       1.0  0.19080  0.44190  0.48480  1.0000
  H   H36       1.0  0.30920  0.05810  0.98480  1.0000
  H   H37       1.0  0.19080  0.55810  0.98480  1.0000
  H   H38       1.0  0.30920  0.94190  0.48480  1.0000
  H   H39       1.0  0.80920  0.55810  0.51520  1.0000
  H   H40       1.0  0.69080  0.94190  0.01520  1.0000
  C   C57       1.0  0.76930  0.31520  0.98286  1.0000
  C   C58       1.0  0.73070  0.18480  0.48286  1.0000
  C   C59       1.0  0.23070  0.31520  0.51714  1.0000
  C   C60       1.0  0.26930  0.18480  0.01714  1.0000
  C   C61       1.0  0.23070  0.68480  0.01714  1.0000
  C   C62       1.0  0.26930  0.81520  0.51714  1.0000
  C   C63       1.0  0.76930  0.68480  0.48286  1.0000
  C   C64       1.0  0.73070  0.81520  0.98286  1.0000
  H   H41       1.0  0.78420  0.31320  0.01500  1.0000
  H   H42       1.0  0.71580  0.18680  0.51500  1.0000
  H   H43       1.0  0.21580  0.31320  0.48500  1.0000
  H   H44       1.0  0.28420  0.18680  0.98500  1.0000
  H   H45       1.0  0.21580  0.68680  0.98500  1.0000
  H   H46       1.0  0.28420  0.81320  0.48500  1.0000
  H   H47       1.0  0.78420  0.68680  0.51500  1.0000
  H   H48       1.0  0.71580  0.81320  0.01500  1.0000
  H   H49       1.0  0.72400  0.31630  0.98340  1.0000
  H   H50       1.0  0.77600  0.18370  0.48340  1.0000
  H   H51       1.0  0.27600  0.31630  0.51660  1.0000
  H   H52       1.0  0.22400  0.18370  0.01660  1.0000
  H   H53       1.0  0.27600  0.68370  0.01660  1.0000
  H   H54       1.0  0.22400  0.81630  0.51660  1.0000
  H   H55       1.0  0.72400  0.68370  0.48340  1.0000
  H   H56       1.0  0.77600  0.81630  0.98340  1.0000
  C   C65       1.0  0.79050  0.24690  0.95762  1.0000
  C   C66       1.0  0.70950  0.25310  0.45762  1.0000
  C   C67       1.0  0.20950  0.24690  0.54238  1.0000
  C   C68       1.0  0.29050  0.25310  0.04238  1.0000
  C   C69       1.0  0.20950  0.75310  0.04238  1.0000
  C   C70       1.0  0.29050  0.74690  0.54238  1.0000
  C   C71       1.0  0.79050  0.75310  0.45762  1.0000
  C   C72       1.0  0.70950  0.74690  0.95762  1.0000
  H   H57       1.0  0.83160  0.23160  0.96880  1.0000
  H   H58       1.0  0.66840  0.26840  0.46880  1.0000
  H   H59       1.0  0.16840  0.23160  0.53120  1.0000
  H   H60       1.0  0.33160  0.26840  0.03120  1.0000
  H   H61       1.0  0.16840  0.76840  0.03120  1.0000
  H   H62       1.0  0.33160  0.73160  0.53120  1.0000
  H   H63       1.0  0.83160  0.76840  0.46880  1.0000
  H   H64       1.0  0.66840  0.73160  0.96880  1.0000
  H   H65       1.0  0.76190  0.20390  0.96300  1.0000
  H   H66       1.0  0.73810  0.29610  0.46300  1.0000
  H   H67       1.0  0.23810  0.20390  0.53700  1.0000
  H   H68       1.0  0.26190  0.29610  0.03700  1.0000
  H   H69       1.0  0.23810  0.79610  0.03700  1.0000
  H   H70       1.0  0.26190  0.70390  0.53700  1.0000
  H   H71       1.0  0.76190  0.79610  0.46300  1.0000
  H   H72       1.0  0.73810  0.70390  0.96300  1.0000
  C   C73       1.0  0.80720  0.21040  0.87990  1.0000
  C   C74       1.0  0.69280  0.28960  0.37990  1.0000
  C   C75       1.0  0.19280  0.21040  0.62010  1.0000
  C   C76       1.0  0.30720  0.28960  0.12010  1.0000
  C   C77       1.0  0.19280  0.78960  0.12010  1.0000
  C   C78       1.0  0.30720  0.71040  0.62010  1.0000
  C   C79       1.0  0.80720  0.78960  0.37990  1.0000
  C   C80       1.0  0.69280  0.71040  0.87990  1.0000
  H   H73       1.0  0.80870  0.15990  0.89190  1.0000
  H   H74       1.0  0.69130  0.34010  0.39190  1.0000
  H   H75       1.0  0.19130  0.15990  0.60810  1.0000
  H   H76       1.0  0.30870  0.34010  0.10810  1.0000
  H   H77       1.0  0.19130  0.84010  0.10810  1.0000
  H   H78       1.0  0.30870  0.65990  0.60810  1.0000
  H   H79       1.0  0.80870  0.84010  0.39190  1.0000
  H   H80       1.0  0.69130  0.65990  0.89190  1.0000
  C   C81       1.0  0.82040  0.22020  0.83166  1.0000
  C   C82       1.0  0.67960  0.27980  0.33166  1.0000
  C   C83       1.0  0.17960  0.22020  0.66834  1.0000
  C   C84       1.0  0.32040  0.27980  0.16834  1.0000
  C   C85       1.0  0.17960  0.77980  0.16834  1.0000
  C   C86       1.0  0.32040  0.72020  0.66834  1.0000
  C   C87       1.0  0.82040  0.77980  0.33166  1.0000
  C   C88       1.0  0.67960  0.72020  0.83166  1.0000
  C   C89       1.0  0.84450  0.15710  0.80770  1.0000
  C   C90       1.0  0.65550  0.34290  0.30770  1.0000
  C   C91       1.0  0.15550  0.15710  0.69230  1.0000
  C   C92       1.0  0.34450  0.34290  0.19230  1.0000
  C   C93       1.0  0.15550  0.84290  0.19230  1.0000
  C   C94       1.0  0.34450  0.65710  0.69230  1.0000
  C   C95       1.0  0.84450  0.84290  0.30770  1.0000
  C   C96       1.0  0.65550  0.65710  0.80770  1.0000
  H   H81       1.0  0.84920  0.10940  0.82280  1.0000
  H   H82       1.0  0.65080  0.39060  0.32280  1.0000
  H   H83       1.0  0.15080  0.10940  0.67720  1.0000
  H   H84       1.0  0.34920  0.39060  0.17720  1.0000
  H   H85       1.0  0.15080  0.89060  0.17720  1.0000
  H   H86       1.0  0.34920  0.60940  0.67720  1.0000
  H   H87       1.0  0.84920  0.89060  0.32280  1.0000
  H   H88       1.0  0.65080  0.60940  0.82280  1.0000
  C   C97       1.0  0.86150  0.16480  0.76180  1.0000
  C   C98       1.0  0.63850  0.33520  0.26180  1.0000
  C   C99       1.0  0.13850  0.16480  0.73820  1.0000
  C   C100      1.0  0.36150  0.33520  0.23820  1.0000
  C   C101      1.0  0.13850  0.83520  0.23820  1.0000
  C   C102      1.0  0.36150  0.66480  0.73820  1.0000
  C   C103      1.0  0.86150  0.83520  0.26180  1.0000
  C   C104      1.0  0.63850  0.66480  0.76180  1.0000
  H   H89       1.0  0.87890  0.12280  0.74590  1.0000
  H   H90       1.0  0.62110  0.37720  0.24590  1.0000
  H   H91       1.0  0.12110  0.12280  0.75410  1.0000
  H   H92       1.0  0.37890  0.37720  0.25410  1.0000
  H   H93       1.0  0.12110  0.87720  0.25410  1.0000
  H   H94       1.0  0.37890  0.62280  0.75410  1.0000
  H   H95       1.0  0.87890  0.87720  0.24590  1.0000
  H   H96       1.0  0.62110  0.62280  0.74590  1.0000
  C   C105      1.0  0.85300  0.23270  0.73995  1.0000
  C   C106      1.0  0.64700  0.26730  0.23995  1.0000
  C   C107      1.0  0.14700  0.23270  0.76005  1.0000
  C   C108      1.0  0.35300  0.26730  0.26005  1.0000
  C   C109      1.0  0.14700  0.76730  0.26005  1.0000
  C   C110      1.0  0.35300  0.73270  0.76005  1.0000
  C   C111      1.0  0.85300  0.76730  0.23995  1.0000
  C   C112      1.0  0.64700  0.73270  0.73995  1.0000
  H   H97       1.0  0.86410  0.23720  0.70850  1.0000
  H   H98       1.0  0.63590  0.26280  0.20850  1.0000
  H   H99       1.0  0.13590  0.23720  0.79150  1.0000
  H   H100      1.0  0.36410  0.26280  0.29150  1.0000
  H   H101      1.0  0.13590  0.76280  0.29150  1.0000
  H   H102      1.0  0.36410  0.73720  0.79150  1.0000
  H   H103      1.0  0.86410  0.76280  0.20850  1.0000
  H   H104      1.0  0.63590  0.73720  0.70850  1.0000
  C   C113      1.0  0.82890  0.29490  0.76226  1.0000
  C   C114      1.0  0.67110  0.20510  0.26226  1.0000
  C   C115      1.0  0.17110  0.29490  0.73774  1.0000
  C   C116      1.0  0.32890  0.20510  0.23774  1.0000
  C   C117      1.0  0.17110  0.70510  0.23774  1.0000
  C   C118      1.0  0.32890  0.79490  0.73774  1.0000
  C   C119      1.0  0.82890  0.70510  0.26226  1.0000
  C   C120      1.0  0.67110  0.79490  0.76226  1.0000
  H   H105      1.0  0.82300  0.34140  0.74600  1.0000
  H   H106      1.0  0.67700  0.15860  0.24600  1.0000
  H   H107      1.0  0.17700  0.34140  0.75400  1.0000
  H   H108      1.0  0.32300  0.15860  0.25400  1.0000
  H   H109      1.0  0.17700  0.65860  0.25400  1.0000
  H   H110      1.0  0.32300  0.84140  0.75400  1.0000
  H   H111      1.0  0.82300  0.65860  0.24600  1.0000
  H   H112      1.0  0.67700  0.84140  0.74600  1.0000
  C   C121      1.0  0.81300  0.29050  0.80850  1.0000
  C   C122      1.0  0.68700  0.20950  0.30850  1.0000
  C   C123      1.0  0.18700  0.29050  0.69150  1.0000
  C   C124      1.0  0.31300  0.20950  0.19150  1.0000
  C   C125      1.0  0.18700  0.70950  0.19150  1.0000
  C   C126      1.0  0.31300  0.79050  0.69150  1.0000
  C   C127      1.0  0.81300  0.70950  0.30850  1.0000
  C   C128      1.0  0.68700  0.79050  0.80850  1.0000
  C   C129      1.0  0.95580  0.30460  0.84266  1.0000
  C   C130      1.0  0.54420  0.19540  0.34266  1.0000
  C   C131      1.0  0.04420  0.30460  0.65734  1.0000
  C   C132      1.0  0.45580  0.19540  0.15734  1.0000
  C   C133      1.0  0.04420  0.69540  0.15734  1.0000
  C   C134      1.0  0.45580  0.80460  0.65734  1.0000
  C   C135      1.0  0.95580  0.69540  0.34266  1.0000
  C   C136      1.0  0.54420  0.80460  0.84266  1.0000
  H   H113      1.0  0.95690  0.26090  0.86200  1.0000
  H   H114      1.0  0.54310  0.23910  0.36200  1.0000
  H   H115      1.0  0.04310  0.26090  0.63800  1.0000
  H   H116      1.0  0.45690  0.23910  0.13800  1.0000
  H   H117      1.0  0.04310  0.73910  0.13800  1.0000
  H   H118      1.0  0.45690  0.76090  0.63800  1.0000
  H   H119      1.0  0.95690  0.73910  0.36200  1.0000
  H   H120      1.0  0.54310  0.76090  0.86200  1.0000
  C   C137      1.0  0.98510  0.30250  0.80103  1.0000
  C   C138      1.0  0.51490  0.19750  0.30103  1.0000
  C   C139      1.0  0.01490  0.30250  0.69897  1.0000
  C   C140      1.0  0.48510  0.19750  0.19897  1.0000
  C   C141      1.0  0.01490  0.69750  0.19897  1.0000
  C   C142      1.0  0.48510  0.80250  0.69897  1.0000
  C   C143      1.0  0.98510  0.69750  0.30103  1.0000
  C   C144      1.0  0.51490  0.80250  0.80103  1.0000
  H   H121      1.0  0.00600  0.25740  0.79170  1.0000
  H   H122      1.0  0.49400  0.24260  0.29170  1.0000
  H   H123      1.0  0.99400  0.25740  0.70830  1.0000
  H   H124      1.0  0.50600  0.24260  0.20830  1.0000
  H   H125      1.0  0.99400  0.74260  0.20830  1.0000
  H   H126      1.0  0.50600  0.75740  0.70830  1.0000
  H   H127      1.0  0.00600  0.74260  0.29170  1.0000
  H   H128      1.0  0.49400  0.75740  0.79170  1.0000
  C   C145      1.0  0.98430  0.36600  0.77244  1.0000
  C   C146      1.0  0.51570  0.13400  0.27244  1.0000
  C   C147      1.0  0.01570  0.36600  0.72756  1.0000
  C   C148      1.0  0.48430  0.13400  0.22756  1.0000
  C   C149      1.0  0.01570  0.63400  0.22756  1.0000
  C   C150      1.0  0.48430  0.86600  0.72756  1.0000
  C   C151      1.0  0.98430  0.63400  0.27244  1.0000
  C   C152      1.0  0.51570  0.86600  0.77244  1.0000
  C   C153      1.0  0.95270  0.42990  0.78751  1.0000
  C   C154      1.0  0.54730  0.07010  0.28751  1.0000
  C   C155      1.0  0.04730  0.42990  0.71249  1.0000
  C   C156      1.0  0.45270  0.07010  0.21249  1.0000
  C   C157      1.0  0.04730  0.57010  0.21249  1.0000
  C   C158      1.0  0.45270  0.92990  0.71249  1.0000
  C   C159      1.0  0.95270  0.57010  0.28751  1.0000
  C   C160      1.0  0.54730  0.92990  0.78751  1.0000
  H   H129      1.0  0.95100  0.47420  0.76870  1.0000
  H   H130      1.0  0.54900  0.02580  0.26870  1.0000
  H   H131      1.0  0.04900  0.47420  0.73130  1.0000
  H   H132      1.0  0.45100  0.02580  0.23130  1.0000
  H   H133      1.0  0.04900  0.52580  0.23130  1.0000
  H   H134      1.0  0.45100  0.97420  0.73130  1.0000
  H   H135      1.0  0.95100  0.52580  0.26870  1.0000
  H   H136      1.0  0.54900  0.97420  0.76870  1.0000
  C   C161      1.0  0.92350  0.43000  0.82949  1.0000
  C   C162      1.0  0.57650  0.07000  0.32949  1.0000
  C   C163      1.0  0.07650  0.43000  0.67051  1.0000
  C   C164      1.0  0.42350  0.07000  0.17051  1.0000
  C   C165      1.0  0.07650  0.57000  0.17051  1.0000
  C   C166      1.0  0.42350  0.93000  0.67051  1.0000
  C   C167      1.0  0.92350  0.57000  0.32949  1.0000
  C   C168      1.0  0.57650  0.93000  0.82949  1.0000
  H   H137      1.0  0.90190  0.47420  0.83940  1.0000
  H   H138      1.0  0.59810  0.02580  0.33940  1.0000
  H   H139      1.0  0.09810  0.47420  0.66060  1.0000
  H   H140      1.0  0.40190  0.02580  0.16060  1.0000
  H   H141      1.0  0.09810  0.52580  0.16060  1.0000
  H   H142      1.0  0.40190  0.97420  0.66060  1.0000
  H   H143      1.0  0.90190  0.52580  0.33940  1.0000
  H   H144      1.0  0.59810  0.97420  0.83940  1.0000
  C   C169      1.0  0.64810  0.40130  0.91940  1.0000
  C   C170      1.0  0.85190  0.09870  0.41940  1.0000
  C   C171      1.0  0.35190  0.40130  0.58060  1.0000
  C   C172      1.0  0.14810  0.09870  0.08060  1.0000
  C   C173      1.0  0.35190  0.59870  0.08060  1.0000
  C   C174      1.0  0.14810  0.90130  0.58060  1.0000
  C   C175      1.0  0.64810  0.59870  0.41940  1.0000
  C   C176      1.0  0.85190  0.90130  0.91940  1.0000
  C   C177      1.0  0.62250  0.67720  0.04819  1.0000
  C   C178      1.0  0.87750  0.82280  0.54819  1.0000
  C   C179      1.0  0.37750  0.67720  0.45181  1.0000
  C   C180      1.0  0.12250  0.82280  0.95181  1.0000
  C   C181      1.0  0.37750  0.32280  0.95181  1.0000
  C   C182      1.0  0.12250  0.17720  0.45181  1.0000
  C   C183      1.0  0.62250  0.32280  0.54819  1.0000
  C   C184      1.0  0.87750  0.17720  0.04819  1.0000
  C   C185      1.0  0.45100  0.63380  0.88015  1.0000
  C   C186      1.0  0.04900  0.86620  0.38015  1.0000
  C   C187      1.0  0.54900  0.63380  0.61985  1.0000
  C   C188      1.0  0.95100  0.86620  0.11985  1.0000
  C   C189      1.0  0.54900  0.36620  0.11985  1.0000
  C   C190      1.0  0.95100  0.13380  0.61985  1.0000
  C   C191      1.0  0.45100  0.36620  0.38015  1.0000
  C   C192      1.0  0.04900  0.13380  0.88015  1.0000
