data_image0
_chemical_formula_structural       Cd18C36H36C72H36C36H36C72N36O180S36
_chemical_formula_sum              "Cd18 C216 H108 N36 O180 S36"
_cell_length_a       16.4986
_cell_length_b       16.4986
_cell_length_c       58.053
_cell_angle_alpha    90
_cell_angle_beta     90
_cell_angle_gamma    120

_space_group_name_H-M_alt    "P 1"
_space_group_IT_number       1

loop_
  _space_group_symop_operation_xyz
  'x, y, z'

loop_
  _atom_site_type_symbol
  _atom_site_label
  _atom_site_symmetry_multiplicity
  _atom_site_fract_x
  _atom_site_fract_y
  _atom_site_fract_z
  _atom_site_occupancy
  Cd  Cd1       1.0  0.14258  0.33330  0.08330  1.0000
  Cd  Cd2       1.0  0.66670  0.80928  0.08330  1.0000
  Cd  Cd3       1.0  0.19072  0.85742  0.08330  1.0000
  Cd  Cd4       1.0  0.33330  0.14258  0.41670  1.0000
  Cd  Cd5       1.0  0.85742  0.19072  0.41670  1.0000
  Cd  Cd6       1.0  0.80928  0.66670  0.41670  1.0000
  Cd  Cd7       1.0  0.99997  0.47591  0.75003  1.0000
  Cd  Cd8       1.0  0.52409  0.52405  0.75003  1.0000
  Cd  Cd9       1.0  0.47595  0.00003  0.75003  1.0000
  Cd  Cd10      1.0  0.85742  0.66670  0.91670  1.0000
  Cd  Cd11      1.0  0.33330  0.19072  0.91670  1.0000
  Cd  Cd12      1.0  0.80928  0.14258  0.91670  1.0000
  Cd  Cd13      1.0  0.66670  0.85742  0.58330  1.0000
  Cd  Cd14      1.0  0.14258  0.80928  0.58330  1.0000
  Cd  Cd15      1.0  0.19072  0.33330  0.58330  1.0000
  Cd  Cd16      1.0  0.00003  0.52409  0.24997  1.0000
  Cd  Cd17      1.0  0.47591  0.47595  0.24997  1.0000
  Cd  Cd18      1.0  0.52405  0.99997  0.24997  1.0000
  C   C1        1.0  0.12850  0.52040  0.09600  1.0000
  C   C2        1.0  0.47960  0.60810  0.09600  1.0000
  C   C3        1.0  0.39190  0.87150  0.09600  1.0000
  C   C4        1.0  0.52040  0.12850  0.40400  1.0000
  C   C5        1.0  0.87150  0.39190  0.40400  1.0000
  C   C6        1.0  0.60810  0.47960  0.40400  1.0000
  C   C7        1.0  0.79517  0.85373  0.42933  1.0000
  C   C8        1.0  0.14627  0.94143  0.42933  1.0000
  C   C9        1.0  0.05857  0.20483  0.42933  1.0000
  C   C10       1.0  0.18707  0.46183  0.73733  1.0000
  C   C11       1.0  0.53817  0.72523  0.73733  1.0000
  C   C12       1.0  0.27477  0.81293  0.73733  1.0000
  C   C13       1.0  0.46183  0.18707  0.76267  1.0000
  C   C14       1.0  0.81293  0.27477  0.76267  1.0000
  C   C15       1.0  0.72523  0.53817  0.76267  1.0000
  C   C16       1.0  0.85373  0.79517  0.07067  1.0000
  C   C17       1.0  0.20483  0.05857  0.07067  1.0000
  C   C18       1.0  0.94143  0.14627  0.07067  1.0000
  C   C19       1.0  0.87150  0.47960  0.90400  1.0000
  C   C20       1.0  0.52040  0.39190  0.90400  1.0000
  C   C21       1.0  0.60810  0.12850  0.90400  1.0000
  C   C22       1.0  0.47960  0.87150  0.59600  1.0000
  C   C23       1.0  0.12850  0.60810  0.59600  1.0000
  C   C24       1.0  0.39190  0.52040  0.59600  1.0000
  C   C25       1.0  0.20483  0.14627  0.57067  1.0000
  C   C26       1.0  0.85373  0.05857  0.57067  1.0000
  C   C27       1.0  0.94143  0.79517  0.57067  1.0000
  C   C28       1.0  0.81293  0.53817  0.26267  1.0000
  C   C29       1.0  0.46183  0.27477  0.26267  1.0000
  C   C30       1.0  0.72523  0.18707  0.26267  1.0000
  C   C31       1.0  0.53817  0.81293  0.23733  1.0000
  C   C32       1.0  0.18707  0.72523  0.23733  1.0000
  C   C33       1.0  0.27477  0.46183  0.23733  1.0000
  C   C34       1.0  0.14627  0.20483  0.92933  1.0000
  C   C35       1.0  0.79517  0.94143  0.92933  1.0000
  C   C36       1.0  0.05857  0.85373  0.92933  1.0000
  H   H1        1.0  0.15360  0.53660  0.08130  1.0000
  H   H2        1.0  0.46340  0.61700  0.08130  1.0000
  H   H3        1.0  0.38300  0.84640  0.08130  1.0000
  H   H4        1.0  0.53660  0.15360  0.41870  1.0000
  H   H5        1.0  0.84640  0.38300  0.41870  1.0000
  H   H6        1.0  0.61700  0.46340  0.41870  1.0000
  H   H7        1.0  0.82027  0.86993  0.41463  1.0000
  H   H8        1.0  0.13007  0.95033  0.41463  1.0000
  H   H9        1.0  0.04967  0.17973  0.41463  1.0000
  H   H10       1.0  0.20327  0.48693  0.75203  1.0000
  H   H11       1.0  0.51307  0.71633  0.75203  1.0000
  H   H12       1.0  0.28367  0.79673  0.75203  1.0000
  H   H13       1.0  0.48693  0.20327  0.74797  1.0000
  H   H14       1.0  0.79673  0.28367  0.74797  1.0000
  H   H15       1.0  0.71633  0.51307  0.74797  1.0000
  H   H16       1.0  0.86993  0.82027  0.08537  1.0000
  H   H17       1.0  0.17973  0.04967  0.08537  1.0000
  H   H18       1.0  0.95033  0.13007  0.08537  1.0000
  H   H19       1.0  0.84640  0.46340  0.91870  1.0000
  H   H20       1.0  0.53660  0.38300  0.91870  1.0000
  H   H21       1.0  0.61700  0.15360  0.91870  1.0000
  H   H22       1.0  0.46340  0.84640  0.58130  1.0000
  H   H23       1.0  0.15360  0.61700  0.58130  1.0000
  H   H24       1.0  0.38300  0.53660  0.58130  1.0000
  H   H25       1.0  0.17973  0.13007  0.58537  1.0000
  H   H26       1.0  0.86993  0.04967  0.58537  1.0000
  H   H27       1.0  0.95033  0.82027  0.58537  1.0000
  H   H28       1.0  0.79673  0.51307  0.24797  1.0000
  H   H29       1.0  0.48693  0.28367  0.24797  1.0000
  H   H30       1.0  0.71633  0.20327  0.24797  1.0000
  H   H31       1.0  0.51307  0.79673  0.25203  1.0000
  H   H32       1.0  0.20327  0.71633  0.25203  1.0000
  H   H33       1.0  0.28367  0.48693  0.25203  1.0000
  H   H34       1.0  0.13007  0.17973  0.91463  1.0000
  H   H35       1.0  0.82027  0.95033  0.91463  1.0000
  H   H36       1.0  0.04967  0.86993  0.91463  1.0000
  C   C37       1.0  0.11720  0.58470  0.10800  1.0000
  C   C38       1.0  0.41530  0.53250  0.10800  1.0000
  C   C39       1.0  0.46750  0.88280  0.10800  1.0000
  C   C40       1.0  0.58470  0.11720  0.39200  1.0000
  C   C41       1.0  0.88280  0.46750  0.39200  1.0000
  C   C42       1.0  0.53250  0.41530  0.39200  1.0000
  C   C43       1.0  0.78387  0.91803  0.44133  1.0000
  C   C44       1.0  0.08197  0.86583  0.44133  1.0000
  C   C45       1.0  0.13417  0.21613  0.44133  1.0000
  C   C46       1.0  0.25137  0.45053  0.72533  1.0000
  C   C47       1.0  0.54947  0.80083  0.72533  1.0000
  C   C48       1.0  0.19917  0.74863  0.72533  1.0000
  C   C49       1.0  0.45053  0.25137  0.77467  1.0000
  C   C50       1.0  0.74863  0.19917  0.77467  1.0000
  C   C51       1.0  0.80083  0.54947  0.77467  1.0000
  C   C52       1.0  0.91803  0.78387  0.05867  1.0000
  C   C53       1.0  0.21613  0.13417  0.05867  1.0000
  C   C54       1.0  0.86583  0.08197  0.05867  1.0000
  C   C55       1.0  0.88280  0.41530  0.89200  1.0000
  C   C56       1.0  0.58470  0.46750  0.89200  1.0000
  C   C57       1.0  0.53250  0.11720  0.89200  1.0000
  C   C58       1.0  0.41530  0.88280  0.60800  1.0000
  C   C59       1.0  0.11720  0.53250  0.60800  1.0000
  C   C60       1.0  0.46750  0.58470  0.60800  1.0000
  C   C61       1.0  0.21613  0.08197  0.55867  1.0000
  C   C62       1.0  0.91803  0.13417  0.55867  1.0000
  C   C63       1.0  0.86583  0.78387  0.55867  1.0000
  C   C64       1.0  0.74863  0.54947  0.27467  1.0000
  C   C65       1.0  0.45053  0.19917  0.27467  1.0000
  C   C66       1.0  0.80083  0.25137  0.27467  1.0000
  C   C67       1.0  0.54947  0.74863  0.22533  1.0000
  C   C68       1.0  0.25137  0.80083  0.22533  1.0000
  C   C69       1.0  0.19917  0.45053  0.22533  1.0000
  C   C70       1.0  0.08197  0.21613  0.94133  1.0000
  C   C71       1.0  0.78387  0.86583  0.94133  1.0000
  C   C72       1.0  0.13417  0.91803  0.94133  1.0000
  C   C73       1.0  0.08030  0.55940  0.12998  1.0000
  C   C74       1.0  0.44060  0.52090  0.12998  1.0000
  C   C75       1.0  0.47910  0.91970  0.12998  1.0000
  C   C76       1.0  0.55940  0.08030  0.37002  1.0000
  C   C77       1.0  0.91970  0.47910  0.37002  1.0000
  C   C78       1.0  0.52090  0.44060  0.37002  1.0000
  C   C79       1.0  0.74697  0.89273  0.46331  1.0000
  C   C80       1.0  0.10727  0.85423  0.46331  1.0000
  C   C81       1.0  0.14577  0.25303  0.46331  1.0000
  C   C82       1.0  0.22607  0.41363  0.70335  1.0000
  C   C83       1.0  0.58637  0.81243  0.70335  1.0000
  C   C84       1.0  0.18757  0.77393  0.70335  1.0000
  C   C85       1.0  0.41363  0.22607  0.79665  1.0000
  C   C86       1.0  0.77393  0.18757  0.79665  1.0000
  C   C87       1.0  0.81243  0.58637  0.79665  1.0000
  C   C88       1.0  0.89273  0.74697  0.03669  1.0000
  C   C89       1.0  0.25303  0.14577  0.03669  1.0000
  C   C90       1.0  0.85423  0.10727  0.03669  1.0000
  C   C91       1.0  0.91970  0.44060  0.87002  1.0000
  C   C92       1.0  0.55940  0.47910  0.87002  1.0000
  C   C93       1.0  0.52090  0.08030  0.87002  1.0000
  C   C94       1.0  0.44060  0.91970  0.62998  1.0000
  C   C95       1.0  0.08030  0.52090  0.62998  1.0000
  C   C96       1.0  0.47910  0.55940  0.62998  1.0000
  C   C97       1.0  0.25303  0.10727  0.53669  1.0000
  C   C98       1.0  0.89273  0.14577  0.53669  1.0000
  C   C99       1.0  0.85423  0.74697  0.53669  1.0000
  C   C100      1.0  0.77393  0.58637  0.29665  1.0000
  C   C101      1.0  0.41363  0.18757  0.29665  1.0000
  C   C102      1.0  0.81243  0.22607  0.29665  1.0000
  C   C103      1.0  0.58637  0.77393  0.20335  1.0000
  C   C104      1.0  0.22607  0.81243  0.20335  1.0000
  C   C105      1.0  0.18757  0.41363  0.20335  1.0000
  C   C106      1.0  0.10727  0.25303  0.96331  1.0000
  C   C107      1.0  0.74697  0.85423  0.96331  1.0000
  C   C108      1.0  0.14577  0.89273  0.96331  1.0000
  H   H37       1.0  0.07070  0.60110  0.13870  1.0000
  H   H38       1.0  0.39890  0.46960  0.13870  1.0000
  H   H39       1.0  0.53040  0.92930  0.13870  1.0000
  H   H40       1.0  0.60110  0.07070  0.36130  1.0000
  H   H41       1.0  0.92930  0.53040  0.36130  1.0000
  H   H42       1.0  0.46960  0.39890  0.36130  1.0000
  H   H43       1.0  0.73737  0.93443  0.47203  1.0000
  H   H44       1.0  0.06557  0.80293  0.47203  1.0000
  H   H45       1.0  0.19707  0.26263  0.47203  1.0000
  H   H46       1.0  0.26777  0.40403  0.69463  1.0000
  H   H47       1.0  0.59597  0.86373  0.69463  1.0000
  H   H48       1.0  0.13627  0.73223  0.69463  1.0000
  H   H49       1.0  0.40403  0.26777  0.80537  1.0000
  H   H50       1.0  0.73223  0.13627  0.80537  1.0000
  H   H51       1.0  0.86373  0.59597  0.80537  1.0000
  H   H52       1.0  0.93443  0.73737  0.02797  1.0000
  H   H53       1.0  0.26263  0.19707  0.02797  1.0000
  H   H54       1.0  0.80293  0.06557  0.02797  1.0000
  H   H55       1.0  0.92930  0.39890  0.86130  1.0000
  H   H56       1.0  0.60110  0.53040  0.86130  1.0000
  H   H57       1.0  0.46960  0.07070  0.86130  1.0000
  H   H58       1.0  0.39890  0.92930  0.63870  1.0000
  H   H59       1.0  0.07070  0.46960  0.63870  1.0000
  H   H60       1.0  0.53040  0.60110  0.63870  1.0000
  H   H61       1.0  0.26263  0.06557  0.52797  1.0000
  H   H62       1.0  0.93443  0.19707  0.52797  1.0000
  H   H63       1.0  0.80293  0.73737  0.52797  1.0000
  H   H64       1.0  0.73223  0.59597  0.30537  1.0000
  H   H65       1.0  0.40403  0.13627  0.30537  1.0000
  H   H66       1.0  0.86373  0.26777  0.30537  1.0000
  H   H67       1.0  0.59597  0.73223  0.19463  1.0000
  H   H68       1.0  0.26777  0.86373  0.19463  1.0000
  H   H69       1.0  0.13627  0.40403  0.19463  1.0000
  H   H70       1.0  0.06557  0.26263  0.97203  1.0000
  H   H71       1.0  0.73737  0.80293  0.97203  1.0000
  H   H72       1.0  0.19707  0.93443  0.97203  1.0000
  C   C109      1.0  0.05780  0.47410  0.13902  1.0000
  C   C110      1.0  0.52590  0.58370  0.13902  1.0000
  C   C111      1.0  0.41630  0.94220  0.13902  1.0000
  C   C112      1.0  0.47410  0.05780  0.36098  1.0000
  C   C113      1.0  0.94220  0.41630  0.36098  1.0000
  C   C114      1.0  0.58370  0.52590  0.36098  1.0000
  C   C115      1.0  0.72447  0.80743  0.47235  1.0000
  C   C116      1.0  0.19257  0.91703  0.47235  1.0000
  C   C117      1.0  0.08297  0.27553  0.47235  1.0000
  C   C118      1.0  0.14077  0.39113  0.69431  1.0000
  C   C119      1.0  0.60887  0.74963  0.69431  1.0000
  C   C120      1.0  0.25037  0.85923  0.69431  1.0000
  C   C121      1.0  0.39113  0.14077  0.80569  1.0000
  C   C122      1.0  0.85923  0.25037  0.80569  1.0000
  C   C123      1.0  0.74963  0.60887  0.80569  1.0000
  C   C124      1.0  0.80743  0.72447  0.02765  1.0000
  C   C125      1.0  0.27553  0.08297  0.02765  1.0000
  C   C126      1.0  0.91703  0.19257  0.02765  1.0000
  C   C127      1.0  0.94220  0.52590  0.86098  1.0000
  C   C128      1.0  0.47410  0.41630  0.86098  1.0000
  C   C129      1.0  0.58370  0.05780  0.86098  1.0000
  C   C130      1.0  0.52590  0.94220  0.63902  1.0000
  C   C131      1.0  0.05780  0.58370  0.63902  1.0000
  C   C132      1.0  0.41630  0.47410  0.63902  1.0000
  C   C133      1.0  0.27553  0.19257  0.52765  1.0000
  C   C134      1.0  0.80743  0.08297  0.52765  1.0000
  C   C135      1.0  0.91703  0.72447  0.52765  1.0000
  C   C136      1.0  0.85923  0.60887  0.30569  1.0000
  C   C137      1.0  0.39113  0.25037  0.30569  1.0000
  C   C138      1.0  0.74963  0.14077  0.30569  1.0000
  C   C139      1.0  0.60887  0.85923  0.19431  1.0000
  C   C140      1.0  0.14077  0.74963  0.19431  1.0000
  C   C141      1.0  0.25037  0.39113  0.19431  1.0000
  C   C142      1.0  0.19257  0.27553  0.97235  1.0000
  C   C143      1.0  0.72447  0.91703  0.97235  1.0000
  C   C144      1.0  0.08297  0.80743  0.97235  1.0000
  H   H73       1.0  0.03410  0.45730  0.15390  1.0000
  H   H74       1.0  0.54270  0.57680  0.15390  1.0000
  H   H75       1.0  0.42320  0.96590  0.15390  1.0000
  H   H76       1.0  0.45730  0.03410  0.34610  1.0000
  H   H77       1.0  0.96590  0.42320  0.34610  1.0000
  H   H78       1.0  0.57680  0.54270  0.34610  1.0000
  H   H79       1.0  0.70077  0.79063  0.48723  1.0000
  H   H80       1.0  0.20937  0.91013  0.48723  1.0000
  H   H81       1.0  0.08987  0.29923  0.48723  1.0000
  H   H82       1.0  0.12397  0.36743  0.67943  1.0000
  H   H83       1.0  0.63257  0.75653  0.67943  1.0000
  H   H84       1.0  0.24347  0.87603  0.67943  1.0000
  H   H85       1.0  0.36743  0.12397  0.82057  1.0000
  H   H86       1.0  0.87603  0.24347  0.82057  1.0000
  H   H87       1.0  0.75653  0.63257  0.82057  1.0000
  H   H88       1.0  0.79063  0.70077  0.01277  1.0000
  H   H89       1.0  0.29923  0.08987  0.01277  1.0000
  H   H90       1.0  0.91013  0.20937  0.01277  1.0000
  H   H91       1.0  0.96590  0.54270  0.84610  1.0000
  H   H92       1.0  0.45730  0.42320  0.84610  1.0000
  H   H93       1.0  0.57680  0.03410  0.84610  1.0000
  H   H94       1.0  0.54270  0.96590  0.65390  1.0000
  H   H95       1.0  0.03410  0.57680  0.65390  1.0000
  H   H96       1.0  0.42320  0.45730  0.65390  1.0000
  H   H97       1.0  0.29923  0.20937  0.51277  1.0000
  H   H98       1.0  0.79063  0.08987  0.51277  1.0000
  H   H99       1.0  0.91013  0.70077  0.51277  1.0000
  H   H100      1.0  0.87603  0.63257  0.32057  1.0000
  H   H101      1.0  0.36743  0.24347  0.32057  1.0000
  H   H102      1.0  0.75653  0.12397  0.32057  1.0000
  H   H103      1.0  0.63257  0.87603  0.17943  1.0000
  H   H104      1.0  0.12397  0.75653  0.17943  1.0000
  H   H105      1.0  0.24347  0.36743  0.17943  1.0000
  H   H106      1.0  0.20937  0.29923  0.98723  1.0000
  H   H107      1.0  0.70077  0.91013  0.98723  1.0000
  H   H108      1.0  0.08987  0.79063  0.98723  1.0000
  C   C145      1.0  0.07180  0.41410  0.12520  1.0000
  C   C146      1.0  0.58590  0.65770  0.12520  1.0000
  C   C147      1.0  0.34230  0.92820  0.12520  1.0000
  C   C148      1.0  0.41410  0.07180  0.37480  1.0000
  C   C149      1.0  0.92820  0.34230  0.37480  1.0000
  C   C150      1.0  0.65770  0.58590  0.37480  1.0000
  C   C151      1.0  0.73847  0.74743  0.45853  1.0000
  C   C152      1.0  0.25257  0.99103  0.45853  1.0000
  C   C153      1.0  0.00897  0.26153  0.45853  1.0000
  C   C154      1.0  0.08077  0.40513  0.70813  1.0000
  C   C155      1.0  0.59487  0.67563  0.70813  1.0000
  C   C156      1.0  0.32437  0.91923  0.70813  1.0000
  C   C157      1.0  0.40513  0.08077  0.79187  1.0000
  C   C158      1.0  0.91923  0.32437  0.79187  1.0000
  C   C159      1.0  0.67563  0.59487  0.79187  1.0000
  C   C160      1.0  0.74743  0.73847  0.04147  1.0000
  C   C161      1.0  0.26153  0.00897  0.04147  1.0000
  C   C162      1.0  0.99103  0.25257  0.04147  1.0000
  C   C163      1.0  0.92820  0.58590  0.87480  1.0000
  C   C164      1.0  0.41410  0.34230  0.87480  1.0000
  C   C165      1.0  0.65770  0.07180  0.87480  1.0000
  C   C166      1.0  0.58590  0.92820  0.62520  1.0000
  C   C167      1.0  0.07180  0.65770  0.62520  1.0000
  C   C168      1.0  0.34230  0.41410  0.62520  1.0000
  C   C169      1.0  0.26153  0.25257  0.54147  1.0000
  C   C170      1.0  0.74743  0.00897  0.54147  1.0000
  C   C171      1.0  0.99103  0.73847  0.54147  1.0000
  C   C172      1.0  0.91923  0.59487  0.29187  1.0000
  C   C173      1.0  0.40513  0.32437  0.29187  1.0000
  C   C174      1.0  0.67563  0.08077  0.29187  1.0000
  C   C175      1.0  0.59487  0.91923  0.20813  1.0000
  C   C176      1.0  0.08077  0.67563  0.20813  1.0000
  C   C177      1.0  0.32437  0.40513  0.20813  1.0000
  C   C178      1.0  0.25257  0.26153  0.95853  1.0000
  C   C179      1.0  0.73847  0.99103  0.95853  1.0000
  C   C180      1.0  0.00897  0.74743  0.95853  1.0000
  C   C181      1.0  0.14240  0.67900  0.09781  1.0000
  C   C182      1.0  0.32100  0.46340  0.09781  1.0000
  C   C183      1.0  0.53660  0.85760  0.09781  1.0000
  C   C184      1.0  0.67900  0.14240  0.40219  1.0000
  C   C185      1.0  0.85760  0.53660  0.40219  1.0000
  C   C186      1.0  0.46340  0.32100  0.40219  1.0000
  C   C187      1.0  0.80907  0.01233  0.43114  1.0000
  C   C188      1.0  0.98767  0.79673  0.43114  1.0000
  C   C189      1.0  0.20327  0.19093  0.43114  1.0000
  C   C190      1.0  0.34567  0.47573  0.73552  1.0000
  C   C191      1.0  0.52427  0.86993  0.73552  1.0000
  C   C192      1.0  0.13007  0.65433  0.73552  1.0000
  C   C193      1.0  0.47573  0.34567  0.76448  1.0000
  C   C194      1.0  0.65433  0.13007  0.76448  1.0000
  C   C195      1.0  0.86993  0.52427  0.76448  1.0000
  C   C196      1.0  0.01233  0.80907  0.06886  1.0000
  C   C197      1.0  0.19093  0.20327  0.06886  1.0000
  C   C198      1.0  0.79673  0.98767  0.06886  1.0000
  C   C199      1.0  0.85760  0.32100  0.90219  1.0000
  C   C200      1.0  0.67900  0.53660  0.90219  1.0000
  C   C201      1.0  0.46340  0.14240  0.90219  1.0000
  C   C202      1.0  0.32100  0.85760  0.59781  1.0000
  C   C203      1.0  0.14240  0.46340  0.59781  1.0000
  C   C204      1.0  0.53660  0.67900  0.59781  1.0000
  C   C205      1.0  0.19093  0.98767  0.56886  1.0000
  C   C206      1.0  0.01233  0.20327  0.56886  1.0000
  C   C207      1.0  0.79673  0.80907  0.56886  1.0000
  C   C208      1.0  0.65433  0.52427  0.26448  1.0000
  C   C209      1.0  0.47573  0.13007  0.26448  1.0000
  C   C210      1.0  0.86993  0.34567  0.26448  1.0000
  C   C211      1.0  0.52427  0.65433  0.23552  1.0000
  C   C212      1.0  0.34567  0.86993  0.23552  1.0000
  C   C213      1.0  0.13007  0.47573  0.23552  1.0000
  C   C214      1.0  0.98767  0.19093  0.93114  1.0000
  C   C215      1.0  0.80907  0.79673  0.93114  1.0000
  C   C216      1.0  0.20327  0.01233  0.93114  1.0000
  N   N1        1.0  0.10620  0.43550  0.10383  1.0000
  N   N2        1.0  0.56450  0.67070  0.10383  1.0000
  N   N3        1.0  0.32930  0.89380  0.10383  1.0000
  N   N4        1.0  0.43550  0.10620  0.39617  1.0000
  N   N5        1.0  0.89380  0.32930  0.39617  1.0000
  N   N6        1.0  0.67070  0.56450  0.39617  1.0000
  N   N7        1.0  0.77287  0.76883  0.43716  1.0000
  N   N8        1.0  0.23117  0.00403  0.43716  1.0000
  N   N9        1.0  0.99597  0.22713  0.43716  1.0000
  N   N10       1.0  0.10217  0.43953  0.72950  1.0000
  N   N11       1.0  0.56047  0.66263  0.72950  1.0000
  N   N12       1.0  0.33737  0.89783  0.72950  1.0000
  N   N13       1.0  0.43953  0.10217  0.77050  1.0000
  N   N14       1.0  0.89783  0.33737  0.77050  1.0000
  N   N15       1.0  0.66263  0.56047  0.77050  1.0000
  N   N16       1.0  0.76883  0.77287  0.06284  1.0000
  N   N17       1.0  0.22713  0.99597  0.06284  1.0000
  N   N18       1.0  0.00403  0.23117  0.06284  1.0000
  N   N19       1.0  0.89380  0.56450  0.89617  1.0000
  N   N20       1.0  0.43550  0.32930  0.89617  1.0000
  N   N21       1.0  0.67070  0.10620  0.89617  1.0000
  N   N22       1.0  0.56450  0.89380  0.60383  1.0000
  N   N23       1.0  0.10620  0.67070  0.60383  1.0000
  N   N24       1.0  0.32930  0.43550  0.60383  1.0000
  N   N25       1.0  0.22713  0.23117  0.56284  1.0000
  N   N26       1.0  0.76883  0.99597  0.56284  1.0000
  N   N27       1.0  0.00403  0.77287  0.56284  1.0000
  N   N28       1.0  0.89783  0.56047  0.27050  1.0000
  N   N29       1.0  0.43953  0.33737  0.27050  1.0000
  N   N30       1.0  0.66263  0.10217  0.27050  1.0000
  N   N31       1.0  0.56047  0.89783  0.22950  1.0000
  N   N32       1.0  0.10217  0.66263  0.22950  1.0000
  N   N33       1.0  0.33737  0.43953  0.22950  1.0000
  N   N34       1.0  0.23117  0.22713  0.93716  1.0000
  N   N35       1.0  0.77287  0.00403  0.93716  1.0000
  N   N36       1.0  0.99597  0.76883  0.93716  1.0000
  O   O1        1.0  0.18220  0.69980  0.07929  1.0000
  O   O2        1.0  0.30020  0.48240  0.07929  1.0000
  O   O3        1.0  0.51760  0.81780  0.07929  1.0000
  O   O4        1.0  0.69980  0.18220  0.42071  1.0000
  O   O5        1.0  0.81780  0.51760  0.42071  1.0000
  O   O6        1.0  0.48240  0.30020  0.42071  1.0000
  O   O7        1.0  0.84887  0.03313  0.41262  1.0000
  O   O8        1.0  0.96687  0.81573  0.41262  1.0000
  O   O9        1.0  0.18427  0.15113  0.41262  1.0000
  O   O10       1.0  0.36647  0.51553  0.75404  1.0000
  O   O11       1.0  0.48447  0.85093  0.75404  1.0000
  O   O12       1.0  0.14907  0.63353  0.75404  1.0000
  O   O13       1.0  0.51553  0.36647  0.74596  1.0000
  O   O14       1.0  0.63353  0.14907  0.74596  1.0000
  O   O15       1.0  0.85093  0.48447  0.74596  1.0000
  O   O16       1.0  0.03313  0.84887  0.08738  1.0000
  O   O17       1.0  0.15113  0.18427  0.08738  1.0000
  O   O18       1.0  0.81573  0.96687  0.08738  1.0000
  O   O19       1.0  0.81780  0.30020  0.92071  1.0000
  O   O20       1.0  0.69980  0.51760  0.92071  1.0000
  O   O21       1.0  0.48240  0.18220  0.92071  1.0000
  O   O22       1.0  0.30020  0.81780  0.57929  1.0000
  O   O23       1.0  0.18220  0.48240  0.57929  1.0000
  O   O24       1.0  0.51760  0.69980  0.57929  1.0000
  O   O25       1.0  0.15113  0.96687  0.58738  1.0000
  O   O26       1.0  0.03313  0.18427  0.58738  1.0000
  O   O27       1.0  0.81573  0.84887  0.58738  1.0000
  O   O28       1.0  0.63353  0.48447  0.24596  1.0000
  O   O29       1.0  0.51553  0.14907  0.24596  1.0000
  O   O30       1.0  0.85093  0.36647  0.24596  1.0000
  O   O31       1.0  0.48447  0.63353  0.25404  1.0000
  O   O32       1.0  0.36647  0.85093  0.25404  1.0000
  O   O33       1.0  0.14907  0.51553  0.25404  1.0000
  O   O34       1.0  0.96687  0.15113  0.91262  1.0000
  O   O35       1.0  0.84887  0.81573  0.91262  1.0000
  O   O36       1.0  0.18427  0.03313  0.91262  1.0000
  O   O37       1.0  0.12290  0.73020  0.10927  1.0000
  O   O38       1.0  0.26980  0.39270  0.10927  1.0000
  O   O39       1.0  0.60730  0.87710  0.10927  1.0000
  O   O40       1.0  0.73020  0.12290  0.39073  1.0000
  O   O41       1.0  0.87710  0.60730  0.39073  1.0000
  O   O42       1.0  0.39270  0.26980  0.39073  1.0000
  O   O43       1.0  0.78957  0.06353  0.44260  1.0000
  O   O44       1.0  0.93647  0.72603  0.44260  1.0000
  O   O45       1.0  0.27397  0.21043  0.44260  1.0000
  O   O46       1.0  0.39687  0.45623  0.72406  1.0000
  O   O47       1.0  0.54377  0.94063  0.72406  1.0000
  O   O48       1.0  0.05937  0.60313  0.72406  1.0000
  O   O49       1.0  0.45623  0.39687  0.77594  1.0000
  O   O50       1.0  0.60313  0.05937  0.77594  1.0000
  O   O51       1.0  0.94063  0.54377  0.77594  1.0000
  O   O52       1.0  0.06353  0.78957  0.05740  1.0000
  O   O53       1.0  0.21043  0.27397  0.05740  1.0000
  O   O54       1.0  0.72603  0.93647  0.05740  1.0000
  O   O55       1.0  0.87710  0.26980  0.89073  1.0000
  O   O56       1.0  0.73020  0.60730  0.89073  1.0000
  O   O57       1.0  0.39270  0.12290  0.89073  1.0000
  O   O58       1.0  0.26980  0.87710  0.60927  1.0000
  O   O59       1.0  0.12290  0.39270  0.60927  1.0000
  O   O60       1.0  0.60730  0.73020  0.60927  1.0000
  O   O61       1.0  0.21043  0.93647  0.55740  1.0000
  O   O62       1.0  0.06353  0.27397  0.55740  1.0000
  O   O63       1.0  0.72603  0.78957  0.55740  1.0000
  O   O64       1.0  0.60313  0.54377  0.27594  1.0000
  O   O65       1.0  0.45623  0.05937  0.27594  1.0000
  O   O66       1.0  0.94063  0.39687  0.27594  1.0000
  O   O67       1.0  0.54377  0.60313  0.22406  1.0000
  O   O68       1.0  0.39687  0.94063  0.22406  1.0000
  O   O69       1.0  0.05937  0.45623  0.22406  1.0000
  O   O70       1.0  0.93647  0.21043  0.94260  1.0000
  O   O71       1.0  0.78957  0.72603  0.94260  1.0000
  O   O72       1.0  0.27397  0.06353  0.94260  1.0000
  O   O73       1.0  0.04700  0.25060  0.11663  1.0000
  O   O74       1.0  0.74940  0.79640  0.11663  1.0000
  O   O75       1.0  0.20360  0.95300  0.11663  1.0000
  O   O76       1.0  0.25060  0.04700  0.38337  1.0000
  O   O77       1.0  0.95300  0.20360  0.38337  1.0000
  O   O78       1.0  0.79640  0.74940  0.38337  1.0000
  O   O79       1.0  0.71367  0.58393  0.44996  1.0000
  O   O80       1.0  0.41607  0.12973  0.44996  1.0000
  O   O81       1.0  0.87027  0.28633  0.44996  1.0000
  O   O82       1.0  0.91727  0.38033  0.71670  1.0000
  O   O83       1.0  0.61967  0.53693  0.71670  1.0000
  O   O84       1.0  0.46307  0.08273  0.71670  1.0000
  O   O85       1.0  0.38033  0.91727  0.78330  1.0000
  O   O86       1.0  0.08273  0.46307  0.78330  1.0000
  O   O87       1.0  0.53693  0.61967  0.78330  1.0000
  O   O88       1.0  0.58393  0.71367  0.05004  1.0000
  O   O89       1.0  0.28633  0.87027  0.05004  1.0000
  O   O90       1.0  0.12973  0.41607  0.05004  1.0000
  O   O91       1.0  0.95300  0.74940  0.88337  1.0000
  O   O92       1.0  0.25060  0.20360  0.88337  1.0000
  O   O93       1.0  0.79640  0.04700  0.88337  1.0000
  O   O94       1.0  0.74940  0.95300  0.61663  1.0000
  O   O95       1.0  0.04700  0.79640  0.61663  1.0000
  O   O96       1.0  0.20360  0.25060  0.61663  1.0000
  O   O97       1.0  0.28633  0.41607  0.55004  1.0000
  O   O98       1.0  0.58393  0.87027  0.55004  1.0000
  O   O99       1.0  0.12973  0.71367  0.55004  1.0000
  O   O100      1.0  0.08273  0.61967  0.28330  1.0000
  O   O101      1.0  0.38033  0.46307  0.28330  1.0000
  O   O102      1.0  0.53693  0.91727  0.28330  1.0000
  O   O103      1.0  0.61967  0.08273  0.21670  1.0000
  O   O104      1.0  0.91727  0.53693  0.21670  1.0000
  O   O105      1.0  0.46307  0.38033  0.21670  1.0000
  O   O106      1.0  0.41607  0.28633  0.94996  1.0000
  O   O107      1.0  0.71367  0.12973  0.94996  1.0000
  O   O108      1.0  0.87027  0.58393  0.94996  1.0000
  O   O109      1.0  0.95200  0.26590  0.14601  1.0000
  O   O110      1.0  0.73410  0.68610  0.14601  1.0000
  O   O111      1.0  0.31390  0.04800  0.14601  1.0000
  O   O112      1.0  0.26590  0.95200  0.35399  1.0000
  O   O113      1.0  0.04800  0.31390  0.35399  1.0000
  O   O114      1.0  0.68610  0.73410  0.35399  1.0000
  O   O115      1.0  0.61867  0.59923  0.47934  1.0000
  O   O116      1.0  0.40077  0.01943  0.47934  1.0000
  O   O117      1.0  0.98057  0.38133  0.47934  1.0000
  O   O118      1.0  0.93257  0.28533  0.68732  1.0000
  O   O119      1.0  0.71467  0.64723  0.68732  1.0000
  O   O120      1.0  0.35277  0.06743  0.68732  1.0000
  O   O121      1.0  0.28533  0.93257  0.81268  1.0000
  O   O122      1.0  0.06743  0.35277  0.81268  1.0000
  O   O123      1.0  0.64723  0.71467  0.81268  1.0000
  O   O124      1.0  0.59923  0.61867  0.02066  1.0000
  O   O125      1.0  0.38133  0.98057  0.02066  1.0000
  O   O126      1.0  0.01943  0.40077  0.02066  1.0000
  O   O127      1.0  0.04800  0.73410  0.85399  1.0000
  O   O128      1.0  0.26590  0.31390  0.85399  1.0000
  O   O129      1.0  0.68610  0.95200  0.85399  1.0000
  O   O130      1.0  0.73410  0.04800  0.64601  1.0000
  O   O131      1.0  0.95200  0.68610  0.64601  1.0000
  O   O132      1.0  0.31390  0.26590  0.64601  1.0000
  O   O133      1.0  0.38133  0.40077  0.52066  1.0000
  O   O134      1.0  0.59923  0.98057  0.52066  1.0000
  O   O135      1.0  0.01943  0.61867  0.52066  1.0000
  O   O136      1.0  0.06743  0.71467  0.31268  1.0000
  O   O137      1.0  0.28533  0.35277  0.31268  1.0000
  O   O138      1.0  0.64723  0.93257  0.31268  1.0000
  O   O139      1.0  0.71467  0.06743  0.18732  1.0000
  O   O140      1.0  0.93257  0.64723  0.18732  1.0000
  O   O141      1.0  0.35277  0.28533  0.18732  1.0000
  O   O142      1.0  0.40077  0.38133  0.97934  1.0000
  O   O143      1.0  0.61867  0.01943  0.97934  1.0000
  O   O144      1.0  0.98057  0.59923  0.97934  1.0000
  O   O145      1.0  0.11190  0.31870  0.15298  1.0000
  O   O146      1.0  0.68130  0.79320  0.15298  1.0000
  O   O147      1.0  0.20680  0.88810  0.15298  1.0000
  O   O148      1.0  0.31870  0.11190  0.34702  1.0000
  O   O149      1.0  0.88810  0.20680  0.34702  1.0000
  O   O150      1.0  0.79320  0.68130  0.34702  1.0000
  O   O151      1.0  0.77857  0.65203  0.48631  1.0000
  O   O152      1.0  0.34797  0.12653  0.48631  1.0000
  O   O153      1.0  0.87347  0.22143  0.48631  1.0000
  O   O154      1.0  0.98537  0.44523  0.68035  1.0000
  O   O155      1.0  0.55477  0.54013  0.68035  1.0000
  O   O156      1.0  0.45987  0.01463  0.68035  1.0000
  O   O157      1.0  0.44523  0.98537  0.81965  1.0000
  O   O158      1.0  0.01463  0.45987  0.81965  1.0000
  O   O159      1.0  0.54013  0.55477  0.81965  1.0000
  O   O160      1.0  0.65203  0.77857  0.01369  1.0000
  O   O161      1.0  0.22143  0.87347  0.01369  1.0000
  O   O162      1.0  0.12653  0.34797  0.01369  1.0000
  O   O163      1.0  0.88810  0.68130  0.84702  1.0000
  O   O164      1.0  0.31870  0.20680  0.84702  1.0000
  O   O165      1.0  0.79320  0.11190  0.84702  1.0000
  O   O166      1.0  0.68130  0.88810  0.65298  1.0000
  O   O167      1.0  0.11190  0.79320  0.65298  1.0000
  O   O168      1.0  0.20680  0.31870  0.65298  1.0000
  O   O169      1.0  0.22143  0.34797  0.51369  1.0000
  O   O170      1.0  0.65203  0.87347  0.51369  1.0000
  O   O171      1.0  0.12653  0.77857  0.51369  1.0000
  O   O172      1.0  0.01463  0.55477  0.31965  1.0000
  O   O173      1.0  0.44523  0.45987  0.31965  1.0000
  O   O174      1.0  0.54013  0.98537  0.31965  1.0000
  O   O175      1.0  0.55477  0.01463  0.18035  1.0000
  O   O176      1.0  0.98537  0.54013  0.18035  1.0000
  O   O177      1.0  0.45987  0.44523  0.18035  1.0000
  O   O178      1.0  0.34797  0.22143  0.98631  1.0000
  O   O179      1.0  0.77857  0.12653  0.98631  1.0000
  O   O180      1.0  0.87347  0.65203  0.98631  1.0000
  S   S1        1.0  0.04244  0.30201  0.13607  1.0000
  S   S2        1.0  0.69799  0.74043  0.13607  1.0000
  S   S3        1.0  0.25957  0.95756  0.13607  1.0000
  S   S4        1.0  0.30201  0.04244  0.36393  1.0000
  S   S5        1.0  0.95756  0.25957  0.36393  1.0000
  S   S6        1.0  0.74043  0.69799  0.36393  1.0000
  S   S7        1.0  0.70911  0.63534  0.46940  1.0000
  S   S8        1.0  0.36466  0.07376  0.46940  1.0000
  S   S9        1.0  0.92624  0.29089  0.46940  1.0000
  S   S10       1.0  0.96868  0.37577  0.69726  1.0000
  S   S11       1.0  0.62423  0.59290  0.69726  1.0000
  S   S12       1.0  0.40710  0.03132  0.69726  1.0000
  S   S13       1.0  0.37577  0.96868  0.80274  1.0000
  S   S14       1.0  0.03132  0.40710  0.80274  1.0000
  S   S15       1.0  0.59290  0.62423  0.80274  1.0000
  S   S16       1.0  0.63534  0.70911  0.03060  1.0000
  S   S17       1.0  0.29089  0.92624  0.03060  1.0000
  S   S18       1.0  0.07376  0.36466  0.03060  1.0000
  S   S19       1.0  0.95756  0.69799  0.86393  1.0000
  S   S20       1.0  0.30201  0.25957  0.86393  1.0000
  S   S21       1.0  0.74043  0.04244  0.86393  1.0000
  S   S22       1.0  0.69799  0.95756  0.63607  1.0000
  S   S23       1.0  0.04244  0.74043  0.63607  1.0000
  S   S24       1.0  0.25957  0.30201  0.63607  1.0000
  S   S25       1.0  0.29089  0.36466  0.53060  1.0000
  S   S26       1.0  0.63534  0.92624  0.53060  1.0000
  S   S27       1.0  0.07376  0.70911  0.53060  1.0000
  S   S28       1.0  0.03132  0.62423  0.30274  1.0000
  S   S29       1.0  0.37577  0.40710  0.30274  1.0000
  S   S30       1.0  0.59290  0.96868  0.30274  1.0000
  S   S31       1.0  0.62423  0.03132  0.19726  1.0000
  S   S32       1.0  0.96868  0.59290  0.19726  1.0000
  S   S33       1.0  0.40710  0.37577  0.19726  1.0000
  S   S34       1.0  0.36466  0.29089  0.96940  1.0000
  S   S35       1.0  0.70911  0.07376  0.96940  1.0000
  S   S36       1.0  0.92624  0.63534  0.96940  1.0000
