data_image0
_chemical_formula_structural       Zn12C16H8C24H8C24H8C16H8C24H8C24H8O72
_chemical_formula_sum              "Zn12 C128 H48 O72"
_cell_length_a       16.274
_cell_length_b       10.787
_cell_length_c       24.384
_cell_angle_alpha    90
_cell_angle_beta     90
_cell_angle_gamma    90

_space_group_name_H-M_alt    "P 1"
_space_group_IT_number       1

loop_
  _space_group_symop_operation_xyz
  'x, y, z'

loop_
  _atom_site_type_symbol
  _atom_site_label
  _atom_site_symmetry_multiplicity
  _atom_site_fract_x
  _atom_site_fract_y
  _atom_site_fract_z
  _atom_site_occupancy
  Zn  Zn1       1.0  0.04695  0.63061  0.37888  1.0000
  Zn  Zn2       1.0  0.45305  0.36939  0.87888  1.0000
  Zn  Zn3       1.0  0.95305  0.13061  0.12112  1.0000
  Zn  Zn4       1.0  0.54695  0.86939  0.62112  1.0000
  Zn  Zn5       1.0  0.95305  0.36939  0.62112  1.0000
  Zn  Zn6       1.0  0.54695  0.63061  0.12112  1.0000
  Zn  Zn7       1.0  0.04695  0.86939  0.87888  1.0000
  Zn  Zn8       1.0  0.45305  0.13061  0.37888  1.0000
  Zn  Zn9       1.0  0.00000  0.50000  0.50000  1.0000
  Zn  Zn10      1.0  0.50000  0.50000  0.00000  1.0000
  Zn  Zn11      1.0  0.00000  0.00000  0.00000  1.0000
  Zn  Zn12      1.0  0.50000  0.00000  0.50000  1.0000
  C   C1        1.0  0.26886  0.51140  0.57342  1.0000
  C   C2        1.0  0.23114  0.48860  0.07342  1.0000
  C   C3        1.0  0.73114  0.01140  0.92658  1.0000
  C   C4        1.0  0.76886  0.98860  0.42658  1.0000
  C   C5        1.0  0.73114  0.48860  0.42658  1.0000
  C   C6        1.0  0.76886  0.51140  0.92658  1.0000
  C   C7        1.0  0.26886  0.98860  0.07342  1.0000
  C   C8        1.0  0.23114  0.01140  0.57342  1.0000
  C   C9        1.0  0.21716  0.52600  0.52934  1.0000
  C   C10       1.0  0.28284  0.47400  0.02934  1.0000
  C   C11       1.0  0.78284  0.02600  0.97066  1.0000
  C   C12       1.0  0.71716  0.97400  0.47066  1.0000
  C   C13       1.0  0.78284  0.47400  0.47066  1.0000
  C   C14       1.0  0.71716  0.52600  0.97066  1.0000
  C   C15       1.0  0.21716  0.97400  0.02934  1.0000
  C   C16       1.0  0.28284  0.02600  0.52934  1.0000
  H   H1        1.0  0.17400  0.47090  0.52380  1.0000
  H   H2        1.0  0.32600  0.52910  0.02380  1.0000
  H   H3        1.0  0.82600  0.97090  0.97620  1.0000
  H   H4        1.0  0.67400  0.02910  0.47620  1.0000
  H   H5        1.0  0.82600  0.52910  0.47620  1.0000
  H   H6        1.0  0.67400  0.47090  0.97620  1.0000
  H   H7        1.0  0.17400  0.02910  0.02380  1.0000
  H   H8        1.0  0.32600  0.97090  0.52380  1.0000
  C   C17       1.0  0.22957  0.62250  0.49351  1.0000
  C   C18       1.0  0.27043  0.37750  0.99351  1.0000
  C   C19       1.0  0.77043  0.12250  0.00649  1.0000
  C   C20       1.0  0.72957  0.87750  0.50649  1.0000
  C   C21       1.0  0.77043  0.37750  0.50649  1.0000
  C   C22       1.0  0.72957  0.62250  0.00649  1.0000
  C   C23       1.0  0.22957  0.87750  0.99351  1.0000
  C   C24       1.0  0.27043  0.12250  0.49351  1.0000
  C   C25       1.0  0.16890  0.64330  0.44870  1.0000
  C   C26       1.0  0.33110  0.35670  0.94870  1.0000
  C   C27       1.0  0.83110  0.14330  0.05130  1.0000
  C   C28       1.0  0.66890  0.85670  0.55130  1.0000
  C   C29       1.0  0.83110  0.35670  0.55130  1.0000
  C   C30       1.0  0.66890  0.64330  0.05130  1.0000
  C   C31       1.0  0.16890  0.85670  0.94870  1.0000
  C   C32       1.0  0.33110  0.14330  0.44870  1.0000
  C   C33       1.0  0.29610  0.69960  0.50065  1.0000
  C   C34       1.0  0.20390  0.30040  0.00065  1.0000
  C   C35       1.0  0.70390  0.19960  0.99935  1.0000
  C   C36       1.0  0.79610  0.80040  0.49935  1.0000
  C   C37       1.0  0.70390  0.30040  0.49935  1.0000
  C   C38       1.0  0.79610  0.69960  0.99935  1.0000
  C   C39       1.0  0.29610  0.80040  0.00065  1.0000
  C   C40       1.0  0.20390  0.19960  0.50065  1.0000
  H   H9        1.0  0.30540  0.76380  0.47590  1.0000
  H   H10       1.0  0.19460  0.23620  0.97590  1.0000
  H   H11       1.0  0.69460  0.26380  0.02410  1.0000
  H   H12       1.0  0.80540  0.73620  0.52410  1.0000
  H   H13       1.0  0.69460  0.23620  0.52410  1.0000
  H   H14       1.0  0.80540  0.76380  0.02410  1.0000
  H   H15       1.0  0.30540  0.73620  0.97590  1.0000
  H   H16       1.0  0.19460  0.26380  0.47590  1.0000
  C   C41       1.0  0.34876  0.68260  0.54397  1.0000
  C   C42       1.0  0.15124  0.31740  0.04397  1.0000
  C   C43       1.0  0.65124  0.18260  0.95603  1.0000
  C   C44       1.0  0.84876  0.81740  0.45603  1.0000
  C   C45       1.0  0.65124  0.31740  0.45603  1.0000
  C   C46       1.0  0.84876  0.68260  0.95603  1.0000
  C   C47       1.0  0.34876  0.81740  0.04397  1.0000
  C   C48       1.0  0.15124  0.18260  0.54397  1.0000
  C   C49       1.0  0.42048  0.76730  0.55219  1.0000
  C   C50       1.0  0.07952  0.23270  0.05219  1.0000
  C   C51       1.0  0.57952  0.26730  0.94781  1.0000
  C   C52       1.0  0.92048  0.73270  0.44781  1.0000
  C   C53       1.0  0.57952  0.23270  0.44781  1.0000
  C   C54       1.0  0.92048  0.76730  0.94781  1.0000
  C   C55       1.0  0.42048  0.73270  0.05219  1.0000
  C   C56       1.0  0.07952  0.26730  0.55219  1.0000
  C   C57       1.0  0.33450  0.58910  0.58111  1.0000
  C   C58       1.0  0.16550  0.41090  0.08111  1.0000
  C   C59       1.0  0.66550  0.08910  0.91889  1.0000
  C   C60       1.0  0.83450  0.91090  0.41889  1.0000
  C   C61       1.0  0.66550  0.41090  0.41889  1.0000
  C   C62       1.0  0.83450  0.58910  0.91889  1.0000
  C   C63       1.0  0.33450  0.91090  0.08111  1.0000
  C   C64       1.0  0.16550  0.08910  0.58111  1.0000
  H   H17       1.0  0.36900  0.57870  0.61120  1.0000
  H   H18       1.0  0.13100  0.42130  0.11120  1.0000
  H   H19       1.0  0.63100  0.07870  0.88880  1.0000
  H   H20       1.0  0.86900  0.92130  0.38880  1.0000
  H   H21       1.0  0.63100  0.42130  0.38880  1.0000
  H   H22       1.0  0.86900  0.57870  0.88880  1.0000
  H   H23       1.0  0.36900  0.92130  0.11120  1.0000
  H   H24       1.0  0.13100  0.07870  0.61120  1.0000
  C   C65       1.0  0.30650  0.35860  0.63913  1.0000
  C   C66       1.0  0.19350  0.64140  0.13913  1.0000
  C   C67       1.0  0.69350  0.85860  0.86087  1.0000
  C   C68       1.0  0.80650  0.14140  0.36087  1.0000
  C   C69       1.0  0.69350  0.64140  0.36087  1.0000
  C   C70       1.0  0.80650  0.35860  0.86087  1.0000
  C   C71       1.0  0.30650  0.14140  0.13913  1.0000
  C   C72       1.0  0.19350  0.85860  0.63913  1.0000
  C   C73       1.0  0.31620  0.38290  0.69345  1.0000
  C   C74       1.0  0.18380  0.61710  0.19345  1.0000
  C   C75       1.0  0.68380  0.88290  0.80655  1.0000
  C   C76       1.0  0.81620  0.11710  0.30655  1.0000
  C   C77       1.0  0.68380  0.61710  0.30655  1.0000
  C   C78       1.0  0.81620  0.38290  0.80655  1.0000
  C   C79       1.0  0.31620  0.11710  0.19345  1.0000
  C   C80       1.0  0.18380  0.88290  0.69345  1.0000
  H   H25       1.0  0.28610  0.44570  0.71010  1.0000
  H   H26       1.0  0.21390  0.55430  0.21010  1.0000
  H   H27       1.0  0.71390  0.94570  0.78990  1.0000
  H   H28       1.0  0.78610  0.05430  0.28990  1.0000
  H   H29       1.0  0.71390  0.55430  0.28990  1.0000
  H   H30       1.0  0.78610  0.44570  0.78990  1.0000
  H   H31       1.0  0.28610  0.05430  0.21010  1.0000
  H   H32       1.0  0.21390  0.94570  0.71010  1.0000
  C   C81       1.0  0.37130  0.31350  0.72358  1.0000
  C   C82       1.0  0.12870  0.68650  0.22358  1.0000
  C   C83       1.0  0.62870  0.81350  0.77642  1.0000
  C   C84       1.0  0.87130  0.18650  0.27642  1.0000
  C   C85       1.0  0.62870  0.68650  0.27642  1.0000
  C   C86       1.0  0.87130  0.31350  0.77642  1.0000
  C   C87       1.0  0.37130  0.18650  0.22358  1.0000
  C   C88       1.0  0.12870  0.81350  0.72358  1.0000
  C   C89       1.0  0.38430  0.34590  0.78228  1.0000
  C   C90       1.0  0.11570  0.65410  0.28228  1.0000
  C   C91       1.0  0.61570  0.84590  0.71772  1.0000
  C   C92       1.0  0.88430  0.15410  0.21772  1.0000
  C   C93       1.0  0.61570  0.65410  0.21772  1.0000
  C   C94       1.0  0.88430  0.34590  0.71772  1.0000
  C   C95       1.0  0.38430  0.15410  0.28228  1.0000
  C   C96       1.0  0.11570  0.84590  0.78228  1.0000
  C   C97       1.0  0.41390  0.21910  0.69838  1.0000
  C   C98       1.0  0.08610  0.78090  0.19838  1.0000
  C   C99       1.0  0.58610  0.71910  0.80162  1.0000
  C   C100      1.0  0.91390  0.28090  0.30162  1.0000
  C   C101      1.0  0.58610  0.78090  0.30162  1.0000
  C   C102      1.0  0.91390  0.21910  0.80162  1.0000
  C   C103      1.0  0.41390  0.28090  0.19838  1.0000
  C   C104      1.0  0.08610  0.71910  0.69838  1.0000
  H   H33       1.0  0.44930  0.17010  0.71900  1.0000
  H   H34       1.0  0.05070  0.82990  0.21900  1.0000
  H   H35       1.0  0.55070  0.67010  0.78100  1.0000
  H   H36       1.0  0.94930  0.32990  0.28100  1.0000
  H   H37       1.0  0.55070  0.82990  0.28100  1.0000
  H   H38       1.0  0.94930  0.17010  0.78100  1.0000
  H   H39       1.0  0.44930  0.32990  0.21900  1.0000
  H   H40       1.0  0.05070  0.67010  0.71900  1.0000
  C   C105      1.0  0.40520  0.19580  0.64319  1.0000
  C   C106      1.0  0.09480  0.80420  0.14319  1.0000
  C   C107      1.0  0.59480  0.69580  0.85681  1.0000
  C   C108      1.0  0.90520  0.30420  0.35681  1.0000
  C   C109      1.0  0.59480  0.80420  0.35681  1.0000
  C   C110      1.0  0.90520  0.19580  0.85681  1.0000
  C   C111      1.0  0.40520  0.30420  0.14319  1.0000
  C   C112      1.0  0.09480  0.69580  0.64319  1.0000
  C   C113      1.0  0.45160  0.09490  0.61532  1.0000
  C   C114      1.0  0.04840  0.90510  0.11532  1.0000
  C   C115      1.0  0.54840  0.59490  0.88468  1.0000
  C   C116      1.0  0.95160  0.40510  0.38468  1.0000
  C   C117      1.0  0.54840  0.90510  0.38468  1.0000
  C   C118      1.0  0.95160  0.09490  0.88468  1.0000
  C   C119      1.0  0.45160  0.40510  0.11532  1.0000
  C   C120      1.0  0.04840  0.59490  0.61532  1.0000
  C   C121      1.0  0.35090  0.26760  0.61335  1.0000
  C   C122      1.0  0.14910  0.73240  0.11335  1.0000
  C   C123      1.0  0.64910  0.76760  0.88665  1.0000
  C   C124      1.0  0.85090  0.23240  0.38665  1.0000
  C   C125      1.0  0.64910  0.73240  0.38665  1.0000
  C   C126      1.0  0.85090  0.26760  0.88665  1.0000
  C   C127      1.0  0.35090  0.23240  0.11335  1.0000
  C   C128      1.0  0.14910  0.76760  0.61335  1.0000
  H   H41       1.0  0.34460  0.25440  0.57590  1.0000
  H   H42       1.0  0.15540  0.74560  0.07590  1.0000
  H   H43       1.0  0.65540  0.75440  0.92410  1.0000
  H   H44       1.0  0.84460  0.24560  0.42410  1.0000
  H   H45       1.0  0.65540  0.74560  0.42410  1.0000
  H   H46       1.0  0.84460  0.25440  0.92410  1.0000
  H   H47       1.0  0.34460  0.24560  0.07590  1.0000
  H   H48       1.0  0.15540  0.75440  0.57590  1.0000
  O   O1        1.0  0.24571  0.42120  0.61042  1.0000
  O   O2        1.0  0.25429  0.57880  0.11042  1.0000
  O   O3        1.0  0.75429  0.92120  0.88958  1.0000
  O   O4        1.0  0.74571  0.07880  0.38958  1.0000
  O   O5        1.0  0.75429  0.57880  0.38958  1.0000
  O   O6        1.0  0.74571  0.42120  0.88958  1.0000
  O   O7        1.0  0.24571  0.07880  0.11042  1.0000
  O   O8        1.0  0.25429  0.92120  0.61042  1.0000
  O   O9        1.0  0.10606  0.57130  0.44557  1.0000
  O   O10       1.0  0.39394  0.42870  0.94557  1.0000
  O   O11       1.0  0.89394  0.07130  0.05443  1.0000
  O   O12       1.0  0.60606  0.92870  0.55443  1.0000
  O   O13       1.0  0.89394  0.42870  0.55443  1.0000
  O   O14       1.0  0.60606  0.57130  0.05443  1.0000
  O   O15       1.0  0.10606  0.92870  0.94557  1.0000
  O   O16       1.0  0.39394  0.07130  0.44557  1.0000
  O   O17       1.0  0.17760  0.72780  0.41617  1.0000
  O   O18       1.0  0.32240  0.27220  0.91617  1.0000
  O   O19       1.0  0.82240  0.22780  0.08383  1.0000
  O   O20       1.0  0.67760  0.77220  0.58383  1.0000
  O   O21       1.0  0.82240  0.27220  0.58383  1.0000
  O   O22       1.0  0.67760  0.72780  0.08383  1.0000
  O   O23       1.0  0.17760  0.77220  0.91617  1.0000
  O   O24       1.0  0.32240  0.22780  0.41617  1.0000
  O   O25       1.0  0.43386  0.84510  0.51587  1.0000
  O   O26       1.0  0.06614  0.15490  0.01587  1.0000
  O   O27       1.0  0.56614  0.34510  0.98413  1.0000
  O   O28       1.0  0.93386  0.65490  0.48413  1.0000
  O   O29       1.0  0.56614  0.15490  0.48413  1.0000
  O   O30       1.0  0.93386  0.84510  0.98413  1.0000
  O   O31       1.0  0.43386  0.65490  0.01587  1.0000
  O   O32       1.0  0.06614  0.34510  0.51587  1.0000
  O   O33       1.0  0.46113  0.75470  0.59509  1.0000
  O   O34       1.0  0.03887  0.24530  0.09509  1.0000
  O   O35       1.0  0.53887  0.25470  0.90491  1.0000
  O   O36       1.0  0.96113  0.74530  0.40491  1.0000
  O   O37       1.0  0.53887  0.24530  0.40491  1.0000
  O   O38       1.0  0.96113  0.75470  0.90491  1.0000
  O   O39       1.0  0.46113  0.74530  0.09509  1.0000
  O   O40       1.0  0.03887  0.25470  0.59509  1.0000
  O   O41       1.0  0.45302  0.09580  0.56459  1.0000
  O   O42       1.0  0.04698  0.90420  0.06459  1.0000
  O   O43       1.0  0.54698  0.59580  0.93541  1.0000
  O   O44       1.0  0.95302  0.40420  0.43541  1.0000
  O   O45       1.0  0.54698  0.90420  0.43541  1.0000
  O   O46       1.0  0.95302  0.09580  0.93541  1.0000
  O   O47       1.0  0.45302  0.40420  0.06459  1.0000
  O   O48       1.0  0.04698  0.59580  0.56459  1.0000
  O   O49       1.0  0.48620  0.01780  0.64525  1.0000
  O   O50       1.0  0.01380  0.98220  0.14525  1.0000
  O   O51       1.0  0.51380  0.51780  0.85475  1.0000
  O   O52       1.0  0.98620  0.48220  0.35475  1.0000
  O   O53       1.0  0.51380  0.98220  0.35475  1.0000
  O   O54       1.0  0.98620  0.01780  0.85475  1.0000
  O   O55       1.0  0.48620  0.48220  0.14525  1.0000
  O   O56       1.0  0.01380  0.51780  0.64525  1.0000
  O   O57       1.0  0.43690  0.28360  0.80865  1.0000
  O   O58       1.0  0.06310  0.71640  0.30865  1.0000
  O   O59       1.0  0.56310  0.78360  0.69135  1.0000
  O   O60       1.0  0.93690  0.21640  0.19135  1.0000
  O   O61       1.0  0.56310  0.71640  0.19135  1.0000
  O   O62       1.0  0.93690  0.28360  0.69135  1.0000
  O   O63       1.0  0.43690  0.21640  0.30865  1.0000
  O   O64       1.0  0.06310  0.78360  0.80865  1.0000
  O   O65       1.0  0.34680  0.43070  0.80329  1.0000
  O   O66       1.0  0.15320  0.56930  0.30329  1.0000
  O   O67       1.0  0.65320  0.93070  0.69671  1.0000
  O   O68       1.0  0.84680  0.06930  0.19671  1.0000
  O   O69       1.0  0.65320  0.56930  0.19671  1.0000
  O   O70       1.0  0.84680  0.43070  0.69671  1.0000
  O   O71       1.0  0.34680  0.06930  0.30329  1.0000
  O   O72       1.0  0.15320  0.93070  0.80329  1.0000
