data_image0
_chemical_formula_structural       Ce4O32N8C24O8C80H72
_chemical_formula_sum              "Ce4 O40 N8 C104 H72"
_cell_length_a       23.767
_cell_length_b       11.425
_cell_length_c       11.949
_cell_angle_alpha    90
_cell_angle_beta     119.99
_cell_angle_gamma    90

_space_group_name_H-M_alt    "P 1"
_space_group_IT_number       1

loop_
  _space_group_symop_operation_xyz
  'x, y, z'

loop_
  _atom_site_type_symbol
  _atom_site_label
  _atom_site_symmetry_multiplicity
  _atom_site_fract_x
  _atom_site_fract_y
  _atom_site_fract_z
  _atom_site_occupancy
  Ce  Ce1       1.0  0.00000  0.56406  0.25000  1.0000
  Ce  Ce2       1.0  0.50000  0.06406  0.25000  1.0000
  Ce  Ce3       1.0  0.00000  0.43594  0.75000  1.0000
  Ce  Ce4       1.0  0.50000  0.93594  0.75000  1.0000
  O   O1        1.0  0.98978  0.67030  0.06100  1.0000
  O   O2        1.0  0.01022  0.67030  0.43900  1.0000
  O   O3        1.0  0.48978  0.17030  0.06100  1.0000
  O   O4        1.0  0.51022  0.17030  0.43900  1.0000
  O   O5        1.0  0.01022  0.32970  0.93900  1.0000
  O   O6        1.0  0.98978  0.32970  0.56100  1.0000
  O   O7        1.0  0.51022  0.82970  0.93900  1.0000
  O   O8        1.0  0.48978  0.82970  0.56100  1.0000
  O   O9        1.0  0.59845  0.99029  0.26680  1.0000
  O   O10       1.0  0.40155  0.99029  0.23320  1.0000
  O   O11       1.0  0.09845  0.49029  0.26680  1.0000
  O   O12       1.0  0.90155  0.49029  0.23320  1.0000
  O   O13       1.0  0.40155  0.00971  0.73320  1.0000
  O   O14       1.0  0.59845  0.00971  0.76680  1.0000
  O   O15       1.0  0.90155  0.50971  0.73320  1.0000
  O   O16       1.0  0.09845  0.50971  0.76680  1.0000
  O   O17       1.0  0.96066  0.40610  0.08850  1.0000
  O   O18       1.0  0.03934  0.40610  0.41150  1.0000
  O   O19       1.0  0.46066  0.90610  0.08850  1.0000
  O   O20       1.0  0.53934  0.90610  0.41150  1.0000
  O   O21       1.0  0.03934  0.59390  0.91150  1.0000
  O   O22       1.0  0.96066  0.59390  0.58850  1.0000
  O   O23       1.0  0.53934  0.09390  0.91150  1.0000
  O   O24       1.0  0.46066  0.09390  0.58850  1.0000
  O   O25       1.0  0.64275  0.84100  0.40410  1.0000
  O   O26       1.0  0.35725  0.84100  0.09590  1.0000
  O   O27       1.0  0.14275  0.34100  0.40410  1.0000
  O   O28       1.0  0.85725  0.34100  0.09590  1.0000
  O   O29       1.0  0.35725  0.15900  0.59590  1.0000
  O   O30       1.0  0.64275  0.15900  0.90410  1.0000
  O   O31       1.0  0.85725  0.65900  0.59590  1.0000
  O   O32       1.0  0.14275  0.65900  0.90410  1.0000
  N   N1        1.0  0.91331  0.73710  0.15190  1.0000
  N   N2        1.0  0.08669  0.73710  0.34810  1.0000
  N   N3        1.0  0.41331  0.23710  0.15190  1.0000
  N   N4        1.0  0.58669  0.23710  0.34810  1.0000
  N   N5        1.0  0.08669  0.26290  0.84810  1.0000
  N   N6        1.0  0.91331  0.26290  0.65190  1.0000
  N   N7        1.0  0.58669  0.76290  0.84810  1.0000
  N   N8        1.0  0.41331  0.76290  0.65190  1.0000
  C   C1        1.0  0.63901  0.90750  0.31800  1.0000
  C   C2        1.0  0.36099  0.90750  0.18200  1.0000
  C   C3        1.0  0.13901  0.40750  0.31800  1.0000
  C   C4        1.0  0.86099  0.40750  0.18200  1.0000
  C   C5        1.0  0.36099  0.09250  0.68200  1.0000
  C   C6        1.0  0.63901  0.09250  0.81800  1.0000
  C   C7        1.0  0.86099  0.59250  0.68200  1.0000
  C   C8        1.0  0.13901  0.59250  0.81800  1.0000
  C   C9        1.0  0.82024  0.83840  0.13270  1.0000
  C   C10       1.0  0.17976  0.83840  0.36730  1.0000
  C   C11       1.0  0.32024  0.33840  0.13270  1.0000
  C   C12       1.0  0.67976  0.33840  0.36730  1.0000
  C   C13       1.0  0.17976  0.16160  0.86730  1.0000
  C   C14       1.0  0.82024  0.16160  0.63270  1.0000
  C   C15       1.0  0.67976  0.66160  0.86730  1.0000
  C   C16       1.0  0.32024  0.66160  0.63270  1.0000
  C   C17       1.0  0.72747  0.94340  0.13060  1.0000
  C   C18       1.0  0.27253  0.94340  0.36940  1.0000
  C   C19       1.0  0.22747  0.44340  0.13060  1.0000
  C   C20       1.0  0.77253  0.44340  0.36940  1.0000
  C   C21       1.0  0.27253  0.05660  0.86940  1.0000
  C   C22       1.0  0.72747  0.05660  0.63060  1.0000
  C   C23       1.0  0.77253  0.55660  0.86940  1.0000
  C   C24       1.0  0.22747  0.55660  0.63060  1.0000
  O   O33       1.0  0.94777  0.80710  0.90640  1.0000
  O   O34       1.0  0.05223  0.80710  0.59360  1.0000
  O   O35       1.0  0.44777  0.30710  0.90640  1.0000
  O   O36       1.0  0.55223  0.30710  0.59360  1.0000
  O   O37       1.0  0.05223  0.19290  0.09360  1.0000
  O   O38       1.0  0.94777  0.19290  0.40640  1.0000
  O   O39       1.0  0.55223  0.69290  0.09360  1.0000
  O   O40       1.0  0.44777  0.69290  0.40640  1.0000
  C   C25       1.0  0.77585  0.86000  0.18510  1.0000
  C   C26       1.0  0.22415  0.86000  0.31490  1.0000
  C   C27       1.0  0.27585  0.36000  0.18510  1.0000
  C   C28       1.0  0.72415  0.36000  0.31490  1.0000
  C   C29       1.0  0.22415  0.14000  0.81490  1.0000
  C   C30       1.0  0.77585  0.14000  0.68510  1.0000
  C   C31       1.0  0.72415  0.64000  0.81490  1.0000
  C   C32       1.0  0.27585  0.64000  0.68510  1.0000
  C   C33       1.0  0.90294  0.78680  0.04180  1.0000
  C   C34       1.0  0.09706  0.78680  0.45820  1.0000
  C   C35       1.0  0.40294  0.28680  0.04180  1.0000
  C   C36       1.0  0.59706  0.28680  0.45820  1.0000
  C   C37       1.0  0.09706  0.21320  0.95820  1.0000
  C   C38       1.0  0.90294  0.21320  0.54180  1.0000
  C   C39       1.0  0.59706  0.71320  0.95820  1.0000
  C   C40       1.0  0.40294  0.71320  0.54180  1.0000
  C   C41       1.0  0.95022  0.75300  0.99780  1.0000
  C   C42       1.0  0.04978  0.75300  0.50220  1.0000
  C   C43       1.0  0.45022  0.25300  0.99780  1.0000
  C   C44       1.0  0.54978  0.25300  0.50220  1.0000
  C   C45       1.0  0.04978  0.24700  0.00220  1.0000
  C   C46       1.0  0.95022  0.24700  0.49780  1.0000
  C   C47       1.0  0.54978  0.74700  0.00220  1.0000
  C   C48       1.0  0.45022  0.74700  0.49780  1.0000
  C   C49       1.0  0.87312  0.76420  0.19600  1.0000
  C   C50       1.0  0.12688  0.76420  0.30400  1.0000
  C   C51       1.0  0.37312  0.26420  0.19600  1.0000
  C   C52       1.0  0.62688  0.26420  0.30400  1.0000
  C   C53       1.0  0.12688  0.23580  0.80400  1.0000
  C   C54       1.0  0.87312  0.23580  0.69600  1.0000
  C   C55       1.0  0.62688  0.73580  0.80400  1.0000
  C   C56       1.0  0.37312  0.73580  0.69600  1.0000
  C   C57       1.0  0.73587  0.80890  0.32900  1.0000
  C   C58       1.0  0.26413  0.80890  0.17100  1.0000
  C   C59       1.0  0.23587  0.30890  0.32900  1.0000
  C   C60       1.0  0.76413  0.30890  0.17100  1.0000
  C   C61       1.0  0.26413  0.19110  0.67100  1.0000
  C   C62       1.0  0.73587  0.19110  0.82900  1.0000
  C   C63       1.0  0.76413  0.69110  0.67100  1.0000
  C   C64       1.0  0.23587  0.69110  0.82900  1.0000
  C   C65       1.0  0.85178  0.86190  0.97190  1.0000
  C   C66       1.0  0.14822  0.86190  0.52810  1.0000
  C   C67       1.0  0.35178  0.36190  0.97190  1.0000
  C   C68       1.0  0.64822  0.36190  0.52810  1.0000
  C   C69       1.0  0.14822  0.13810  0.02810  1.0000
  C   C70       1.0  0.85178  0.13810  0.47190  1.0000
  C   C71       1.0  0.64822  0.63810  0.02810  1.0000
  C   C72       1.0  0.35178  0.63810  0.47190  1.0000
  C   C73       1.0  0.68713  0.89150  0.27240  1.0000
  C   C74       1.0  0.31287  0.89150  0.22760  1.0000
  C   C75       1.0  0.18713  0.39150  0.27240  1.0000
  C   C76       1.0  0.81287  0.39150  0.22760  1.0000
  C   C77       1.0  0.31287  0.10850  0.72760  1.0000
  C   C78       1.0  0.68713  0.10850  0.77240  1.0000
  C   C79       1.0  0.81287  0.60850  0.72760  1.0000
  C   C80       1.0  0.18713  0.60850  0.77240  1.0000
  C   C81       1.0  0.68354  0.95860  0.17320  1.0000
  C   C82       1.0  0.31646  0.95860  0.32680  1.0000
  C   C83       1.0  0.18354  0.45860  0.17320  1.0000
  C   C84       1.0  0.81646  0.45860  0.32680  1.0000
  C   C85       1.0  0.31646  0.04140  0.82680  1.0000
  C   C86       1.0  0.68354  0.04140  0.67320  1.0000
  C   C87       1.0  0.81646  0.54140  0.82680  1.0000
  C   C88       1.0  0.18354  0.54140  0.67320  1.0000
  C   C89       1.0  0.80994  0.88680  0.01760  1.0000
  C   C90       1.0  0.19006  0.88680  0.48240  1.0000
  C   C91       1.0  0.30994  0.38680  0.01760  1.0000
  C   C92       1.0  0.69006  0.38680  0.48240  1.0000
  C   C93       1.0  0.19006  0.11320  0.98240  1.0000
  C   C94       1.0  0.80994  0.11320  0.51760  1.0000
  C   C95       1.0  0.69006  0.61320  0.98240  1.0000
  C   C96       1.0  0.30994  0.61320  0.51760  1.0000
  C   C97       1.0  0.77976  0.79380  0.28580  1.0000
  C   C98       1.0  0.22024  0.79380  0.21420  1.0000
  C   C99       1.0  0.27976  0.29380  0.28580  1.0000
  C   C100      1.0  0.72024  0.29380  0.21420  1.0000
  C   C101      1.0  0.22024  0.20620  0.71420  1.0000
  C   C102      1.0  0.77976  0.20620  0.78580  1.0000
  C   C103      1.0  0.72024  0.70620  0.71420  1.0000
  C   C104      1.0  0.27976  0.70620  0.78580  1.0000
  H   H1        1.0  0.88570  0.72600  0.28200  1.0000
  H   H2        1.0  0.11430  0.72600  0.21800  1.0000
  H   H3        1.0  0.38570  0.22600  0.28200  1.0000
  H   H4        1.0  0.61430  0.22600  0.21800  1.0000
  H   H5        1.0  0.11430  0.27400  0.71800  1.0000
  H   H6        1.0  0.88570  0.27400  0.78200  1.0000
  H   H7        1.0  0.61430  0.77400  0.71800  1.0000
  H   H8        1.0  0.38570  0.77400  0.78200  1.0000
  H   H9        1.0  0.64810  0.01900  0.13000  1.0000
  H   H10       1.0  0.35190  0.01900  0.37000  1.0000
  H   H11       1.0  0.14810  0.51900  0.13000  1.0000
  H   H12       1.0  0.85190  0.51900  0.37000  1.0000
  H   H13       1.0  0.35190  0.98100  0.87000  1.0000
  H   H14       1.0  0.64810  0.98100  0.63000  1.0000
  H   H15       1.0  0.85190  0.48100  0.87000  1.0000
  H   H16       1.0  0.14810  0.48100  0.63000  1.0000
  H   H17       1.0  0.77400  0.94200  0.96900  1.0000
  H   H18       1.0  0.22600  0.94200  0.53100  1.0000
  H   H19       1.0  0.27400  0.44200  0.96900  1.0000
  H   H20       1.0  0.72600  0.44200  0.53100  1.0000
  H   H21       1.0  0.22600  0.05800  0.03100  1.0000
  H   H22       1.0  0.77400  0.05800  0.46900  1.0000
  H   H23       1.0  0.72600  0.55800  0.03100  1.0000
  H   H24       1.0  0.27400  0.55800  0.46900  1.0000
  H   H25       1.0  0.96900  0.38300  0.03200  1.0000
  H   H26       1.0  0.03100  0.38300  0.46800  1.0000
  H   H27       1.0  0.46900  0.88300  0.03200  1.0000
  H   H28       1.0  0.53100  0.88300  0.46800  1.0000
  H   H29       1.0  0.03100  0.61700  0.96800  1.0000
  H   H30       1.0  0.96900  0.61700  0.53200  1.0000
  H   H31       1.0  0.53100  0.11700  0.96800  1.0000
  H   H32       1.0  0.46900  0.11700  0.53200  1.0000
  H   H33       1.0  0.72440  0.99600  0.06400  1.0000
  H   H34       1.0  0.27560  0.99600  0.43600  1.0000
  H   H35       1.0  0.22440  0.49600  0.06400  1.0000
  H   H36       1.0  0.77560  0.49600  0.43600  1.0000
  H   H37       1.0  0.27560  0.00400  0.93600  1.0000
  H   H38       1.0  0.72440  0.00400  0.56400  1.0000
  H   H39       1.0  0.77560  0.50400  0.93600  1.0000
  H   H40       1.0  0.22440  0.50400  0.56400  1.0000
  H   H41       1.0  0.81300  0.72000  0.32600  1.0000
  H   H42       1.0  0.18700  0.72000  0.17400  1.0000
  H   H43       1.0  0.31300  0.22000  0.32600  1.0000
  H   H44       1.0  0.68700  0.22000  0.17400  1.0000
  H   H45       1.0  0.18700  0.28000  0.67400  1.0000
  H   H46       1.0  0.81300  0.28000  0.82600  1.0000
  H   H47       1.0  0.68700  0.78000  0.67400  1.0000
  H   H48       1.0  0.31300  0.78000  0.82600  1.0000
  H   H49       1.0  0.84600  0.89900  0.89000  1.0000
  H   H50       1.0  0.15400  0.89900  0.61000  1.0000
  H   H51       1.0  0.34600  0.39900  0.89000  1.0000
  H   H52       1.0  0.65400  0.39900  0.61000  1.0000
  H   H53       1.0  0.15400  0.10100  0.11000  1.0000
  H   H54       1.0  0.84600  0.10100  0.39000  1.0000
  H   H55       1.0  0.65400  0.60100  0.11000  1.0000
  H   H56       1.0  0.34600  0.60100  0.39000  1.0000
  H   H57       1.0  0.74200  0.76200  0.40400  1.0000
  H   H58       1.0  0.25800  0.76200  0.09600  1.0000
  H   H59       1.0  0.24200  0.26200  0.40400  1.0000
  H   H60       1.0  0.75800  0.26200  0.09600  1.0000
  H   H61       1.0  0.25800  0.23800  0.59600  1.0000
  H   H62       1.0  0.74200  0.23800  0.90400  1.0000
  H   H63       1.0  0.75800  0.73800  0.59600  1.0000
  H   H64       1.0  0.24200  0.73800  0.90400  1.0000
  H   H65       1.0  0.92200  0.38100  0.07400  1.0000
  H   H66       1.0  0.07800  0.38100  0.42600  1.0000
  H   H67       1.0  0.42200  0.88100  0.07400  1.0000
  H   H68       1.0  0.57800  0.88100  0.42600  1.0000
  H   H69       1.0  0.07800  0.61900  0.92600  1.0000
  H   H70       1.0  0.92200  0.61900  0.57400  1.0000
  H   H71       1.0  0.57800  0.11900  0.92600  1.0000
  H   H72       1.0  0.42200  0.11900  0.57400  1.0000
