data_image0
_chemical_formula_structural       Cd4O36N12C16H8C4H8C8H8C4H8C8H8C4H8C4
_chemical_formula_sum              "Cd4 O36 N12 C48 H48"
_cell_length_a       12.375
_cell_length_b       23.376
_cell_length_c       8.5893
_cell_angle_alpha    90
_cell_angle_beta     104.46
_cell_angle_gamma    90

_space_group_name_H-M_alt    "P 1"
_space_group_IT_number       1

loop_
  _space_group_symop_operation_xyz
  'x, y, z'

loop_
  _atom_site_type_symbol
  _atom_site_label
  _atom_site_symmetry_multiplicity
  _atom_site_fract_x
  _atom_site_fract_y
  _atom_site_fract_z
  _atom_site_occupancy
  Cd  Cd1       1.0  0.23929  0.21877  0.45246  1.0000
  Cd  Cd2       1.0  0.76071  0.71877  0.04754  1.0000
  Cd  Cd3       1.0  0.76071  0.78123  0.54754  1.0000
  Cd  Cd4       1.0  0.23929  0.28123  0.95246  1.0000
  O   O1        1.0  0.09410  0.93850  0.34620  1.0000
  O   O2        1.0  0.90590  0.43850  0.15380  1.0000
  O   O3        1.0  0.90590  0.06150  0.65380  1.0000
  O   O4        1.0  0.09410  0.56150  0.84620  1.0000
  O   O5        1.0  0.24840  0.78280  0.62890  1.0000
  O   O6        1.0  0.75160  0.28280  0.87110  1.0000
  O   O7        1.0  0.75160  0.21720  0.37110  1.0000
  O   O8        1.0  0.24840  0.71720  0.12890  1.0000
  O   O9        1.0  0.44320  0.94810  0.67320  1.0000
  O   O10       1.0  0.55680  0.44810  0.82680  1.0000
  O   O11       1.0  0.55680  0.05190  0.32680  1.0000
  O   O12       1.0  0.44320  0.55190  0.17320  1.0000
  O   O13       1.0  0.21640  0.14190  0.61670  1.0000
  O   O14       1.0  0.78360  0.64190  0.88330  1.0000
  O   O15       1.0  0.78360  0.85810  0.38330  1.0000
  O   O16       1.0  0.21640  0.35810  0.11670  1.0000
  O   O17       1.0  0.25560  0.11850  0.39390  1.0000
  O   O18       1.0  0.74440  0.61850  0.10610  1.0000
  O   O19       1.0  0.74440  0.88150  0.60610  1.0000
  O   O20       1.0  0.25560  0.38150  0.89390  1.0000
  O   O21       1.0  0.89570  0.78450  0.10880  1.0000
  O   O22       1.0  0.10430  0.28450  0.39120  1.0000
  O   O23       1.0  0.10430  0.21550  0.89120  1.0000
  O   O24       1.0  0.89570  0.71550  0.60880  1.0000
  O   O25       1.0  0.95140  0.70910  0.24380  1.0000
  O   O26       1.0  0.04860  0.20910  0.25620  1.0000
  O   O27       1.0  0.04860  0.29090  0.75620  1.0000
  O   O28       1.0  0.95140  0.79090  0.74380  1.0000
  O   O29       1.0  0.70690  0.77350  0.78540  1.0000
  O   O30       1.0  0.29310  0.27350  0.71460  1.0000
  O   O31       1.0  0.29310  0.22650  0.21460  1.0000
  O   O32       1.0  0.70690  0.72650  0.28540  1.0000
  O   O33       1.0  0.59440  0.76240  0.93740  1.0000
  O   O34       1.0  0.40560  0.26240  0.56260  1.0000
  O   O35       1.0  0.40560  0.23760  0.06260  1.0000
  O   O36       1.0  0.59440  0.73760  0.43740  1.0000
  N   N1        1.0  0.16690  0.86010  0.48640  1.0000
  N   N2        1.0  0.83310  0.36010  0.01360  1.0000
  N   N3        1.0  0.83310  0.13990  0.51360  1.0000
  N   N4        1.0  0.16690  0.63990  0.98640  1.0000
  N   N5        1.0  0.34540  0.86510  0.65480  1.0000
  N   N6        1.0  0.65460  0.36510  0.84520  1.0000
  N   N7        1.0  0.65460  0.13490  0.34520  1.0000
  N   N8        1.0  0.34540  0.63490  0.15480  1.0000
  N   N9        1.0  0.27040  0.94380  0.50390  1.0000
  N   N10       1.0  0.72960  0.44380  0.99610  1.0000
  N   N11       1.0  0.72960  0.05620  0.49610  1.0000
  N   N12       1.0  0.27040  0.55620  0.00390  1.0000
  C   C1        1.0  0.17070  0.91640  0.43840  1.0000
  C   C2        1.0  0.82930  0.41640  0.06160  1.0000
  C   C3        1.0  0.82930  0.08360  0.56160  1.0000
  C   C4        1.0  0.17070  0.58360  0.93840  1.0000
  C   C5        1.0  0.25340  0.83250  0.59290  1.0000
  C   C6        1.0  0.74660  0.33250  0.90710  1.0000
  C   C7        1.0  0.74660  0.16750  0.40710  1.0000
  C   C8        1.0  0.25340  0.66750  0.09290  1.0000
  C   C9        1.0  0.35690  0.92140  0.61140  1.0000
  C   C10       1.0  0.64310  0.42140  0.88860  1.0000
  C   C11       1.0  0.64310  0.07860  0.38860  1.0000
  C   C12       1.0  0.35690  0.57860  0.11140  1.0000
  C   C13       1.0  0.06270  0.82680  0.42380  1.0000
  C   C14       1.0  0.93730  0.32680  0.07620  1.0000
  C   C15       1.0  0.93730  0.17320  0.57620  1.0000
  C   C16       1.0  0.06270  0.67320  0.92380  1.0000
  H   H1        1.0  0.99990  0.85270  0.39070  1.0000
  H   H2        1.0  0.00010  0.35270  0.10930  1.0000
  H   H3        1.0  0.00010  0.14730  0.60930  1.0000
  H   H4        1.0  0.99990  0.64730  0.89070  1.0000
  H   H5        1.0  0.04910  0.80220  0.50780  1.0000
  H   H6        1.0  0.95090  0.30220  0.99220  1.0000
  H   H7        1.0  0.95090  0.19780  0.49220  1.0000
  H   H8        1.0  0.04910  0.69780  0.00780  1.0000
  C   C17       1.0  0.07390  0.79110  0.28270  1.0000
  C   C18       1.0  0.92610  0.29110  0.21730  1.0000
  C   C19       1.0  0.92610  0.20890  0.71730  1.0000
  C   C20       1.0  0.07390  0.70890  0.78270  1.0000
  H   H9        1.0  0.13350  0.76340  0.31780  1.0000
  H   H10       1.0  0.86650  0.26340  0.18220  1.0000
  H   H11       1.0  0.86650  0.23660  0.68220  1.0000
  H   H12       1.0  0.13350  0.73660  0.81780  1.0000
  H   H13       1.0  0.09310  0.81550  0.20230  1.0000
  H   H14       1.0  0.90690  0.31550  0.29770  1.0000
  H   H15       1.0  0.90690  0.18450  0.79770  1.0000
  H   H16       1.0  0.09310  0.68450  0.70230  1.0000
  C   C21       1.0  0.96610  0.76010  0.20990  1.0000
  C   C22       1.0  0.03390  0.26010  0.29010  1.0000
  C   C23       1.0  0.03390  0.23990  0.79010  1.0000
  C   C24       1.0  0.96610  0.73990  0.70990  1.0000
  C   C25       1.0  0.43720  0.83710  0.77330  1.0000
  C   C26       1.0  0.56280  0.33710  0.72670  1.0000
  C   C27       1.0  0.56280  0.16290  0.22670  1.0000
  C   C28       1.0  0.43720  0.66290  0.27330  1.0000
  H   H17       1.0  0.40740  0.80590  0.82410  1.0000
  H   H18       1.0  0.59260  0.30590  0.67590  1.0000
  H   H19       1.0  0.59260  0.19410  0.17590  1.0000
  H   H20       1.0  0.40740  0.69410  0.32410  1.0000
  H   H21       1.0  0.47090  0.86450  0.85620  1.0000
  H   H22       1.0  0.52910  0.36450  0.64380  1.0000
  H   H23       1.0  0.52910  0.13550  0.14380  1.0000
  H   H24       1.0  0.47090  0.63550  0.35620  1.0000
  C   C29       1.0  0.52420  0.81460  0.69700  1.0000
  C   C30       1.0  0.47580  0.31460  0.80300  1.0000
  C   C31       1.0  0.47580  0.18540  0.30300  1.0000
  C   C32       1.0  0.52420  0.68540  0.19700  1.0000
  H   H25       1.0  0.55900  0.84650  0.65550  1.0000
  H   H26       1.0  0.44100  0.34650  0.84450  1.0000
  H   H27       1.0  0.44100  0.15350  0.34450  1.0000
  H   H28       1.0  0.55900  0.65350  0.15550  1.0000
  H   H29       1.0  0.48900  0.79040  0.60690  1.0000
  H   H30       1.0  0.51100  0.29040  0.89310  1.0000
  H   H31       1.0  0.51100  0.20960  0.39310  1.0000
  H   H32       1.0  0.48900  0.70960  0.10690  1.0000
  C   C33       1.0  0.61340  0.78060  0.81280  1.0000
  C   C34       1.0  0.38660  0.28060  0.68720  1.0000
  C   C35       1.0  0.38660  0.21940  0.18720  1.0000
  C   C36       1.0  0.61340  0.71940  0.31280  1.0000
  C   C37       1.0  0.27970  0.00510  0.46500  1.0000
  C   C38       1.0  0.72030  0.50510  0.03500  1.0000
  C   C39       1.0  0.72030  0.99490  0.53500  1.0000
  C   C40       1.0  0.27970  0.49490  0.96500  1.0000
  H   H33       1.0  0.24260  0.01150  0.35280  1.0000
  H   H34       1.0  0.75740  0.51150  0.14720  1.0000
  H   H35       1.0  0.75740  0.98850  0.64720  1.0000
  H   H36       1.0  0.24260  0.48850  0.85280  1.0000
  H   H37       1.0  0.35780  0.01490  0.48050  1.0000
  H   H38       1.0  0.64220  0.51490  0.01950  1.0000
  H   H39       1.0  0.64220  0.98510  0.51950  1.0000
  H   H40       1.0  0.35780  0.48510  0.98050  1.0000
  C   C41       1.0  0.22870  0.04320  0.56790  1.0000
  C   C42       1.0  0.77130  0.54320  0.93210  1.0000
  C   C43       1.0  0.77130  0.95680  0.43210  1.0000
  C   C44       1.0  0.22870  0.45680  0.06790  1.0000
  H   H41       1.0  0.26810  0.03810  0.67980  1.0000
  H   H42       1.0  0.73190  0.53810  0.82020  1.0000
  H   H43       1.0  0.73190  0.96190  0.32020  1.0000
  H   H44       1.0  0.26810  0.46190  0.17980  1.0000
  H   H45       1.0  0.15160  0.03220  0.55630  1.0000
  H   H46       1.0  0.84840  0.53220  0.94370  1.0000
  H   H47       1.0  0.84840  0.96780  0.44370  1.0000
  H   H48       1.0  0.15160  0.46780  0.05630  1.0000
  C   C45       1.0  0.23330  0.10540  0.52340  1.0000
  C   C46       1.0  0.76670  0.60540  0.97660  1.0000
  C   C47       1.0  0.76670  0.89460  0.47660  1.0000
  C   C48       1.0  0.23330  0.39460  0.02340  1.0000
