data_image0
_chemical_formula_structural       Sm4O24N8O16C40H8C8H8C8H8C8H8C24H8C8H8C8H24
_chemical_formula_sum              "Sm4 O40 N8 C104 H72"
_cell_length_a       23.563
_cell_length_b       11.397
_cell_length_c       11.927
_cell_angle_alpha    90
_cell_angle_beta     120.09
_cell_angle_gamma    90

_space_group_name_H-M_alt    "P 1"
_space_group_IT_number       1

loop_
  _space_group_symop_operation_xyz
  'x, y, z'

loop_
  _atom_site_type_symbol
  _atom_site_label
  _atom_site_symmetry_multiplicity
  _atom_site_fract_x
  _atom_site_fract_y
  _atom_site_fract_z
  _atom_site_occupancy
  Sm  Sm1       1.0  0.00000  0.06442  0.25000  1.0000
  Sm  Sm2       1.0  0.50000  0.56442  0.25000  1.0000
  Sm  Sm3       1.0  0.00000  0.93558  0.75000  1.0000
  Sm  Sm4       1.0  0.50000  0.43558  0.75000  1.0000
  O   O1        1.0  0.00944  0.16520  0.43700  1.0000
  O   O2        1.0  0.99056  0.16520  0.06300  1.0000
  O   O3        1.0  0.50944  0.66520  0.43700  1.0000
  O   O4        1.0  0.49056  0.66520  0.06300  1.0000
  O   O5        1.0  0.99056  0.83480  0.56300  1.0000
  O   O6        1.0  0.00944  0.83480  0.93700  1.0000
  O   O7        1.0  0.49056  0.33480  0.56300  1.0000
  O   O8        1.0  0.50944  0.33480  0.93700  1.0000
  O   O9        1.0  0.96200  0.91070  0.09130  1.0000
  O   O10       1.0  0.03800  0.91070  0.40870  1.0000
  O   O11       1.0  0.46200  0.41070  0.09130  1.0000
  O   O12       1.0  0.53800  0.41070  0.40870  1.0000
  O   O13       1.0  0.03800  0.08930  0.90870  1.0000
  O   O14       1.0  0.96200  0.08930  0.59130  1.0000
  O   O15       1.0  0.53800  0.58930  0.90870  1.0000
  O   O16       1.0  0.46200  0.58930  0.59130  1.0000
  O   O17       1.0  0.40271  0.49200  0.23530  1.0000
  O   O18       1.0  0.59729  0.49200  0.26470  1.0000
  O   O19       1.0  0.90271  0.99200  0.23530  1.0000
  O   O20       1.0  0.09729  0.99200  0.26470  1.0000
  O   O21       1.0  0.59729  0.50800  0.76470  1.0000
  O   O22       1.0  0.40271  0.50800  0.73530  1.0000
  O   O23       1.0  0.09729  0.00800  0.76470  1.0000
  O   O24       1.0  0.90271  0.00800  0.73530  1.0000
  N   N1        1.0  0.08537  0.23440  0.34580  1.0000
  N   N2        1.0  0.91463  0.23440  0.15420  1.0000
  N   N3        1.0  0.58537  0.73440  0.34580  1.0000
  N   N4        1.0  0.41463  0.73440  0.15420  1.0000
  N   N5        1.0  0.91463  0.76560  0.65420  1.0000
  N   N6        1.0  0.08537  0.76560  0.84580  1.0000
  N   N7        1.0  0.41463  0.26560  0.65420  1.0000
  N   N8        1.0  0.58537  0.26560  0.84580  1.0000
  O   O25       1.0  0.35783  0.34280  0.09670  1.0000
  O   O26       1.0  0.64217  0.34280  0.40330  1.0000
  O   O27       1.0  0.85783  0.84280  0.09670  1.0000
  O   O28       1.0  0.14217  0.84280  0.40330  1.0000
  O   O29       1.0  0.64217  0.65720  0.90330  1.0000
  O   O30       1.0  0.35783  0.65720  0.59670  1.0000
  O   O31       1.0  0.14217  0.15720  0.90330  1.0000
  O   O32       1.0  0.85783  0.15720  0.59670  1.0000
  O   O33       1.0  0.05032  0.30390  0.59050  1.0000
  O   O34       1.0  0.94968  0.30390  0.90950  1.0000
  O   O35       1.0  0.55032  0.80390  0.59050  1.0000
  O   O36       1.0  0.44968  0.80390  0.90950  1.0000
  O   O37       1.0  0.94968  0.69610  0.40950  1.0000
  O   O38       1.0  0.05032  0.69610  0.09050  1.0000
  O   O39       1.0  0.44968  0.19610  0.40950  1.0000
  O   O40       1.0  0.55032  0.19610  0.09050  1.0000
  C   C1        1.0  0.36160  0.40920  0.18260  1.0000
  C   C2        1.0  0.63840  0.40920  0.31740  1.0000
  C   C3        1.0  0.86160  0.90920  0.18260  1.0000
  C   C4        1.0  0.13840  0.90920  0.31740  1.0000
  C   C5        1.0  0.63840  0.59080  0.81740  1.0000
  C   C6        1.0  0.36160  0.59080  0.68260  1.0000
  C   C7        1.0  0.13840  0.09080  0.81740  1.0000
  C   C8        1.0  0.86160  0.09080  0.68260  1.0000
  C   C9        1.0  0.22358  0.36030  0.31340  1.0000
  C   C10       1.0  0.77642  0.36030  0.18660  1.0000
  C   C11       1.0  0.72358  0.86030  0.31340  1.0000
  C   C12       1.0  0.27642  0.86030  0.18660  1.0000
  C   C13       1.0  0.77642  0.63970  0.68660  1.0000
  C   C14       1.0  0.22358  0.63970  0.81340  1.0000
  C   C15       1.0  0.27642  0.13970  0.68660  1.0000
  C   C16       1.0  0.72358  0.13970  0.81340  1.0000
  C   C17       1.0  0.09556  0.28340  0.45560  1.0000
  C   C18       1.0  0.90444  0.28340  0.04440  1.0000
  C   C19       1.0  0.59556  0.78340  0.45560  1.0000
  C   C20       1.0  0.40444  0.78340  0.04440  1.0000
  C   C21       1.0  0.90444  0.71660  0.54440  1.0000
  C   C22       1.0  0.09556  0.71660  0.95560  1.0000
  C   C23       1.0  0.40444  0.21660  0.54440  1.0000
  C   C24       1.0  0.59556  0.21660  0.95560  1.0000
  C   C25       1.0  0.17895  0.33770  0.36550  1.0000
  C   C26       1.0  0.82105  0.33770  0.13450  1.0000
  C   C27       1.0  0.67895  0.83770  0.36550  1.0000
  C   C28       1.0  0.32105  0.83770  0.13450  1.0000
  C   C29       1.0  0.82105  0.66230  0.63450  1.0000
  C   C30       1.0  0.17895  0.66230  0.86550  1.0000
  C   C31       1.0  0.32105  0.16230  0.63450  1.0000
  C   C32       1.0  0.67895  0.16230  0.86550  1.0000
  C   C33       1.0  0.14690  0.36040  0.52550  1.0000
  C   C34       1.0  0.85310  0.36040  0.97450  1.0000
  C   C35       1.0  0.64690  0.86040  0.52550  1.0000
  C   C36       1.0  0.35310  0.86040  0.97450  1.0000
  C   C37       1.0  0.85310  0.63960  0.47450  1.0000
  C   C38       1.0  0.14690  0.63960  0.02550  1.0000
  C   C39       1.0  0.35310  0.13960  0.47450  1.0000
  C   C40       1.0  0.64690  0.13960  0.02550  1.0000
  H   H1        1.0  0.15290  0.39440  0.60150  1.0000
  H   H2        1.0  0.84710  0.39440  0.89850  1.0000
  H   H3        1.0  0.65290  0.89440  0.60150  1.0000
  H   H4        1.0  0.34710  0.89440  0.89850  1.0000
  H   H5        1.0  0.84710  0.60560  0.39850  1.0000
  H   H6        1.0  0.15290  0.60560  0.10150  1.0000
  H   H7        1.0  0.34710  0.10560  0.39850  1.0000
  H   H8        1.0  0.65290  0.10560  0.10150  1.0000
  C   C41       1.0  0.12590  0.26210  0.30260  1.0000
  C   C42       1.0  0.87410  0.26210  0.19740  1.0000
  C   C43       1.0  0.62590  0.76210  0.30260  1.0000
  C   C44       1.0  0.37410  0.76210  0.19740  1.0000
  C   C45       1.0  0.87410  0.73790  0.69740  1.0000
  C   C46       1.0  0.12590  0.73790  0.80260  1.0000
  C   C47       1.0  0.37410  0.23790  0.69740  1.0000
  C   C48       1.0  0.62590  0.23790  0.80260  1.0000
  H   H9        1.0  0.11820  0.22850  0.22520  1.0000
  H   H10       1.0  0.88180  0.22850  0.27480  1.0000
  H   H11       1.0  0.61820  0.72850  0.22520  1.0000
  H   H12       1.0  0.38180  0.72850  0.27480  1.0000
  H   H13       1.0  0.88180  0.77150  0.77480  1.0000
  H   H14       1.0  0.11820  0.77150  0.72520  1.0000
  H   H15       1.0  0.38180  0.27150  0.77480  1.0000
  H   H16       1.0  0.61820  0.27150  0.72520  1.0000
  C   C49       1.0  0.31630  0.45990  0.32580  1.0000
  C   C50       1.0  0.68370  0.45990  0.17420  1.0000
  C   C51       1.0  0.81630  0.95990  0.32580  1.0000
  C   C52       1.0  0.18370  0.95990  0.17420  1.0000
  C   C53       1.0  0.68370  0.54010  0.67420  1.0000
  C   C54       1.0  0.31630  0.54010  0.82580  1.0000
  C   C55       1.0  0.18370  0.04010  0.67420  1.0000
  C   C56       1.0  0.81630  0.04010  0.82580  1.0000
  H   H17       1.0  0.34880  0.51660  0.36480  1.0000
  H   H18       1.0  0.65120  0.51660  0.13520  1.0000
  H   H19       1.0  0.84880  0.01660  0.36480  1.0000
  H   H20       1.0  0.15120  0.01660  0.13520  1.0000
  H   H21       1.0  0.65120  0.48340  0.63520  1.0000
  H   H22       1.0  0.34880  0.48340  0.86480  1.0000
  H   H23       1.0  0.15120  0.98340  0.63520  1.0000
  H   H24       1.0  0.84880  0.98340  0.86480  1.0000
  C   C57       1.0  0.27200  0.44470  0.36810  1.0000
  C   C58       1.0  0.72800  0.44470  0.13190  1.0000
  C   C59       1.0  0.77200  0.94470  0.36810  1.0000
  C   C60       1.0  0.22800  0.94470  0.13190  1.0000
  C   C61       1.0  0.72800  0.55530  0.63190  1.0000
  C   C62       1.0  0.27200  0.55530  0.86810  1.0000
  C   C63       1.0  0.22800  0.05530  0.63190  1.0000
  C   C64       1.0  0.77200  0.05530  0.86810  1.0000
  H   H25       1.0  0.27480  0.49180  0.43430  1.0000
  H   H26       1.0  0.72520  0.49180  0.06570  1.0000
  H   H27       1.0  0.77480  0.99180  0.43430  1.0000
  H   H28       1.0  0.22520  0.99180  0.06570  1.0000
  H   H29       1.0  0.72520  0.50820  0.56570  1.0000
  H   H30       1.0  0.27480  0.50820  0.93430  1.0000
  H   H31       1.0  0.22520  0.00820  0.56570  1.0000
  H   H32       1.0  0.77480  0.00820  0.93430  1.0000
  C   C65       1.0  0.04830  0.24950  0.49950  1.0000
  C   C66       1.0  0.95170  0.24950  0.00050  1.0000
  C   C67       1.0  0.54830  0.74950  0.49950  1.0000
  C   C68       1.0  0.45170  0.74950  0.00050  1.0000
  C   C69       1.0  0.95170  0.75050  0.50050  1.0000
  C   C70       1.0  0.04830  0.75050  0.99950  1.0000
  C   C71       1.0  0.45170  0.25050  0.50050  1.0000
  C   C72       1.0  0.54830  0.25050  0.99950  1.0000
  C   C73       1.0  0.31329  0.39320  0.22760  1.0000
  C   C74       1.0  0.68671  0.39320  0.27240  1.0000
  C   C75       1.0  0.81329  0.89320  0.22760  1.0000
  C   C76       1.0  0.18671  0.89320  0.27240  1.0000
  C   C77       1.0  0.68671  0.60680  0.77240  1.0000
  C   C78       1.0  0.31329  0.60680  0.72760  1.0000
  C   C79       1.0  0.18671  0.10680  0.77240  1.0000
  C   C80       1.0  0.81329  0.10680  0.72760  1.0000
  C   C81       1.0  0.26390  0.31050  0.17070  1.0000
  C   C82       1.0  0.73610  0.31050  0.32930  1.0000
  C   C83       1.0  0.76390  0.81050  0.17070  1.0000
  C   C84       1.0  0.23610  0.81050  0.32930  1.0000
  C   C85       1.0  0.73610  0.68950  0.82930  1.0000
  C   C86       1.0  0.26390  0.68950  0.67070  1.0000
  C   C87       1.0  0.23610  0.18950  0.82930  1.0000
  C   C88       1.0  0.76390  0.18950  0.67070  1.0000
  H   H33       1.0  0.26050  0.26480  0.10300  1.0000
  H   H34       1.0  0.73950  0.26480  0.39700  1.0000
  H   H35       1.0  0.76050  0.76480  0.10300  1.0000
  H   H36       1.0  0.23950  0.76480  0.39700  1.0000
  H   H37       1.0  0.73950  0.73520  0.89700  1.0000
  H   H38       1.0  0.26050  0.73520  0.60300  1.0000
  H   H39       1.0  0.23950  0.23520  0.89700  1.0000
  H   H40       1.0  0.76050  0.23520  0.60300  1.0000
  C   C89       1.0  0.18890  0.38550  0.48020  1.0000
  C   C90       1.0  0.81110  0.38550  0.01980  1.0000
  C   C91       1.0  0.68890  0.88550  0.48020  1.0000
  C   C92       1.0  0.31110  0.88550  0.01980  1.0000
  C   C93       1.0  0.81110  0.61450  0.51980  1.0000
  C   C94       1.0  0.18890  0.61450  0.98020  1.0000
  C   C95       1.0  0.31110  0.11450  0.51980  1.0000
  C   C96       1.0  0.68890  0.11450  0.98020  1.0000
  H   H41       1.0  0.22440  0.43520  0.52730  1.0000
  H   H42       1.0  0.77560  0.43520  0.97270  1.0000
  H   H43       1.0  0.72440  0.93520  0.52730  1.0000
  H   H44       1.0  0.27560  0.93520  0.97270  1.0000
  H   H45       1.0  0.77560  0.56480  0.47270  1.0000
  H   H46       1.0  0.22440  0.56480  0.02730  1.0000
  H   H47       1.0  0.27560  0.06480  0.47270  1.0000
  H   H48       1.0  0.72440  0.06480  0.02730  1.0000
  C   C97       1.0  0.22010  0.29500  0.21290  1.0000
  C   C98       1.0  0.77990  0.29500  0.28710  1.0000
  C   C99       1.0  0.72010  0.79500  0.21290  1.0000
  C   C100      1.0  0.27990  0.79500  0.28710  1.0000
  C   C101      1.0  0.77990  0.70500  0.78710  1.0000
  C   C102      1.0  0.22010  0.70500  0.71290  1.0000
  C   C103      1.0  0.27990  0.20500  0.78710  1.0000
  C   C104      1.0  0.72010  0.20500  0.71290  1.0000
  H   H49       1.0  0.18720  0.23910  0.17270  1.0000
  H   H50       1.0  0.81280  0.23910  0.32730  1.0000
  H   H51       1.0  0.68720  0.73910  0.17270  1.0000
  H   H52       1.0  0.31280  0.73910  0.32730  1.0000
  H   H53       1.0  0.81280  0.76090  0.82730  1.0000
  H   H54       1.0  0.18720  0.76090  0.67270  1.0000
  H   H55       1.0  0.31280  0.26090  0.82730  1.0000
  H   H56       1.0  0.68720  0.26090  0.67270  1.0000
  H   H57       1.0  0.97100  0.89100  0.04100  1.0000
  H   H58       1.0  0.02900  0.89100  0.45900  1.0000
  H   H59       1.0  0.47100  0.39100  0.04100  1.0000
  H   H60       1.0  0.52900  0.39100  0.45900  1.0000
  H   H61       1.0  0.02900  0.10900  0.95900  1.0000
  H   H62       1.0  0.97100  0.10900  0.54100  1.0000
  H   H63       1.0  0.52900  0.60900  0.95900  1.0000
  H   H64       1.0  0.47100  0.60900  0.54100  1.0000
  H   H65       1.0  0.93400  0.89500  0.08200  1.0000
  H   H66       1.0  0.06600  0.89500  0.41800  1.0000
  H   H67       1.0  0.43400  0.39500  0.08200  1.0000
  H   H68       1.0  0.56600  0.39500  0.41800  1.0000
  H   H69       1.0  0.06600  0.10500  0.91800  1.0000
  H   H70       1.0  0.93400  0.10500  0.58200  1.0000
  H   H71       1.0  0.56600  0.60500  0.91800  1.0000
  H   H72       1.0  0.43400  0.60500  0.58200  1.0000
