data_image0
_chemical_formula_structural       Gd4C24H8C8H8C16H8C16H8C8H8C16H8C8H8C8H16N8O40
_chemical_formula_sum              "Gd4 C104 H72 N8 O40"
_cell_length_a       23.48
_cell_length_b       11.414
_cell_length_c       11.932
_cell_angle_alpha    90
_cell_angle_beta     120.189
_cell_angle_gamma    90

_space_group_name_H-M_alt    "P 1"
_space_group_IT_number       1

loop_
  _space_group_symop_operation_xyz
  'x, y, z'

loop_
  _atom_site_type_symbol
  _atom_site_label
  _atom_site_symmetry_multiplicity
  _atom_site_fract_x
  _atom_site_fract_y
  _atom_site_fract_z
  _atom_site_occupancy
  Gd  Gd1       1.0  0.00000  0.43631  0.25000  1.0000
  Gd  Gd2       1.0  0.50000  0.93631  0.25000  1.0000
  Gd  Gd3       1.0  0.00000  0.56369  0.75000  1.0000
  Gd  Gd4       1.0  0.50000  0.06369  0.75000  1.0000
  C   C1        1.0  0.04752  0.25290  0.09630  1.0000
  C   C2        1.0  0.95248  0.25290  0.40370  1.0000
  C   C3        1.0  0.54752  0.75290  0.09630  1.0000
  C   C4        1.0  0.45248  0.75290  0.40370  1.0000
  C   C5        1.0  0.95248  0.74710  0.90370  1.0000
  C   C6        1.0  0.04752  0.74710  0.59630  1.0000
  C   C7        1.0  0.45248  0.24710  0.90370  1.0000
  C   C8        1.0  0.54752  0.24710  0.59630  1.0000
  C   C9        1.0  0.09538  0.21730  0.23550  1.0000
  C   C10       1.0  0.90462  0.21730  0.26450  1.0000
  C   C11       1.0  0.59538  0.71730  0.23550  1.0000
  C   C12       1.0  0.40462  0.71730  0.26450  1.0000
  C   C13       1.0  0.90462  0.78270  0.76450  1.0000
  C   C14       1.0  0.09538  0.78270  0.73550  1.0000
  C   C15       1.0  0.40462  0.28270  0.76450  1.0000
  C   C16       1.0  0.59538  0.28270  0.73550  1.0000
  C   C17       1.0  0.14600  0.14110  0.26710  1.0000
  C   C18       1.0  0.85400  0.14110  0.23290  1.0000
  C   C19       1.0  0.64600  0.64110  0.26710  1.0000
  C   C20       1.0  0.35400  0.64110  0.23290  1.0000
  C   C21       1.0  0.85400  0.85890  0.73290  1.0000
  C   C22       1.0  0.14600  0.85890  0.76710  1.0000
  C   C23       1.0  0.35400  0.35890  0.73290  1.0000
  C   C24       1.0  0.64600  0.35890  0.76710  1.0000
  H   H1        1.0  0.15200  0.10750  0.20280  1.0000
  H   H2        1.0  0.84800  0.10750  0.29720  1.0000
  H   H3        1.0  0.65200  0.60750  0.20280  1.0000
  H   H4        1.0  0.34800  0.60750  0.29720  1.0000
  H   H5        1.0  0.84800  0.89250  0.79720  1.0000
  H   H6        1.0  0.15200  0.89250  0.70280  1.0000
  H   H7        1.0  0.34800  0.39250  0.79720  1.0000
  H   H8        1.0  0.65200  0.39250  0.70280  1.0000
  C   C25       1.0  0.18850  0.11450  0.39680  1.0000
  C   C26       1.0  0.81150  0.11450  0.10320  1.0000
  C   C27       1.0  0.68850  0.61450  0.39680  1.0000
  C   C28       1.0  0.31150  0.61450  0.10320  1.0000
  C   C29       1.0  0.81150  0.88550  0.60320  1.0000
  C   C30       1.0  0.18850  0.88550  0.89680  1.0000
  C   C31       1.0  0.31150  0.38550  0.60320  1.0000
  C   C32       1.0  0.68850  0.38550  0.89680  1.0000
  H   H9        1.0  0.22380  0.06400  0.41990  1.0000
  H   H10       1.0  0.77620  0.06400  0.08010  1.0000
  H   H11       1.0  0.72380  0.56400  0.41990  1.0000
  H   H12       1.0  0.27620  0.56400  0.08010  1.0000
  H   H13       1.0  0.77620  0.93600  0.58010  1.0000
  H   H14       1.0  0.22380  0.93600  0.91990  1.0000
  H   H15       1.0  0.27620  0.43600  0.58010  1.0000
  H   H16       1.0  0.72380  0.43600  0.91990  1.0000
  C   C33       1.0  0.17836  0.16330  0.49210  1.0000
  C   C34       1.0  0.82164  0.16330  0.00790  1.0000
  C   C35       1.0  0.67836  0.66330  0.49210  1.0000
  C   C36       1.0  0.32164  0.66330  0.00790  1.0000
  C   C37       1.0  0.82164  0.83670  0.50790  1.0000
  C   C38       1.0  0.17836  0.83670  0.99210  1.0000
  C   C39       1.0  0.32164  0.33670  0.50790  1.0000
  C   C40       1.0  0.67836  0.33670  0.99210  1.0000
  C   C41       1.0  0.12530  0.23970  0.44940  1.0000
  C   C42       1.0  0.87470  0.23970  0.05060  1.0000
  C   C43       1.0  0.62530  0.73970  0.44940  1.0000
  C   C44       1.0  0.37470  0.73970  0.05060  1.0000
  C   C45       1.0  0.87470  0.76030  0.55060  1.0000
  C   C46       1.0  0.12530  0.76030  0.94940  1.0000
  C   C47       1.0  0.37470  0.26030  0.55060  1.0000
  C   C48       1.0  0.62530  0.26030  0.94940  1.0000
  H   H17       1.0  0.11730  0.27300  0.51130  1.0000
  H   H18       1.0  0.88270  0.27300  0.98870  1.0000
  H   H19       1.0  0.61730  0.77300  0.51130  1.0000
  H   H20       1.0  0.38270  0.77300  0.98870  1.0000
  H   H21       1.0  0.88270  0.72700  0.48870  1.0000
  H   H22       1.0  0.11730  0.72700  0.01130  1.0000
  H   H23       1.0  0.38270  0.22700  0.48870  1.0000
  H   H24       1.0  0.61730  0.22700  0.01130  1.0000
  C   C49       1.0  0.22289  0.14030  0.63260  1.0000
  C   C50       1.0  0.77711  0.14030  0.86740  1.0000
  C   C51       1.0  0.72289  0.64030  0.63260  1.0000
  C   C52       1.0  0.27711  0.64030  0.86740  1.0000
  C   C53       1.0  0.77711  0.85970  0.36740  1.0000
  C   C54       1.0  0.22289  0.85970  0.13260  1.0000
  C   C55       1.0  0.27711  0.35970  0.36740  1.0000
  C   C56       1.0  0.72289  0.35970  0.13260  1.0000
  C   C57       1.0  0.27170  0.05590  0.67560  1.0000
  C   C58       1.0  0.72830  0.05590  0.82440  1.0000
  C   C59       1.0  0.77170  0.55590  0.67560  1.0000
  C   C60       1.0  0.22830  0.55590  0.82440  1.0000
  C   C61       1.0  0.72830  0.94410  0.32440  1.0000
  C   C62       1.0  0.27170  0.94410  0.17560  1.0000
  C   C63       1.0  0.22830  0.44410  0.32440  1.0000
  C   C64       1.0  0.77170  0.44410  0.17560  1.0000
  H   H25       1.0  0.27480  0.00930  0.61500  1.0000
  H   H26       1.0  0.72520  0.00930  0.88500  1.0000
  H   H27       1.0  0.77480  0.50930  0.61500  1.0000
  H   H28       1.0  0.22520  0.50930  0.88500  1.0000
  H   H29       1.0  0.72520  0.99070  0.38500  1.0000
  H   H30       1.0  0.27480  0.99070  0.11500  1.0000
  H   H31       1.0  0.22520  0.49070  0.38500  1.0000
  H   H32       1.0  0.77480  0.49070  0.11500  1.0000
  C   C65       1.0  0.31580  0.03880  0.80550  1.0000
  C   C66       1.0  0.68420  0.03880  0.69450  1.0000
  C   C67       1.0  0.81580  0.53880  0.80550  1.0000
  C   C68       1.0  0.18420  0.53880  0.69450  1.0000
  C   C69       1.0  0.68420  0.96120  0.19450  1.0000
  C   C70       1.0  0.31580  0.96120  0.30550  1.0000
  C   C71       1.0  0.18420  0.46120  0.19450  1.0000
  C   C72       1.0  0.81580  0.46120  0.30550  1.0000
  H   H33       1.0  0.34780  0.98100  0.83090  1.0000
  H   H34       1.0  0.65220  0.98100  0.66910  1.0000
  H   H35       1.0  0.84780  0.48100  0.83090  1.0000
  H   H36       1.0  0.15220  0.48100  0.66910  1.0000
  H   H37       1.0  0.65220  0.01900  0.16910  1.0000
  H   H38       1.0  0.34780  0.01900  0.33090  1.0000
  H   H39       1.0  0.15220  0.51900  0.16910  1.0000
  H   H40       1.0  0.84780  0.51900  0.33090  1.0000
  C   C73       1.0  0.31298  0.10630  0.89800  1.0000
  C   C74       1.0  0.68702  0.10630  0.60200  1.0000
  C   C75       1.0  0.81298  0.60630  0.89800  1.0000
  C   C76       1.0  0.18702  0.60630  0.60200  1.0000
  C   C77       1.0  0.68702  0.89370  0.10200  1.0000
  C   C78       1.0  0.31298  0.89370  0.39800  1.0000
  C   C79       1.0  0.18702  0.39370  0.10200  1.0000
  C   C80       1.0  0.81298  0.39370  0.39800  1.0000
  C   C81       1.0  0.26370  0.18880  0.85760  1.0000
  C   C82       1.0  0.73630  0.18880  0.64240  1.0000
  C   C83       1.0  0.76370  0.68880  0.85760  1.0000
  C   C84       1.0  0.23630  0.68880  0.64240  1.0000
  C   C85       1.0  0.73630  0.81120  0.14240  1.0000
  C   C86       1.0  0.26370  0.81120  0.35760  1.0000
  C   C87       1.0  0.23630  0.31120  0.14240  1.0000
  C   C88       1.0  0.76370  0.31120  0.35760  1.0000
  H   H41       1.0  0.26030  0.23400  0.91880  1.0000
  H   H42       1.0  0.73970  0.23400  0.58120  1.0000
  H   H43       1.0  0.76030  0.73400  0.91880  1.0000
  H   H44       1.0  0.23970  0.73400  0.58120  1.0000
  H   H45       1.0  0.73970  0.76600  0.08120  1.0000
  H   H46       1.0  0.26030  0.76600  0.41880  1.0000
  H   H47       1.0  0.23970  0.26600  0.08120  1.0000
  H   H48       1.0  0.76030  0.26600  0.41880  1.0000
  C   C89       1.0  0.21920  0.20530  0.72700  1.0000
  C   C90       1.0  0.78080  0.20530  0.77300  1.0000
  C   C91       1.0  0.71920  0.70530  0.72700  1.0000
  C   C92       1.0  0.28080  0.70530  0.77300  1.0000
  C   C93       1.0  0.78080  0.79470  0.27300  1.0000
  C   C94       1.0  0.21920  0.79470  0.22700  1.0000
  C   C95       1.0  0.28080  0.29470  0.27300  1.0000
  C   C96       1.0  0.71920  0.29470  0.22700  1.0000
  H   H49       1.0  0.18610  0.26110  0.70200  1.0000
  H   H50       1.0  0.81390  0.26110  0.79800  1.0000
  H   H51       1.0  0.68610  0.76110  0.70200  1.0000
  H   H52       1.0  0.31390  0.76110  0.79800  1.0000
  H   H53       1.0  0.81390  0.73890  0.29800  1.0000
  H   H54       1.0  0.18610  0.73890  0.20200  1.0000
  H   H55       1.0  0.31390  0.23890  0.29800  1.0000
  H   H56       1.0  0.68610  0.23890  0.20200  1.0000
  C   C97       1.0  0.36190  0.08970  0.04080  1.0000
  C   C98       1.0  0.63810  0.08970  0.45920  1.0000
  C   C99       1.0  0.86190  0.58970  0.04080  1.0000
  C   C100      1.0  0.13810  0.58970  0.45920  1.0000
  C   C101      1.0  0.63810  0.91030  0.95920  1.0000
  C   C102      1.0  0.36190  0.91030  0.54080  1.0000
  C   C103      1.0  0.13810  0.41030  0.95920  1.0000
  C   C104      1.0  0.86190  0.41030  0.54080  1.0000
  H   H57       1.0  0.94090  0.59940  0.37220  1.0000
  H   H58       1.0  0.05910  0.59940  0.12780  1.0000
  H   H59       1.0  0.44090  0.09940  0.37220  1.0000
  H   H60       1.0  0.55910  0.09940  0.12780  1.0000
  H   H61       1.0  0.05910  0.40060  0.62780  1.0000
  H   H62       1.0  0.94090  0.40060  0.87220  1.0000
  H   H63       1.0  0.55910  0.90060  0.62780  1.0000
  H   H64       1.0  0.44090  0.90060  0.87220  1.0000
  H   H65       1.0  0.95720  0.65130  0.28830  1.0000
  H   H66       1.0  0.04280  0.65130  0.21170  1.0000
  H   H67       1.0  0.45720  0.15130  0.28830  1.0000
  H   H68       1.0  0.54280  0.15130  0.21170  1.0000
  H   H69       1.0  0.04280  0.34870  0.71170  1.0000
  H   H70       1.0  0.95720  0.34870  0.78830  1.0000
  H   H71       1.0  0.54280  0.84870  0.71170  1.0000
  H   H72       1.0  0.45720  0.84870  0.78830  1.0000
  N   N1        1.0  0.08485  0.26840  0.32490  1.0000
  N   N2        1.0  0.91515  0.26840  0.17510  1.0000
  N   N3        1.0  0.58485  0.76840  0.32490  1.0000
  N   N4        1.0  0.41515  0.76840  0.17510  1.0000
  N   N5        1.0  0.91515  0.73160  0.67510  1.0000
  N   N6        1.0  0.08485  0.73160  0.82490  1.0000
  N   N7        1.0  0.41515  0.23160  0.67510  1.0000
  N   N8        1.0  0.58485  0.23160  0.82490  1.0000
  O   O1        1.0  0.00919  0.33840  0.08150  1.0000
  O   O2        1.0  0.99081  0.33840  0.41850  1.0000
  O   O3        1.0  0.50919  0.83840  0.08150  1.0000
  O   O4        1.0  0.49081  0.83840  0.41850  1.0000
  O   O5        1.0  0.99081  0.66160  0.91850  1.0000
  O   O6        1.0  0.00919  0.66160  0.58150  1.0000
  O   O7        1.0  0.49081  0.16160  0.91850  1.0000
  O   O8        1.0  0.50919  0.16160  0.58150  1.0000
  O   O9        1.0  0.04899  0.19820  0.00930  1.0000
  O   O10       1.0  0.95101  0.19820  0.49070  1.0000
  O   O11       1.0  0.54899  0.69820  0.00930  1.0000
  O   O12       1.0  0.45101  0.69820  0.49070  1.0000
  O   O13       1.0  0.95101  0.80180  0.99070  1.0000
  O   O14       1.0  0.04899  0.80180  0.50930  1.0000
  O   O15       1.0  0.45101  0.30180  0.99070  1.0000
  O   O16       1.0  0.54899  0.30180  0.50930  1.0000
  O   O17       1.0  0.35796  0.15610  0.11950  1.0000
  O   O18       1.0  0.64204  0.15610  0.38050  1.0000
  O   O19       1.0  0.85796  0.65610  0.11950  1.0000
  O   O20       1.0  0.14204  0.65610  0.38050  1.0000
  O   O21       1.0  0.64204  0.84390  0.88050  1.0000
  O   O22       1.0  0.35796  0.84390  0.61950  1.0000
  O   O23       1.0  0.14204  0.34390  0.88050  1.0000
  O   O24       1.0  0.85796  0.34390  0.61950  1.0000
  O   O25       1.0  0.40262  0.00690  0.07070  1.0000
  O   O26       1.0  0.59738  0.00690  0.42930  1.0000
  O   O27       1.0  0.90262  0.50690  0.07070  1.0000
  O   O28       1.0  0.09738  0.50690  0.42930  1.0000
  O   O29       1.0  0.59738  0.99310  0.92930  1.0000
  O   O30       1.0  0.40262  0.99310  0.57070  1.0000
  O   O31       1.0  0.09738  0.49310  0.92930  1.0000
  O   O32       1.0  0.90262  0.49310  0.57070  1.0000
  O   O33       1.0  0.96138  0.58830  0.33110  1.0000
  O   O34       1.0  0.03862  0.58830  0.16890  1.0000
  O   O35       1.0  0.46138  0.08830  0.33110  1.0000
  O   O36       1.0  0.53862  0.08830  0.16890  1.0000
  O   O37       1.0  0.03862  0.41170  0.66890  1.0000
  O   O38       1.0  0.96138  0.41170  0.83110  1.0000
  O   O39       1.0  0.53862  0.91170  0.66890  1.0000
  O   O40       1.0  0.46138  0.91170  0.83110  1.0000
