data_image0
_chemical_formula_structural       Nd4O40N8C16H8C8H8C16H8C16H8C8H8C16H8C8H8C16H16
_chemical_formula_sum              "Nd4 O40 N8 C104 H72"
_cell_length_a       23.716
_cell_length_b       11.432
_cell_length_c       11.955
_cell_angle_alpha    90
_cell_angle_beta     120.05
_cell_angle_gamma    90

_space_group_name_H-M_alt    "P 1"
_space_group_IT_number       1

loop_
  _space_group_symop_operation_xyz
  'x, y, z'

loop_
  _atom_site_type_symbol
  _atom_site_label
  _atom_site_symmetry_multiplicity
  _atom_site_fract_x
  _atom_site_fract_y
  _atom_site_fract_z
  _atom_site_occupancy
  Nd  Nd1       1.0  0.50000  0.43549  0.75000  1.0000
  Nd  Nd2       1.0  0.00000  0.93549  0.75000  1.0000
  Nd  Nd3       1.0  0.50000  0.56451  0.25000  1.0000
  Nd  Nd4       1.0  0.00000  0.06451  0.25000  1.0000
  O   O1        1.0  0.55156  0.19410  0.09210  1.0000
  O   O2        1.0  0.44844  0.19410  0.40790  1.0000
  O   O3        1.0  0.05156  0.69410  0.09210  1.0000
  O   O4        1.0  0.94844  0.69410  0.40790  1.0000
  O   O5        1.0  0.44844  0.80590  0.90790  1.0000
  O   O6        1.0  0.55156  0.80590  0.59210  1.0000
  O   O7        1.0  0.94844  0.30590  0.90790  1.0000
  O   O8        1.0  0.05156  0.30590  0.59210  1.0000
  O   O9        1.0  0.51005  0.33163  0.93850  1.0000
  O   O10       1.0  0.48995  0.33163  0.56150  1.0000
  O   O11       1.0  0.01005  0.83163  0.93850  1.0000
  O   O12       1.0  0.98995  0.83163  0.56150  1.0000
  O   O13       1.0  0.48995  0.66837  0.06150  1.0000
  O   O14       1.0  0.51005  0.66837  0.43850  1.0000
  O   O15       1.0  0.98995  0.16837  0.06150  1.0000
  O   O16       1.0  0.01005  0.16837  0.43850  1.0000
  O   O17       1.0  0.90208  0.00860  0.73370  1.0000
  O   O18       1.0  0.09792  0.00860  0.76630  1.0000
  O   O19       1.0  0.40208  0.50860  0.73370  1.0000
  O   O20       1.0  0.59792  0.50860  0.76630  1.0000
  O   O21       1.0  0.09792  0.99140  0.26630  1.0000
  O   O22       1.0  0.90208  0.99140  0.23370  1.0000
  O   O23       1.0  0.59792  0.49140  0.26630  1.0000
  O   O24       1.0  0.40208  0.49140  0.23370  1.0000
  O   O25       1.0  0.85770  0.15830  0.59640  1.0000
  O   O26       1.0  0.14230  0.15830  0.90360  1.0000
  O   O27       1.0  0.35770  0.65830  0.59640  1.0000
  O   O28       1.0  0.64230  0.65830  0.90360  1.0000
  O   O29       1.0  0.14230  0.84170  0.40360  1.0000
  O   O30       1.0  0.85770  0.84170  0.09640  1.0000
  O   O31       1.0  0.64230  0.34170  0.40360  1.0000
  O   O32       1.0  0.35770  0.34170  0.09640  1.0000
  O   O33       1.0  0.53877  0.59180  0.91070  1.0000
  O   O34       1.0  0.46123  0.59180  0.58930  1.0000
  O   O35       1.0  0.03877  0.09180  0.91070  1.0000
  O   O36       1.0  0.96123  0.09180  0.58930  1.0000
  O   O37       1.0  0.46123  0.40820  0.08930  1.0000
  O   O38       1.0  0.53877  0.40820  0.41070  1.0000
  O   O39       1.0  0.96123  0.90820  0.08930  1.0000
  O   O40       1.0  0.03877  0.90820  0.41070  1.0000
  N   N1        1.0  0.58610  0.26370  0.84710  1.0000
  N   N2        1.0  0.41390  0.26370  0.65290  1.0000
  N   N3        1.0  0.08610  0.76370  0.84710  1.0000
  N   N4        1.0  0.91390  0.76370  0.65290  1.0000
  N   N5        1.0  0.41390  0.73630  0.15290  1.0000
  N   N6        1.0  0.58610  0.73630  0.34710  1.0000
  N   N7        1.0  0.91390  0.23630  0.15290  1.0000
  N   N8        1.0  0.08610  0.23630  0.34710  1.0000
  C   C1        1.0  0.59657  0.21430  0.95680  1.0000
  C   C2        1.0  0.40343  0.21430  0.54320  1.0000
  C   C3        1.0  0.09657  0.71430  0.95680  1.0000
  C   C4        1.0  0.90343  0.71430  0.54320  1.0000
  C   C5        1.0  0.40343  0.78570  0.04320  1.0000
  C   C6        1.0  0.59657  0.78570  0.45680  1.0000
  C   C7        1.0  0.90343  0.28570  0.04320  1.0000
  C   C8        1.0  0.09657  0.28570  0.45680  1.0000
  C   C9        1.0  0.64782  0.13890  0.02690  1.0000
  C   C10       1.0  0.35218  0.13890  0.47310  1.0000
  C   C11       1.0  0.14782  0.63890  0.02690  1.0000
  C   C12       1.0  0.85218  0.63890  0.47310  1.0000
  C   C13       1.0  0.35218  0.86110  0.97310  1.0000
  C   C14       1.0  0.64782  0.86110  0.52690  1.0000
  C   C15       1.0  0.85218  0.36110  0.97310  1.0000
  C   C16       1.0  0.14782  0.36110  0.52690  1.0000
  H   H1        1.0  0.65400  0.10580  0.10330  1.0000
  H   H2        1.0  0.34600  0.10580  0.39670  1.0000
  H   H3        1.0  0.15400  0.60580  0.10330  1.0000
  H   H4        1.0  0.84600  0.60580  0.39670  1.0000
  H   H5        1.0  0.34600  0.89420  0.89670  1.0000
  H   H6        1.0  0.65400  0.89420  0.60330  1.0000
  H   H7        1.0  0.84600  0.39420  0.89670  1.0000
  H   H8        1.0  0.15400  0.39420  0.60330  1.0000
  C   C17       1.0  0.68969  0.11340  0.98170  1.0000
  C   C18       1.0  0.31031  0.11340  0.51830  1.0000
  C   C19       1.0  0.18969  0.61340  0.98170  1.0000
  C   C20       1.0  0.81031  0.61340  0.51830  1.0000
  C   C21       1.0  0.31031  0.88660  0.01830  1.0000
  C   C22       1.0  0.68969  0.88660  0.48170  1.0000
  C   C23       1.0  0.81031  0.38660  0.01830  1.0000
  C   C24       1.0  0.18969  0.38660  0.48170  1.0000
  H   H9        1.0  0.72500  0.06390  0.02860  1.0000
  H   H10       1.0  0.27500  0.06390  0.47140  1.0000
  H   H11       1.0  0.22500  0.56390  0.02860  1.0000
  H   H12       1.0  0.77500  0.56390  0.47140  1.0000
  H   H13       1.0  0.27500  0.93610  0.97140  1.0000
  H   H14       1.0  0.72500  0.93610  0.52860  1.0000
  H   H15       1.0  0.77500  0.43610  0.97140  1.0000
  H   H16       1.0  0.22500  0.43610  0.52860  1.0000
  C   C25       1.0  0.67929  0.16160  0.86580  1.0000
  C   C26       1.0  0.32071  0.16160  0.63420  1.0000
  C   C27       1.0  0.17929  0.66160  0.86580  1.0000
  C   C28       1.0  0.82071  0.66160  0.63420  1.0000
  C   C29       1.0  0.32071  0.83840  0.13420  1.0000
  C   C30       1.0  0.67929  0.83840  0.36580  1.0000
  C   C31       1.0  0.82071  0.33840  0.13420  1.0000
  C   C32       1.0  0.17929  0.33840  0.36580  1.0000
  C   C33       1.0  0.62648  0.23610  0.80320  1.0000
  C   C34       1.0  0.37352  0.23610  0.69680  1.0000
  C   C35       1.0  0.12648  0.73610  0.80320  1.0000
  C   C36       1.0  0.87352  0.73610  0.69680  1.0000
  C   C37       1.0  0.37352  0.76390  0.19680  1.0000
  C   C38       1.0  0.62648  0.76390  0.30320  1.0000
  C   C39       1.0  0.87352  0.26390  0.19680  1.0000
  C   C40       1.0  0.12648  0.26390  0.30320  1.0000
  H   H17       1.0  0.61850  0.26910  0.72550  1.0000
  H   H18       1.0  0.38150  0.26910  0.77450  1.0000
  H   H19       1.0  0.11850  0.76910  0.72550  1.0000
  H   H20       1.0  0.88150  0.76910  0.77450  1.0000
  H   H21       1.0  0.38150  0.73090  0.27450  1.0000
  H   H22       1.0  0.61850  0.73090  0.22550  1.0000
  H   H23       1.0  0.88150  0.23090  0.27450  1.0000
  H   H24       1.0  0.11850  0.23090  0.22550  1.0000
  C   C41       1.0  0.72384  0.13970  0.81390  1.0000
  C   C42       1.0  0.27616  0.13970  0.68610  1.0000
  C   C43       1.0  0.22384  0.63970  0.81390  1.0000
  C   C44       1.0  0.77616  0.63970  0.68610  1.0000
  C   C45       1.0  0.27616  0.86030  0.18610  1.0000
  C   C46       1.0  0.72384  0.86030  0.31390  1.0000
  C   C47       1.0  0.77616  0.36030  0.18610  1.0000
  C   C48       1.0  0.22384  0.36030  0.31390  1.0000
  C   C49       1.0  0.77212  0.05590  0.86800  1.0000
  C   C50       1.0  0.22788  0.05590  0.63200  1.0000
  C   C51       1.0  0.27212  0.55590  0.86800  1.0000
  C   C52       1.0  0.72788  0.55590  0.63200  1.0000
  C   C53       1.0  0.22788  0.94410  0.13200  1.0000
  C   C54       1.0  0.77212  0.94410  0.36800  1.0000
  C   C55       1.0  0.72788  0.44410  0.13200  1.0000
  C   C56       1.0  0.27212  0.44410  0.36800  1.0000
  H   H25       1.0  0.77500  0.00910  0.93430  1.0000
  H   H26       1.0  0.22500  0.00910  0.56570  1.0000
  H   H27       1.0  0.27500  0.50910  0.93430  1.0000
  H   H28       1.0  0.72500  0.50910  0.56570  1.0000
  H   H29       1.0  0.22500  0.99090  0.06570  1.0000
  H   H30       1.0  0.77500  0.99090  0.43430  1.0000
  H   H31       1.0  0.72500  0.49090  0.06570  1.0000
  H   H32       1.0  0.27500  0.49090  0.43430  1.0000
  C   C57       1.0  0.81615  0.04010  0.82610  1.0000
  C   C58       1.0  0.18385  0.04010  0.67390  1.0000
  C   C59       1.0  0.31615  0.54010  0.82610  1.0000
  C   C60       1.0  0.68385  0.54010  0.67390  1.0000
  C   C61       1.0  0.18385  0.95990  0.17390  1.0000
  C   C62       1.0  0.81615  0.95990  0.32610  1.0000
  C   C63       1.0  0.68385  0.45990  0.17390  1.0000
  C   C64       1.0  0.31615  0.45990  0.32610  1.0000
  H   H33       1.0  0.84830  0.98320  0.86460  1.0000
  H   H34       1.0  0.15170  0.98320  0.63540  1.0000
  H   H35       1.0  0.34830  0.48320  0.86460  1.0000
  H   H36       1.0  0.65170  0.48320  0.63540  1.0000
  H   H37       1.0  0.15170  0.01680  0.13540  1.0000
  H   H38       1.0  0.84830  0.01680  0.36460  1.0000
  H   H39       1.0  0.65170  0.51680  0.13540  1.0000
  H   H40       1.0  0.34830  0.51680  0.36460  1.0000
  C   C65       1.0  0.81291  0.10760  0.72770  1.0000
  C   C66       1.0  0.18709  0.10760  0.77230  1.0000
  C   C67       1.0  0.31291  0.60760  0.72770  1.0000
  C   C68       1.0  0.68709  0.60760  0.77230  1.0000
  C   C69       1.0  0.18709  0.89240  0.27230  1.0000
  C   C70       1.0  0.81291  0.89240  0.22770  1.0000
  C   C71       1.0  0.68709  0.39240  0.27230  1.0000
  C   C72       1.0  0.31291  0.39240  0.22770  1.0000
  C   C73       1.0  0.76430  0.19020  0.67110  1.0000
  C   C74       1.0  0.23570  0.19020  0.82890  1.0000
  C   C75       1.0  0.26430  0.69020  0.67110  1.0000
  C   C76       1.0  0.73570  0.69020  0.82890  1.0000
  C   C77       1.0  0.23570  0.80980  0.32890  1.0000
  C   C78       1.0  0.76430  0.80980  0.17110  1.0000
  C   C79       1.0  0.73570  0.30980  0.32890  1.0000
  C   C80       1.0  0.26430  0.30980  0.17110  1.0000
  H   H41       1.0  0.76100  0.23590  0.60380  1.0000
  H   H42       1.0  0.23900  0.23590  0.89620  1.0000
  H   H43       1.0  0.26100  0.73590  0.60380  1.0000
  H   H44       1.0  0.73900  0.73590  0.89620  1.0000
  H   H45       1.0  0.23900  0.76410  0.39620  1.0000
  H   H46       1.0  0.76100  0.76410  0.10380  1.0000
  H   H47       1.0  0.73900  0.26410  0.39620  1.0000
  H   H48       1.0  0.26100  0.26410  0.10380  1.0000
  C   C81       1.0  0.72035  0.20550  0.71330  1.0000
  C   C82       1.0  0.27965  0.20550  0.78670  1.0000
  C   C83       1.0  0.22035  0.70550  0.71330  1.0000
  C   C84       1.0  0.77965  0.70550  0.78670  1.0000
  C   C85       1.0  0.27965  0.79450  0.28670  1.0000
  C   C86       1.0  0.72035  0.79450  0.21330  1.0000
  C   C87       1.0  0.77965  0.29450  0.28670  1.0000
  C   C88       1.0  0.22035  0.29450  0.21330  1.0000
  H   H49       1.0  0.68760  0.26120  0.67330  1.0000
  H   H50       1.0  0.31240  0.26120  0.82670  1.0000
  H   H51       1.0  0.18760  0.76120  0.67330  1.0000
  H   H52       1.0  0.81240  0.76120  0.82670  1.0000
  H   H53       1.0  0.31240  0.73880  0.32670  1.0000
  H   H54       1.0  0.68760  0.73880  0.17330  1.0000
  H   H55       1.0  0.81240  0.23880  0.32670  1.0000
  H   H56       1.0  0.18760  0.23880  0.17330  1.0000
  C   C89       1.0  0.54934  0.24820  0.00120  1.0000
  C   C90       1.0  0.45066  0.24820  0.49880  1.0000
  C   C91       1.0  0.04934  0.74820  0.00120  1.0000
  C   C92       1.0  0.95066  0.74820  0.49880  1.0000
  C   C93       1.0  0.45066  0.75180  0.99880  1.0000
  C   C94       1.0  0.54934  0.75180  0.50120  1.0000
  C   C95       1.0  0.95066  0.25180  0.99880  1.0000
  C   C96       1.0  0.04934  0.25180  0.50120  1.0000
  C   C97       1.0  0.86128  0.09160  0.68190  1.0000
  C   C98       1.0  0.13872  0.09160  0.81810  1.0000
  C   C99       1.0  0.36128  0.59160  0.68190  1.0000
  C   C100      1.0  0.63872  0.59160  0.81810  1.0000
  C   C101      1.0  0.13872  0.90840  0.31810  1.0000
  C   C102      1.0  0.86128  0.90840  0.18190  1.0000
  C   C103      1.0  0.63872  0.40840  0.31810  1.0000
  C   C104      1.0  0.36128  0.40840  0.18190  1.0000
  H   H57       1.0  0.53000  0.61900  0.96500  1.0000
  H   H58       1.0  0.47000  0.61900  0.53500  1.0000
  H   H59       1.0  0.03000  0.11900  0.96500  1.0000
  H   H60       1.0  0.97000  0.11900  0.53500  1.0000
  H   H61       1.0  0.47000  0.38100  0.03500  1.0000
  H   H62       1.0  0.53000  0.38100  0.46500  1.0000
  H   H63       1.0  0.97000  0.88100  0.03500  1.0000
  H   H64       1.0  0.03000  0.88100  0.46500  1.0000
  H   H65       1.0  0.57550  0.61800  0.92900  1.0000
  H   H66       1.0  0.42450  0.61800  0.57100  1.0000
  H   H67       1.0  0.07550  0.11800  0.92900  1.0000
  H   H68       1.0  0.92450  0.11800  0.57100  1.0000
  H   H69       1.0  0.42450  0.38200  0.07100  1.0000
  H   H70       1.0  0.57550  0.38200  0.42900  1.0000
  H   H71       1.0  0.92450  0.88200  0.07100  1.0000
  H   H72       1.0  0.07550  0.88200  0.42900  1.0000
