data_image0
_chemical_formula_structural       Gd4O24N8O16C104H72
_chemical_formula_sum              "Gd4 O40 N8 C104 H72"
_cell_length_a       22.613
_cell_length_b       11.387
_cell_length_c       11.942
_cell_angle_alpha    90
_cell_angle_beta     120.83
_cell_angle_gamma    90

_space_group_name_H-M_alt    "P 1"
_space_group_IT_number       1

loop_
  _space_group_symop_operation_xyz
  'x, y, z'

loop_
  _atom_site_type_symbol
  _atom_site_label
  _atom_site_symmetry_multiplicity
  _atom_site_fract_x
  _atom_site_fract_y
  _atom_site_fract_z
  _atom_site_occupancy
  Gd  Gd1       1.0  0.50000  0.43593  0.25000  1.0000
  Gd  Gd2       1.0  0.00000  0.93593  0.25000  1.0000
  Gd  Gd3       1.0  0.50000  0.56407  0.75000  1.0000
  Gd  Gd4       1.0  0.00000  0.06407  0.75000  1.0000
  O   O1        1.0  0.49088  0.33760  0.06350  1.0000
  O   O2        1.0  0.50912  0.33760  0.43650  1.0000
  O   O3        1.0  0.99088  0.83760  0.06350  1.0000
  O   O4        1.0  0.00912  0.83760  0.43650  1.0000
  O   O5        1.0  0.50912  0.66240  0.93650  1.0000
  O   O6        1.0  0.49088  0.66240  0.56350  1.0000
  O   O7        1.0  0.00912  0.16240  0.93650  1.0000
  O   O8        1.0  0.99088  0.16240  0.56350  1.0000
  O   O9        1.0  0.46192  0.58730  0.09230  1.0000
  O   O10       1.0  0.53808  0.58730  0.40770  1.0000
  O   O11       1.0  0.96192  0.08730  0.09230  1.0000
  O   O12       1.0  0.03808  0.08730  0.40770  1.0000
  O   O13       1.0  0.53808  0.41270  0.90770  1.0000
  O   O14       1.0  0.46192  0.41270  0.59230  1.0000
  O   O15       1.0  0.03808  0.91270  0.90770  1.0000
  O   O16       1.0  0.96192  0.91270  0.59230  1.0000
  O   O17       1.0  0.09704  0.00630  0.26480  1.0000
  O   O18       1.0  0.90296  0.00630  0.23520  1.0000
  O   O19       1.0  0.59704  0.50630  0.26480  1.0000
  O   O20       1.0  0.40296  0.50630  0.23520  1.0000
  O   O21       1.0  0.90296  0.99370  0.73520  1.0000
  O   O22       1.0  0.09704  0.99370  0.76480  1.0000
  O   O23       1.0  0.40296  0.49370  0.73520  1.0000
  O   O24       1.0  0.59704  0.49370  0.76480  1.0000
  N   N1        1.0  0.41518  0.26760  0.15520  1.0000
  N   N2        1.0  0.58482  0.26760  0.34480  1.0000
  N   N3        1.0  0.91518  0.76760  0.15520  1.0000
  N   N4        1.0  0.08482  0.76760  0.34480  1.0000
  N   N5        1.0  0.58482  0.73240  0.84480  1.0000
  N   N6        1.0  0.41518  0.73240  0.65520  1.0000
  N   N7        1.0  0.08482  0.23240  0.84480  1.0000
  N   N8        1.0  0.91518  0.23240  0.65520  1.0000
  O   O25       1.0  0.14190  0.15630  0.40290  1.0000
  O   O26       1.0  0.85810  0.15630  0.09710  1.0000
  O   O27       1.0  0.64190  0.65630  0.40290  1.0000
  O   O28       1.0  0.35810  0.65630  0.09710  1.0000
  O   O29       1.0  0.85810  0.84370  0.59710  1.0000
  O   O30       1.0  0.14190  0.84370  0.90290  1.0000
  O   O31       1.0  0.35810  0.34370  0.59710  1.0000
  O   O32       1.0  0.64190  0.34370  0.90290  1.0000
  O   O33       1.0  0.45055  0.19810  0.91080  1.0000
  O   O34       1.0  0.54945  0.19810  0.58920  1.0000
  O   O35       1.0  0.95055  0.69810  0.91080  1.0000
  O   O36       1.0  0.04945  0.69810  0.58920  1.0000
  O   O37       1.0  0.54945  0.80190  0.08920  1.0000
  O   O38       1.0  0.45055  0.80190  0.41080  1.0000
  O   O39       1.0  0.04945  0.30190  0.08920  1.0000
  O   O40       1.0  0.95055  0.30190  0.41080  1.0000
  C   C1        1.0  0.13810  0.08990  0.31670  1.0000
  C   C2        1.0  0.86190  0.08990  0.18330  1.0000
  C   C3        1.0  0.63810  0.58990  0.31670  1.0000
  C   C4        1.0  0.36190  0.58990  0.18330  1.0000
  C   C5        1.0  0.86190  0.91010  0.68330  1.0000
  C   C6        1.0  0.13810  0.91010  0.81670  1.0000
  C   C7        1.0  0.36190  0.41010  0.68330  1.0000
  C   C8        1.0  0.63810  0.41010  0.81670  1.0000
  C   C9        1.0  0.32160  0.16290  0.13510  1.0000
  C   C10       1.0  0.67840  0.16290  0.36490  1.0000
  C   C11       1.0  0.82160  0.66290  0.13510  1.0000
  C   C12       1.0  0.17840  0.66290  0.36490  1.0000
  C   C13       1.0  0.67840  0.83710  0.86490  1.0000
  C   C14       1.0  0.32160  0.83710  0.63510  1.0000
  C   C15       1.0  0.17840  0.33710  0.86490  1.0000
  C   C16       1.0  0.82160  0.33710  0.63510  1.0000
  C   C17       1.0  0.22830  0.05530  0.13240  1.0000
  C   C18       1.0  0.77170  0.05530  0.36760  1.0000
  C   C19       1.0  0.72830  0.55530  0.13240  1.0000
  C   C20       1.0  0.27170  0.55530  0.36760  1.0000
  C   C21       1.0  0.77170  0.94470  0.86760  1.0000
  C   C22       1.0  0.22830  0.94470  0.63240  1.0000
  C   C23       1.0  0.27170  0.44470  0.86760  1.0000
  C   C24       1.0  0.72830  0.44470  0.63240  1.0000
  C   C25       1.0  0.40480  0.21760  0.04540  1.0000
  C   C26       1.0  0.59520  0.21760  0.45460  1.0000
  C   C27       1.0  0.90480  0.71760  0.04540  1.0000
  C   C28       1.0  0.09520  0.71760  0.45460  1.0000
  C   C29       1.0  0.59520  0.78240  0.95460  1.0000
  C   C30       1.0  0.40480  0.78240  0.54540  1.0000
  C   C31       1.0  0.09520  0.28240  0.95460  1.0000
  C   C32       1.0  0.90480  0.28240  0.54540  1.0000
  C   C33       1.0  0.37470  0.23940  0.19880  1.0000
  C   C34       1.0  0.62530  0.23940  0.30120  1.0000
  C   C35       1.0  0.87470  0.73940  0.19880  1.0000
  C   C36       1.0  0.12530  0.73940  0.30120  1.0000
  C   C37       1.0  0.62530  0.76060  0.80120  1.0000
  C   C38       1.0  0.37470  0.76060  0.69880  1.0000
  C   C39       1.0  0.12530  0.26060  0.80120  1.0000
  C   C40       1.0  0.87470  0.26060  0.69880  1.0000
  C   C41       1.0  0.27690  0.13970  0.18700  1.0000
  C   C42       1.0  0.72310  0.13970  0.31300  1.0000
  C   C43       1.0  0.77690  0.63970  0.18700  1.0000
  C   C44       1.0  0.22310  0.63970  0.31300  1.0000
  C   C45       1.0  0.72310  0.86030  0.81300  1.0000
  C   C46       1.0  0.27690  0.86030  0.68700  1.0000
  C   C47       1.0  0.22310  0.36030  0.81300  1.0000
  C   C48       1.0  0.77690  0.36030  0.68700  1.0000
  C   C49       1.0  0.45240  0.25290  0.00150  1.0000
  C   C50       1.0  0.54760  0.25290  0.49850  1.0000
  C   C51       1.0  0.95240  0.75290  0.00150  1.0000
  C   C52       1.0  0.04760  0.75290  0.49850  1.0000
  C   C53       1.0  0.54760  0.74710  0.99850  1.0000
  C   C54       1.0  0.45240  0.74710  0.50150  1.0000
  C   C55       1.0  0.04760  0.24710  0.99850  1.0000
  C   C56       1.0  0.95240  0.24710  0.50150  1.0000
  C   C57       1.0  0.23630  0.18950  0.33040  1.0000
  C   C58       1.0  0.76370  0.18950  0.16960  1.0000
  C   C59       1.0  0.73630  0.68950  0.33040  1.0000
  C   C60       1.0  0.26370  0.68950  0.16960  1.0000
  C   C61       1.0  0.76370  0.81050  0.66960  1.0000
  C   C62       1.0  0.23630  0.81050  0.83040  1.0000
  C   C63       1.0  0.26370  0.31050  0.66960  1.0000
  C   C64       1.0  0.73630  0.31050  0.83040  1.0000
  C   C65       1.0  0.18720  0.10650  0.27290  1.0000
  C   C66       1.0  0.81280  0.10650  0.22710  1.0000
  C   C67       1.0  0.68720  0.60650  0.27290  1.0000
  C   C68       1.0  0.31280  0.60650  0.22710  1.0000
  C   C69       1.0  0.81280  0.89350  0.72710  1.0000
  C   C70       1.0  0.18720  0.89350  0.77290  1.0000
  C   C71       1.0  0.31280  0.39350  0.72710  1.0000
  C   C72       1.0  0.68720  0.39350  0.77290  1.0000
  C   C73       1.0  0.35360  0.14050  0.97500  1.0000
  C   C74       1.0  0.64640  0.14050  0.52500  1.0000
  C   C75       1.0  0.85360  0.64050  0.97500  1.0000
  C   C76       1.0  0.14640  0.64050  0.52500  1.0000
  C   C77       1.0  0.64640  0.85950  0.02500  1.0000
  C   C78       1.0  0.35360  0.85950  0.47500  1.0000
  C   C79       1.0  0.14640  0.35950  0.02500  1.0000
  C   C80       1.0  0.85360  0.35950  0.47500  1.0000
  C   C81       1.0  0.18400  0.03950  0.17360  1.0000
  C   C82       1.0  0.81600  0.03950  0.32640  1.0000
  C   C83       1.0  0.68400  0.53950  0.17360  1.0000
  C   C84       1.0  0.31600  0.53950  0.32640  1.0000
  C   C85       1.0  0.81600  0.96050  0.82640  1.0000
  C   C86       1.0  0.18400  0.96050  0.67360  1.0000
  C   C87       1.0  0.31600  0.46050  0.82640  1.0000
  C   C88       1.0  0.68400  0.46050  0.67360  1.0000
  C   C89       1.0  0.31130  0.11470  0.01980  1.0000
  C   C90       1.0  0.68870  0.11470  0.48020  1.0000
  C   C91       1.0  0.81130  0.61470  0.01980  1.0000
  C   C92       1.0  0.18870  0.61470  0.48020  1.0000
  C   C93       1.0  0.68870  0.88530  0.98020  1.0000
  C   C94       1.0  0.31130  0.88530  0.51980  1.0000
  C   C95       1.0  0.18870  0.38530  0.98020  1.0000
  C   C96       1.0  0.81130  0.38530  0.51980  1.0000
  C   C97       1.0  0.28050  0.20550  0.28860  1.0000
  C   C98       1.0  0.71950  0.20550  0.21140  1.0000
  C   C99       1.0  0.78050  0.70550  0.28860  1.0000
  C   C100      1.0  0.21950  0.70550  0.21140  1.0000
  C   C101      1.0  0.71950  0.79450  0.71140  1.0000
  C   C102      1.0  0.28050  0.79450  0.78860  1.0000
  C   C103      1.0  0.21950  0.29450  0.71140  1.0000
  C   C104      1.0  0.78050  0.29450  0.78860  1.0000
  H   H1        1.0  0.34700  0.10600  0.90200  1.0000
  H   H2        1.0  0.65300  0.10600  0.59800  1.0000
  H   H3        1.0  0.84700  0.60600  0.90200  1.0000
  H   H4        1.0  0.15300  0.60600  0.59800  1.0000
  H   H5        1.0  0.65300  0.89400  0.09800  1.0000
  H   H6        1.0  0.34700  0.89400  0.40200  1.0000
  H   H7        1.0  0.15300  0.39400  0.09800  1.0000
  H   H8        1.0  0.84700  0.39400  0.40200  1.0000
  H   H9        1.0  0.28300  0.06000  0.97700  1.0000
  H   H10       1.0  0.71700  0.06000  0.52300  1.0000
  H   H11       1.0  0.78300  0.56000  0.97700  1.0000
  H   H12       1.0  0.21700  0.56000  0.52300  1.0000
  H   H13       1.0  0.71700  0.94000  0.02300  1.0000
  H   H14       1.0  0.28300  0.94000  0.47700  1.0000
  H   H15       1.0  0.21700  0.44000  0.02300  1.0000
  H   H16       1.0  0.78300  0.44000  0.47700  1.0000
  H   H17       1.0  0.15400  0.98300  0.13300  1.0000
  H   H18       1.0  0.84600  0.98300  0.36700  1.0000
  H   H19       1.0  0.65400  0.48300  0.13300  1.0000
  H   H20       1.0  0.34600  0.48300  0.36700  1.0000
  H   H21       1.0  0.84600  0.01700  0.86700  1.0000
  H   H22       1.0  0.15400  0.01700  0.63300  1.0000
  H   H23       1.0  0.34600  0.51700  0.86700  1.0000
  H   H24       1.0  0.65400  0.51700  0.63300  1.0000
  H   H25       1.0  0.38300  0.27300  0.27900  1.0000
  H   H26       1.0  0.61700  0.27300  0.22100  1.0000
  H   H27       1.0  0.88300  0.77300  0.27900  1.0000
  H   H28       1.0  0.11700  0.77300  0.22100  1.0000
  H   H29       1.0  0.61700  0.72700  0.72100  1.0000
  H   H30       1.0  0.38300  0.72700  0.77900  1.0000
  H   H31       1.0  0.11700  0.22700  0.72100  1.0000
  H   H32       1.0  0.88300  0.22700  0.77900  1.0000
  H   H33       1.0  0.22900  0.00600  0.07300  1.0000
  H   H34       1.0  0.77100  0.00600  0.42700  1.0000
  H   H35       1.0  0.72900  0.50600  0.07300  1.0000
  H   H36       1.0  0.27100  0.50600  0.42700  1.0000
  H   H37       1.0  0.77100  0.99400  0.92700  1.0000
  H   H38       1.0  0.22900  0.99400  0.57300  1.0000
  H   H39       1.0  0.27100  0.49400  0.92700  1.0000
  H   H40       1.0  0.72900  0.49400  0.57300  1.0000
  H   H41       1.0  0.23600  0.24100  0.40100  1.0000
  H   H42       1.0  0.76400  0.24100  0.09900  1.0000
  H   H43       1.0  0.73600  0.74100  0.40100  1.0000
  H   H44       1.0  0.26400  0.74100  0.09900  1.0000
  H   H45       1.0  0.76400  0.75900  0.59900  1.0000
  H   H46       1.0  0.23600  0.75900  0.90100  1.0000
  H   H47       1.0  0.26400  0.25900  0.59900  1.0000
  H   H48       1.0  0.73600  0.25900  0.90100  1.0000
  H   H49       1.0  0.43000  0.61200  0.08300  1.0000
  H   H50       1.0  0.57000  0.61200  0.41700  1.0000
  H   H51       1.0  0.93000  0.11200  0.08300  1.0000
  H   H52       1.0  0.07000  0.11200  0.41700  1.0000
  H   H53       1.0  0.57000  0.38800  0.91700  1.0000
  H   H54       1.0  0.43000  0.38800  0.58300  1.0000
  H   H55       1.0  0.07000  0.88800  0.91700  1.0000
  H   H56       1.0  0.93000  0.88800  0.58300  1.0000
  H   H57       1.0  0.46700  0.60600  0.04100  1.0000
  H   H58       1.0  0.53300  0.60600  0.45900  1.0000
  H   H59       1.0  0.96700  0.10600  0.04100  1.0000
  H   H60       1.0  0.03300  0.10600  0.45900  1.0000
  H   H61       1.0  0.53300  0.39400  0.95900  1.0000
  H   H62       1.0  0.46700  0.39400  0.54100  1.0000
  H   H63       1.0  0.03300  0.89400  0.95900  1.0000
  H   H64       1.0  0.96700  0.89400  0.54100  1.0000
  H   H65       1.0  0.31200  0.27800  0.32700  1.0000
  H   H66       1.0  0.68800  0.27800  0.17300  1.0000
  H   H67       1.0  0.81200  0.77800  0.32700  1.0000
  H   H68       1.0  0.18800  0.77800  0.17300  1.0000
  H   H69       1.0  0.68800  0.72200  0.67300  1.0000
  H   H70       1.0  0.31200  0.72200  0.82700  1.0000
  H   H71       1.0  0.18800  0.22200  0.67300  1.0000
  H   H72       1.0  0.81200  0.22200  0.82700  1.0000
