data_image0
_chemical_formula_structural       Eu4O40N8C8H8C8H8C48H8C8H8C8H8C16H8C8H24
_chemical_formula_sum              "Eu4 O40 N8 C104 H72"
_cell_length_a       23.53
_cell_length_b       11.462
_cell_length_c       11.973
_cell_angle_alpha    90
_cell_angle_beta     120.045
_cell_angle_gamma    90

_space_group_name_H-M_alt    "P 1"
_space_group_IT_number       1

loop_
  _space_group_symop_operation_xyz
  'x, y, z'

loop_
  _atom_site_type_symbol
  _atom_site_label
  _atom_site_symmetry_multiplicity
  _atom_site_fract_x
  _atom_site_fract_y
  _atom_site_fract_z
  _atom_site_occupancy
  Eu  Eu1       1.0  0.00000  0.06421  0.25000  1.0000
  Eu  Eu2       1.0  0.50000  0.56421  0.25000  1.0000
  Eu  Eu3       1.0  0.00000  0.93579  0.75000  1.0000
  Eu  Eu4       1.0  0.50000  0.43579  0.75000  1.0000
  O   O1        1.0  0.03834  0.91180  0.16830  1.0000
  O   O2        1.0  0.96166  0.91180  0.33170  1.0000
  O   O3        1.0  0.53834  0.41180  0.16830  1.0000
  O   O4        1.0  0.46166  0.41180  0.33170  1.0000
  O   O5        1.0  0.96166  0.08820  0.83170  1.0000
  O   O6        1.0  0.03834  0.08820  0.66830  1.0000
  O   O7        1.0  0.46166  0.58820  0.83170  1.0000
  O   O8        1.0  0.53834  0.58820  0.66830  1.0000
  O   O9        1.0  0.00907  0.16266  0.08147  1.0000
  O   O10       1.0  0.99093  0.16266  0.41853  1.0000
  O   O11       1.0  0.50907  0.66266  0.08147  1.0000
  O   O12       1.0  0.49093  0.66266  0.41853  1.0000
  O   O13       1.0  0.99093  0.83734  0.91853  1.0000
  O   O14       1.0  0.00907  0.83734  0.58147  1.0000
  O   O15       1.0  0.49093  0.33734  0.91853  1.0000
  O   O16       1.0  0.50907  0.33734  0.58147  1.0000
  O   O17       1.0  0.40250  0.49290  0.07090  1.0000
  O   O18       1.0  0.59750  0.49290  0.42910  1.0000
  O   O19       1.0  0.90250  0.99290  0.07090  1.0000
  O   O20       1.0  0.09750  0.99290  0.42910  1.0000
  O   O21       1.0  0.59750  0.50710  0.92910  1.0000
  O   O22       1.0  0.40250  0.50710  0.57090  1.0000
  O   O23       1.0  0.09750  0.00710  0.92910  1.0000
  O   O24       1.0  0.90250  0.00710  0.57090  1.0000
  O   O25       1.0  0.35771  0.34370  0.11910  1.0000
  O   O26       1.0  0.64229  0.34370  0.38090  1.0000
  O   O27       1.0  0.85771  0.84370  0.11910  1.0000
  O   O28       1.0  0.14229  0.84370  0.38090  1.0000
  O   O29       1.0  0.64229  0.65630  0.88090  1.0000
  O   O30       1.0  0.35771  0.65630  0.61910  1.0000
  O   O31       1.0  0.14229  0.15630  0.88090  1.0000
  O   O32       1.0  0.85771  0.15630  0.61910  1.0000
  O   O33       1.0  0.04976  0.30170  0.00970  1.0000
  O   O34       1.0  0.95024  0.30170  0.49030  1.0000
  O   O35       1.0  0.54976  0.80170  0.00970  1.0000
  O   O36       1.0  0.45024  0.80170  0.49030  1.0000
  O   O37       1.0  0.95024  0.69830  0.99030  1.0000
  O   O38       1.0  0.04976  0.69830  0.50970  1.0000
  O   O39       1.0  0.45024  0.19830  0.99030  1.0000
  O   O40       1.0  0.54976  0.19830  0.50970  1.0000
  N   N1        1.0  0.08489  0.23280  0.32450  1.0000
  N   N2        1.0  0.91511  0.23280  0.17550  1.0000
  N   N3        1.0  0.58489  0.73280  0.32450  1.0000
  N   N4        1.0  0.41511  0.73280  0.17550  1.0000
  N   N5        1.0  0.91511  0.76720  0.67550  1.0000
  N   N6        1.0  0.08489  0.76720  0.82450  1.0000
  N   N7        1.0  0.41511  0.26720  0.67550  1.0000
  N   N8        1.0  0.58489  0.26720  0.82450  1.0000
  C   C1        1.0  0.21940  0.29410  0.72700  1.0000
  C   C2        1.0  0.78060  0.29410  0.77300  1.0000
  C   C3        1.0  0.71940  0.79410  0.72700  1.0000
  C   C4        1.0  0.28060  0.79410  0.77300  1.0000
  C   C5        1.0  0.78060  0.70590  0.27300  1.0000
  C   C6        1.0  0.21940  0.70590  0.22700  1.0000
  C   C7        1.0  0.28060  0.20590  0.27300  1.0000
  C   C8        1.0  0.71940  0.20590  0.22700  1.0000
  H   H1        1.0  0.18670  0.23810  0.70190  1.0000
  H   H2        1.0  0.81330  0.23810  0.79810  1.0000
  H   H3        1.0  0.68670  0.73810  0.70190  1.0000
  H   H4        1.0  0.31330  0.73810  0.79810  1.0000
  H   H5        1.0  0.81330  0.76190  0.29810  1.0000
  H   H6        1.0  0.18670  0.76190  0.20190  1.0000
  H   H7        1.0  0.31330  0.26190  0.29810  1.0000
  H   H8        1.0  0.68670  0.26190  0.20190  1.0000
  C   C9        1.0  0.27130  0.44390  0.67490  1.0000
  C   C10       1.0  0.72870  0.44390  0.82510  1.0000
  C   C11       1.0  0.77130  0.94390  0.67490  1.0000
  C   C12       1.0  0.22870  0.94390  0.82510  1.0000
  C   C13       1.0  0.72870  0.55610  0.32510  1.0000
  C   C14       1.0  0.27130  0.55610  0.17490  1.0000
  C   C15       1.0  0.22870  0.05610  0.32510  1.0000
  C   C16       1.0  0.77130  0.05610  0.17490  1.0000
  H   H9        1.0  0.27420  0.49040  0.61440  1.0000
  H   H10       1.0  0.72580  0.49040  0.88560  1.0000
  H   H11       1.0  0.77420  0.99040  0.61440  1.0000
  H   H12       1.0  0.22580  0.99040  0.88560  1.0000
  H   H13       1.0  0.72580  0.50960  0.38560  1.0000
  H   H14       1.0  0.27420  0.50960  0.11440  1.0000
  H   H15       1.0  0.22580  0.00960  0.38560  1.0000
  H   H16       1.0  0.77420  0.00960  0.11440  1.0000
  C   C17       1.0  0.36166  0.40990  0.04100  1.0000
  C   C18       1.0  0.63834  0.40990  0.45900  1.0000
  C   C19       1.0  0.86166  0.90990  0.04100  1.0000
  C   C20       1.0  0.13834  0.90990  0.45900  1.0000
  C   C21       1.0  0.63834  0.59010  0.95900  1.0000
  C   C22       1.0  0.36166  0.59010  0.54100  1.0000
  C   C23       1.0  0.13834  0.09010  0.95900  1.0000
  C   C24       1.0  0.86166  0.09010  0.54100  1.0000
  C   C25       1.0  0.22306  0.35960  0.63320  1.0000
  C   C26       1.0  0.77694  0.35960  0.86680  1.0000
  C   C27       1.0  0.72306  0.85960  0.63320  1.0000
  C   C28       1.0  0.27694  0.85960  0.86680  1.0000
  C   C29       1.0  0.77694  0.64040  0.36680  1.0000
  C   C30       1.0  0.22306  0.64040  0.13320  1.0000
  C   C31       1.0  0.27694  0.14040  0.36680  1.0000
  C   C32       1.0  0.72306  0.14040  0.13320  1.0000
  C   C33       1.0  0.17827  0.33640  0.49220  1.0000
  C   C34       1.0  0.82173  0.33640  0.00780  1.0000
  C   C35       1.0  0.67827  0.83640  0.49220  1.0000
  C   C36       1.0  0.32173  0.83640  0.00780  1.0000
  C   C37       1.0  0.82173  0.66360  0.50780  1.0000
  C   C38       1.0  0.17827  0.66360  0.99220  1.0000
  C   C39       1.0  0.32173  0.16360  0.50780  1.0000
  C   C40       1.0  0.67827  0.16360  0.99220  1.0000
  C   C41       1.0  0.09544  0.28270  0.23530  1.0000
  C   C42       1.0  0.90456  0.28270  0.26470  1.0000
  C   C43       1.0  0.59544  0.78270  0.23530  1.0000
  C   C44       1.0  0.40456  0.78270  0.26470  1.0000
  C   C45       1.0  0.90456  0.71730  0.76470  1.0000
  C   C46       1.0  0.09544  0.71730  0.73530  1.0000
  C   C47       1.0  0.40456  0.21730  0.76470  1.0000
  C   C48       1.0  0.59544  0.21730  0.73530  1.0000
  C   C49       1.0  0.04779  0.24770  0.09660  1.0000
  C   C50       1.0  0.95221  0.24770  0.40340  1.0000
  C   C51       1.0  0.54779  0.74770  0.09660  1.0000
  C   C52       1.0  0.45221  0.74770  0.40340  1.0000
  C   C53       1.0  0.95221  0.75230  0.90340  1.0000
  C   C54       1.0  0.04779  0.75230  0.59660  1.0000
  C   C55       1.0  0.45221  0.25230  0.90340  1.0000
  C   C56       1.0  0.54779  0.25230  0.59660  1.0000
  C   C57       1.0  0.12546  0.26100  0.44920  1.0000
  C   C58       1.0  0.87454  0.26100  0.05080  1.0000
  C   C59       1.0  0.62546  0.76100  0.44920  1.0000
  C   C60       1.0  0.37454  0.76100  0.05080  1.0000
  C   C61       1.0  0.87454  0.73900  0.55080  1.0000
  C   C62       1.0  0.12546  0.73900  0.94920  1.0000
  C   C63       1.0  0.37454  0.23900  0.55080  1.0000
  C   C64       1.0  0.62546  0.23900  0.94920  1.0000
  H   H17       1.0  0.11740  0.22740  0.51070  1.0000
  H   H18       1.0  0.88260  0.22740  0.98930  1.0000
  H   H19       1.0  0.61740  0.72740  0.51070  1.0000
  H   H20       1.0  0.38260  0.72740  0.98930  1.0000
  H   H21       1.0  0.88260  0.77260  0.48930  1.0000
  H   H22       1.0  0.11740  0.77260  0.01070  1.0000
  H   H23       1.0  0.38260  0.27260  0.48930  1.0000
  H   H24       1.0  0.61740  0.27260  0.01070  1.0000
  C   C65       1.0  0.14646  0.35950  0.26770  1.0000
  C   C66       1.0  0.85354  0.35950  0.23230  1.0000
  C   C67       1.0  0.64646  0.85950  0.26770  1.0000
  C   C68       1.0  0.35354  0.85950  0.23230  1.0000
  C   C69       1.0  0.85354  0.64050  0.73230  1.0000
  C   C70       1.0  0.14646  0.64050  0.76770  1.0000
  C   C71       1.0  0.35354  0.14050  0.73230  1.0000
  C   C72       1.0  0.64646  0.14050  0.76770  1.0000
  H   H25       1.0  0.15250  0.39340  0.20380  1.0000
  H   H26       1.0  0.84750  0.39340  0.29620  1.0000
  H   H27       1.0  0.65250  0.89340  0.20380  1.0000
  H   H28       1.0  0.34750  0.89340  0.29620  1.0000
  H   H29       1.0  0.84750  0.60660  0.79620  1.0000
  H   H30       1.0  0.15250  0.60660  0.70380  1.0000
  H   H31       1.0  0.34750  0.10660  0.79620  1.0000
  H   H32       1.0  0.65250  0.10660  0.70380  1.0000
  C   C73       1.0  0.26380  0.31030  0.85730  1.0000
  C   C74       1.0  0.73620  0.31030  0.64270  1.0000
  C   C75       1.0  0.76380  0.81030  0.85730  1.0000
  C   C76       1.0  0.23620  0.81030  0.64270  1.0000
  C   C77       1.0  0.73620  0.68970  0.14270  1.0000
  C   C78       1.0  0.26380  0.68970  0.35730  1.0000
  C   C79       1.0  0.23620  0.18970  0.14270  1.0000
  C   C80       1.0  0.76380  0.18970  0.35730  1.0000
  H   H33       1.0  0.26040  0.26460  0.91800  1.0000
  H   H34       1.0  0.73960  0.26460  0.58200  1.0000
  H   H35       1.0  0.76040  0.76460  0.91800  1.0000
  H   H36       1.0  0.23960  0.76460  0.58200  1.0000
  H   H37       1.0  0.73960  0.73540  0.08200  1.0000
  H   H38       1.0  0.26040  0.73540  0.41800  1.0000
  H   H39       1.0  0.23960  0.23540  0.08200  1.0000
  H   H40       1.0  0.76040  0.23540  0.41800  1.0000
  C   C81       1.0  0.31290  0.39340  0.89830  1.0000
  C   C82       1.0  0.68710  0.39340  0.60170  1.0000
  C   C83       1.0  0.81290  0.89340  0.89830  1.0000
  C   C84       1.0  0.18710  0.89340  0.60170  1.0000
  C   C85       1.0  0.68710  0.60660  0.10170  1.0000
  C   C86       1.0  0.31290  0.60660  0.39830  1.0000
  C   C87       1.0  0.18710  0.10660  0.10170  1.0000
  C   C88       1.0  0.81290  0.10660  0.39830  1.0000
  C   C89       1.0  0.31591  0.46080  0.80610  1.0000
  C   C90       1.0  0.68409  0.46080  0.69390  1.0000
  C   C91       1.0  0.81591  0.96080  0.80610  1.0000
  C   C92       1.0  0.18409  0.96080  0.69390  1.0000
  C   C93       1.0  0.68409  0.53920  0.19390  1.0000
  C   C94       1.0  0.31591  0.53920  0.30610  1.0000
  C   C95       1.0  0.18409  0.03920  0.19390  1.0000
  C   C96       1.0  0.81591  0.03920  0.30610  1.0000
  H   H41       1.0  0.34800  0.51810  0.83130  1.0000
  H   H42       1.0  0.65200  0.51810  0.66870  1.0000
  H   H43       1.0  0.84800  0.01810  0.83130  1.0000
  H   H44       1.0  0.15200  0.01810  0.66870  1.0000
  H   H45       1.0  0.65200  0.48190  0.16870  1.0000
  H   H46       1.0  0.34800  0.48190  0.33130  1.0000
  H   H47       1.0  0.15200  0.98190  0.16870  1.0000
  H   H48       1.0  0.84800  0.98190  0.33130  1.0000
  C   C97       1.0  0.18895  0.38600  0.39750  1.0000
  C   C98       1.0  0.81105  0.38600  0.10250  1.0000
  C   C99       1.0  0.68895  0.88600  0.39750  1.0000
  C   C100      1.0  0.31105  0.88600  0.10250  1.0000
  C   C101      1.0  0.81105  0.61400  0.60250  1.0000
  C   C102      1.0  0.18895  0.61400  0.89750  1.0000
  C   C103      1.0  0.31105  0.11400  0.60250  1.0000
  C   C104      1.0  0.68895  0.11400  0.89750  1.0000
  H   H49       1.0  0.22410  0.43640  0.42090  1.0000
  H   H50       1.0  0.77590  0.43640  0.07910  1.0000
  H   H51       1.0  0.72410  0.93640  0.42090  1.0000
  H   H52       1.0  0.27590  0.93640  0.07910  1.0000
  H   H53       1.0  0.77590  0.56360  0.57910  1.0000
  H   H54       1.0  0.22410  0.56360  0.92090  1.0000
  H   H55       1.0  0.27590  0.06360  0.57910  1.0000
  H   H56       1.0  0.72410  0.06360  0.92090  1.0000
  H   H57       1.0  0.02900  0.88800  0.09500  1.0000
  H   H58       1.0  0.97100  0.88800  0.40500  1.0000
  H   H59       1.0  0.52900  0.38800  0.09500  1.0000
  H   H60       1.0  0.47100  0.38800  0.40500  1.0000
  H   H61       1.0  0.97100  0.11200  0.90500  1.0000
  H   H62       1.0  0.02900  0.11200  0.59500  1.0000
  H   H63       1.0  0.47100  0.61200  0.90500  1.0000
  H   H64       1.0  0.52900  0.61200  0.59500  1.0000
  H   H65       1.0  0.07300  0.88700  0.23000  1.0000
  H   H66       1.0  0.92700  0.88700  0.27000  1.0000
  H   H67       1.0  0.57300  0.38700  0.23000  1.0000
  H   H68       1.0  0.42700  0.38700  0.27000  1.0000
  H   H69       1.0  0.92700  0.11300  0.77000  1.0000
  H   H70       1.0  0.07300  0.11300  0.73000  1.0000
  H   H71       1.0  0.42700  0.61300  0.77000  1.0000
  H   H72       1.0  0.57300  0.61300  0.73000  1.0000
