data_image0
_chemical_formula_structural       U2O20C2H2C2H2C2H2C2H2C8
_chemical_formula_sum              "U2 O20 C16 H8"
_cell_length_a       8.6568
_cell_length_b       11.1063
_cell_length_c       15.6213
_cell_angle_alpha    88.047
_cell_angle_beta     86.968
_cell_angle_gamma    69.987

_space_group_name_H-M_alt    "P 1"
_space_group_IT_number       1

loop_
  _space_group_symop_operation_xyz
  'x, y, z'

loop_
  _atom_site_type_symbol
  _atom_site_label
  _atom_site_symmetry_multiplicity
  _atom_site_fract_x
  _atom_site_fract_y
  _atom_site_fract_z
  _atom_site_occupancy
  U   U1        1.0  0.25205  0.55958  0.64714  1.0000
  U   U2        1.0  0.74795  0.44042  0.35286  1.0000
  O   O1        1.0  0.20860  0.41510  0.63620  1.0000
  O   O2        1.0  0.79140  0.58490  0.36380  1.0000
  O   O3        1.0  0.30210  0.70160  0.65890  1.0000
  O   O4        1.0  0.69790  0.29840  0.34110  1.0000
  O   O5        1.0  0.51910  0.43530  0.58564  1.0000
  O   O6        1.0  0.48090  0.56470  0.41436  1.0000
  O   O7        1.0  0.74830  0.41430  0.50820  1.0000
  O   O8        1.0  0.25170  0.58570  0.49180  1.0000
  O   O9        1.0  0.43830  0.48250  0.76210  1.0000
  O   O10       1.0  0.56170  0.51750  0.23790  1.0000
  O   O11       1.0  0.68870  0.37620  0.80680  1.0000
  O   O12       1.0  0.31130  0.62380  0.19320  1.0000
  O   O13       1.0  0.06930  0.59840  0.76660  1.0000
  O   O14       1.0  0.93070  0.40160  0.23340  1.0000
  O   O15       1.0  0.84820  0.62620  0.85220  1.0000
  O   O16       1.0  0.15180  0.37380  0.14780  1.0000
  O   O17       1.0  0.99800  0.71920  0.60490  1.0000
  O   O18       1.0  0.00200  0.28080  0.39510  1.0000
  O   O19       1.0  0.72780  0.80710  0.59010  1.0000
  O   O20       1.0  0.27220  0.19290  0.40990  1.0000
  C   C1        1.0  0.66560  0.57440  0.61800  1.0000
  C   C2        1.0  0.33440  0.42560  0.38200  1.0000
  H   H1        1.0  0.58710  0.65920  0.59900  1.0000
  H   H2        1.0  0.41290  0.34080  0.40100  1.0000
  C   C3        1.0  0.65920  0.56290  0.71920  1.0000
  C   C4        1.0  0.34080  0.43710  0.28080  1.0000
  H   H3        1.0  0.60060  0.64940  0.74380  1.0000
  H   H4        1.0  0.39940  0.35060  0.25620  1.0000
  C   C5        1.0  0.84880  0.53650  0.71550  1.0000
  C   C6        1.0  0.15120  0.46350  0.28450  1.0000
  H   H5        1.0  0.90530  0.44140  0.71770  1.0000
  H   H6        1.0  0.09470  0.55860  0.28230  1.0000
  C   C7        1.0  0.84090  0.57980  0.61900  1.0000
  C   C8        1.0  0.15910  0.42020  0.38100  1.0000
  H   H7        1.0  0.92070  0.51360  0.58150  1.0000
  H   H8        1.0  0.07930  0.48640  0.41850  1.0000
  C   C9        1.0  0.64430  0.46760  0.56700  1.0000
  C   C10       1.0  0.35570  0.53240  0.43300  1.0000
  C   C11       1.0  0.59550  0.46450  0.76550  1.0000
  C   C12       1.0  0.40450  0.53550  0.23450  1.0000
  C   C13       1.0  0.92310  0.59450  0.78320  1.0000
  C   C14       1.0  0.07690  0.40550  0.21680  1.0000
  C   C15       1.0  0.85310  0.71180  0.60270  1.0000
  C   C16       1.0  0.14690  0.28820  0.39730  1.0000
