data_image0
_chemical_formula_structural       U2O20C2H2C2H2C2H2C2H2C8
_chemical_formula_sum              "U2 O20 C16 H8"
_cell_length_a       9.3916
_cell_length_b       9.5919
_cell_length_c       9.8049
_cell_angle_alpha    111.545
_cell_angle_beta     104.426
_cell_angle_gamma    95.625

_space_group_name_H-M_alt    "P 1"
_space_group_IT_number       1

loop_
  _space_group_symop_operation_xyz
  'x, y, z'

loop_
  _atom_site_type_symbol
  _atom_site_label
  _atom_site_symmetry_multiplicity
  _atom_site_fract_x
  _atom_site_fract_y
  _atom_site_fract_z
  _atom_site_occupancy
  U   U1        1.0  0.80810  0.32872  0.61277  1.0000
  U   U2        1.0  0.19190  0.67128  0.38723  1.0000
  O   O1        1.0  0.94730  0.42750  0.79960  1.0000
  O   O2        1.0  0.05270  0.57250  0.20040  1.0000
  O   O3        1.0  0.66740  0.23090  0.43190  1.0000
  O   O4        1.0  0.33260  0.76910  0.56810  1.0000
  O   O5        1.0  0.66560  0.20710  0.72430  1.0000
  O   O6        1.0  0.33440  0.79290  0.27570  1.0000
  O   O7        1.0  0.48650  0.15750  0.81760  1.0000
  O   O8        1.0  0.51350  0.84250  0.18240  1.0000
  O   O9        1.0  0.65110  0.48730  0.71050  1.0000
  O   O10       1.0  0.34890  0.51270  0.28950  1.0000
  O   O11       1.0  0.46540  0.58870  0.78070  1.0000
  O   O12       1.0  0.53460  0.41130  0.21930  1.0000
  O   O13       1.0  0.15170  0.44210  0.42950  1.0000
  O   O14       1.0  0.84830  0.55790  0.57050  1.0000
  O   O15       1.0  0.98490  0.30760  0.48000  1.0000
  O   O16       1.0  0.01510  0.69240  0.52000  1.0000
  O   O17       1.0  0.10780  0.89180  0.38980  1.0000
  O   O18       1.0  0.89220  0.10820  0.61020  1.0000
  O   O19       1.0  0.13910  0.05840  0.28590  1.0000
  O   O20       1.0  0.86090  0.94160  0.71410  1.0000
  C   C1        1.0  0.41540  0.17880  0.57500  1.0000
  C   C2        1.0  0.58460  0.82120  0.42500  1.0000
  H   H1        1.0  0.43510  0.11140  0.47910  1.0000
  H   H2        1.0  0.56490  0.88860  0.52090  1.0000
  C   C3        1.0  0.40010  0.34110  0.57520  1.0000
  C   C4        1.0  0.59990  0.65890  0.42480  1.0000
  H   H3        1.0  0.39270  0.33950  0.47110  1.0000
  H   H4        1.0  0.60730  0.66050  0.52890  1.0000
  C   C5        1.0  0.24300  0.31560  0.59160  1.0000
  C   C6        1.0  0.75700  0.68440  0.40840  1.0000
  H   H5        1.0  0.24920  0.37220  0.70200  1.0000
  H   H6        1.0  0.75080  0.62780  0.29800  1.0000
  C   C7        1.0  0.24590  0.14600  0.56030  1.0000
  C   C8        1.0  0.75410  0.85400  0.43970  1.0000
  H   H7        1.0  0.22750  0.11820  0.64420  1.0000
  H   H8        1.0  0.77250  0.88180  0.35580  1.0000
  C   C9        1.0  0.52650  0.18050  0.71720  1.0000
  C   C10       1.0  0.47350  0.81950  0.28280  1.0000
  C   C11       1.0  0.51180  0.48250  0.69910  1.0000
  C   C12       1.0  0.48820  0.51750  0.30090  1.0000
  C   C13       1.0  0.11850  0.35700  0.49100  1.0000
  C   C14       1.0  0.88150  0.64300  0.50900  1.0000
  C   C15       1.0  0.15780  0.02610  0.40080  1.0000
  C   C16       1.0  0.84220  0.97390  0.59920  1.0000
