data_image0
_chemical_formula_structural       In16O128C64H32C64H32C64H32C64
_chemical_formula_sum              "In16 O128 C256 H96"
_cell_length_a       19.659
_cell_length_b       19.659
_cell_length_c       36.149
_cell_angle_alpha    90
_cell_angle_beta     90
_cell_angle_gamma    90

_space_group_name_H-M_alt    "P 1"
_space_group_IT_number       1

loop_
  _space_group_symop_operation_xyz
  'x, y, z'

loop_
  _atom_site_type_symbol
  _atom_site_label
  _atom_site_symmetry_multiplicity
  _atom_site_fract_x
  _atom_site_fract_y
  _atom_site_fract_z
  _atom_site_occupancy
  In  In1       1.0  0.22141  0.47141  0.12500  1.0000
  In  In2       1.0  0.77859  0.97141  0.37500  1.0000
  In  In3       1.0  0.27859  0.52859  0.62500  1.0000
  In  In4       1.0  0.72141  0.02859  0.87500  1.0000
  In  In5       1.0  0.22141  0.52859  0.37500  1.0000
  In  In6       1.0  0.72141  0.97141  0.62500  1.0000
  In  In7       1.0  0.27859  0.47141  0.87500  1.0000
  In  In8       1.0  0.77859  0.02859  0.12500  1.0000
  In  In9       1.0  0.77859  0.52859  0.87500  1.0000
  In  In10      1.0  0.22141  0.02859  0.62500  1.0000
  In  In11      1.0  0.72141  0.47141  0.37500  1.0000
  In  In12      1.0  0.27859  0.97141  0.12500  1.0000
  In  In13      1.0  0.77859  0.47141  0.62500  1.0000
  In  In14      1.0  0.27859  0.02859  0.37500  1.0000
  In  In15      1.0  0.72141  0.52859  0.12500  1.0000
  In  In16      1.0  0.22141  0.97141  0.87500  1.0000
  O   O1        1.0  0.23060  0.35060  0.13284  1.0000
  O   O2        1.0  0.89940  0.98060  0.38284  1.0000
  O   O3        1.0  0.26940  0.64940  0.63284  1.0000
  O   O4        1.0  0.60060  0.01940  0.88284  1.0000
  O   O5        1.0  0.23060  0.64940  0.36716  1.0000
  O   O6        1.0  0.60060  0.98060  0.61716  1.0000
  O   O7        1.0  0.26940  0.35060  0.86716  1.0000
  O   O8        1.0  0.89940  0.01940  0.11716  1.0000
  O   O9        1.0  0.73060  0.85060  0.63284  1.0000
  O   O10       1.0  0.39940  0.48060  0.88284  1.0000
  O   O11       1.0  0.76940  0.14940  0.13284  1.0000
  O   O12       1.0  0.10060  0.51940  0.38284  1.0000
  O   O13       1.0  0.73060  0.14940  0.86716  1.0000
  O   O14       1.0  0.10060  0.48060  0.11716  1.0000
  O   O15       1.0  0.76940  0.85060  0.36716  1.0000
  O   O16       1.0  0.39940  0.51940  0.61716  1.0000
  O   O17       1.0  0.76940  0.64940  0.86716  1.0000
  O   O18       1.0  0.10060  0.01940  0.61716  1.0000
  O   O19       1.0  0.73060  0.35060  0.36716  1.0000
  O   O20       1.0  0.39940  0.98060  0.11716  1.0000
  O   O21       1.0  0.76940  0.35060  0.63284  1.0000
  O   O22       1.0  0.39940  0.01940  0.38284  1.0000
  O   O23       1.0  0.73060  0.64940  0.13284  1.0000
  O   O24       1.0  0.10060  0.98060  0.88284  1.0000
  O   O25       1.0  0.26940  0.14940  0.36716  1.0000
  O   O26       1.0  0.60060  0.51940  0.11716  1.0000
  O   O27       1.0  0.23060  0.85060  0.86716  1.0000
  O   O28       1.0  0.89940  0.48060  0.61716  1.0000
  O   O29       1.0  0.26940  0.85060  0.13284  1.0000
  O   O30       1.0  0.89940  0.51940  0.88284  1.0000
  O   O31       1.0  0.23060  0.14940  0.63284  1.0000
  O   O32       1.0  0.60060  0.48060  0.38284  1.0000
  O   O33       1.0  0.21720  0.39870  0.07975  1.0000
  O   O34       1.0  0.85130  0.96720  0.32975  1.0000
  O   O35       1.0  0.28280  0.60130  0.57975  1.0000
  O   O36       1.0  0.64870  0.03280  0.82975  1.0000
  O   O37       1.0  0.21720  0.60130  0.42025  1.0000
  O   O38       1.0  0.64870  0.96720  0.67025  1.0000
  O   O39       1.0  0.28280  0.39870  0.92025  1.0000
  O   O40       1.0  0.85130  0.03280  0.17025  1.0000
  O   O41       1.0  0.71720  0.89870  0.57975  1.0000
  O   O42       1.0  0.35130  0.46720  0.82975  1.0000
  O   O43       1.0  0.78280  0.10130  0.07975  1.0000
  O   O44       1.0  0.14870  0.53280  0.32975  1.0000
  O   O45       1.0  0.71720  0.10130  0.92025  1.0000
  O   O46       1.0  0.14870  0.46720  0.17025  1.0000
  O   O47       1.0  0.78280  0.89870  0.42025  1.0000
  O   O48       1.0  0.35130  0.53280  0.67025  1.0000
  O   O49       1.0  0.78280  0.60130  0.92025  1.0000
  O   O50       1.0  0.14870  0.03280  0.67025  1.0000
  O   O51       1.0  0.71720  0.39870  0.42025  1.0000
  O   O52       1.0  0.35130  0.96720  0.17025  1.0000
  O   O53       1.0  0.78280  0.39870  0.57975  1.0000
  O   O54       1.0  0.35130  0.03280  0.32975  1.0000
  O   O55       1.0  0.71720  0.60130  0.07975  1.0000
  O   O56       1.0  0.14870  0.96720  0.82975  1.0000
  O   O57       1.0  0.28280  0.10130  0.42025  1.0000
  O   O58       1.0  0.64870  0.53280  0.17025  1.0000
  O   O59       1.0  0.21720  0.89870  0.92025  1.0000
  O   O60       1.0  0.85130  0.46720  0.67025  1.0000
  O   O61       1.0  0.28280  0.89870  0.07975  1.0000
  O   O62       1.0  0.85130  0.53280  0.82975  1.0000
  O   O63       1.0  0.21720  0.10130  0.57975  1.0000
  O   O64       1.0  0.64870  0.46720  0.32975  1.0000
  O   O65       1.0  0.27610  0.04100  0.07807  1.0000
  O   O66       1.0  0.20900  0.02610  0.32807  1.0000
  O   O67       1.0  0.22390  0.95900  0.57807  1.0000
  O   O68       1.0  0.29100  0.97390  0.82807  1.0000
  O   O69       1.0  0.27610  0.95900  0.42193  1.0000
  O   O70       1.0  0.29100  0.02610  0.67193  1.0000
  O   O71       1.0  0.22390  0.04100  0.92193  1.0000
  O   O72       1.0  0.20900  0.97390  0.17193  1.0000
  O   O73       1.0  0.77610  0.54100  0.57807  1.0000
  O   O74       1.0  0.70900  0.52610  0.82807  1.0000
  O   O75       1.0  0.72390  0.45900  0.07807  1.0000
  O   O76       1.0  0.79100  0.47390  0.32807  1.0000
  O   O77       1.0  0.77610  0.45900  0.92193  1.0000
  O   O78       1.0  0.79100  0.52610  0.17193  1.0000
  O   O79       1.0  0.72390  0.54100  0.42193  1.0000
  O   O80       1.0  0.70900  0.47390  0.67193  1.0000
  O   O81       1.0  0.72390  0.95900  0.92193  1.0000
  O   O82       1.0  0.79100  0.97390  0.67193  1.0000
  O   O83       1.0  0.77610  0.04100  0.42193  1.0000
  O   O84       1.0  0.70900  0.02610  0.17193  1.0000
  O   O85       1.0  0.72390  0.04100  0.57807  1.0000
  O   O86       1.0  0.70900  0.97390  0.32807  1.0000
  O   O87       1.0  0.77610  0.95900  0.07807  1.0000
  O   O88       1.0  0.79100  0.02610  0.82807  1.0000
  O   O89       1.0  0.22390  0.45900  0.42193  1.0000
  O   O90       1.0  0.29100  0.47390  0.17193  1.0000
  O   O91       1.0  0.27610  0.54100  0.92193  1.0000
  O   O92       1.0  0.20900  0.52610  0.67193  1.0000
  O   O93       1.0  0.22390  0.54100  0.07807  1.0000
  O   O94       1.0  0.20900  0.47390  0.82807  1.0000
  O   O95       1.0  0.27610  0.45900  0.57807  1.0000
  O   O96       1.0  0.29100  0.52610  0.32807  1.0000
  O   O97       1.0  0.26980  0.09030  0.13276  1.0000
  O   O98       1.0  0.15970  0.01980  0.38276  1.0000
  O   O99       1.0  0.23020  0.90970  0.63276  1.0000
  O   O100      1.0  0.34030  0.98020  0.88276  1.0000
  O   O101      1.0  0.26980  0.90970  0.36724  1.0000
  O   O102      1.0  0.34030  0.01980  0.61724  1.0000
  O   O103      1.0  0.23020  0.09030  0.86724  1.0000
  O   O104      1.0  0.15970  0.98020  0.11724  1.0000
  O   O105      1.0  0.76980  0.59030  0.63276  1.0000
  O   O106      1.0  0.65970  0.51980  0.88276  1.0000
  O   O107      1.0  0.73020  0.40970  0.13276  1.0000
  O   O108      1.0  0.84030  0.48020  0.38276  1.0000
  O   O109      1.0  0.76980  0.40970  0.86724  1.0000
  O   O110      1.0  0.84030  0.51980  0.11724  1.0000
  O   O111      1.0  0.73020  0.59030  0.36724  1.0000
  O   O112      1.0  0.65970  0.48020  0.61724  1.0000
  O   O113      1.0  0.73020  0.90970  0.86724  1.0000
  O   O114      1.0  0.84030  0.98020  0.61724  1.0000
  O   O115      1.0  0.76980  0.09030  0.36724  1.0000
  O   O116      1.0  0.65970  0.01980  0.11724  1.0000
  O   O117      1.0  0.73020  0.09030  0.63276  1.0000
  O   O118      1.0  0.65970  0.98020  0.38276  1.0000
  O   O119      1.0  0.76980  0.90970  0.13276  1.0000
  O   O120      1.0  0.84030  0.01980  0.88276  1.0000
  O   O121      1.0  0.23020  0.40970  0.36724  1.0000
  O   O122      1.0  0.34030  0.48020  0.11724  1.0000
  O   O123      1.0  0.26980  0.59030  0.86724  1.0000
  O   O124      1.0  0.15970  0.51980  0.61724  1.0000
  O   O125      1.0  0.23020  0.59030  0.13276  1.0000
  O   O126      1.0  0.15970  0.48020  0.88276  1.0000
  O   O127      1.0  0.26980  0.40970  0.63276  1.0000
  O   O128      1.0  0.34030  0.51980  0.38276  1.0000
  C   C1        1.0  0.24900  0.22100  0.02035  1.0000
  C   C2        1.0  0.02900  0.99900  0.27035  1.0000
  C   C3        1.0  0.25100  0.77900  0.52035  1.0000
  C   C4        1.0  0.47100  0.00100  0.77035  1.0000
  C   C5        1.0  0.24900  0.77900  0.47965  1.0000
  C   C6        1.0  0.47100  0.99900  0.72965  1.0000
  C   C7        1.0  0.25100  0.22100  0.97965  1.0000
  C   C8        1.0  0.02900  0.00100  0.22965  1.0000
  C   C9        1.0  0.74900  0.72100  0.52035  1.0000
  C   C10       1.0  0.52900  0.49900  0.77035  1.0000
  C   C11       1.0  0.75100  0.27900  0.02035  1.0000
  C   C12       1.0  0.97100  0.50100  0.27035  1.0000
  C   C13       1.0  0.74900  0.27900  0.97965  1.0000
  C   C14       1.0  0.97100  0.49900  0.22965  1.0000
  C   C15       1.0  0.75100  0.72100  0.47965  1.0000
  C   C16       1.0  0.52900  0.50100  0.72965  1.0000
  C   C17       1.0  0.75100  0.77900  0.97965  1.0000
  C   C18       1.0  0.97100  0.00100  0.72965  1.0000
  C   C19       1.0  0.74900  0.22100  0.47965  1.0000
  C   C20       1.0  0.52900  0.99900  0.22965  1.0000
  C   C21       1.0  0.75100  0.22100  0.52035  1.0000
  C   C22       1.0  0.52900  0.00100  0.27035  1.0000
  C   C23       1.0  0.74900  0.77900  0.02035  1.0000
  C   C24       1.0  0.97100  0.99900  0.77035  1.0000
  C   C25       1.0  0.25100  0.27900  0.47965  1.0000
  C   C26       1.0  0.47100  0.50100  0.22965  1.0000
  C   C27       1.0  0.24900  0.72100  0.97965  1.0000
  C   C28       1.0  0.02900  0.49900  0.72965  1.0000
  C   C29       1.0  0.25100  0.72100  0.02035  1.0000
  C   C30       1.0  0.02900  0.50100  0.77035  1.0000
  C   C31       1.0  0.24900  0.27900  0.52035  1.0000
  C   C32       1.0  0.47100  0.49900  0.27035  1.0000
  C   C33       1.0  0.25920  0.16140  0.04048  1.0000
  C   C34       1.0  0.08860  0.00920  0.29048  1.0000
  C   C35       1.0  0.24080  0.83860  0.54048  1.0000
  C   C36       1.0  0.41140  0.99080  0.79048  1.0000
  C   C37       1.0  0.25920  0.83860  0.45952  1.0000
  C   C38       1.0  0.41140  0.00920  0.70952  1.0000
  C   C39       1.0  0.24080  0.16140  0.95952  1.0000
  C   C40       1.0  0.08860  0.99080  0.20952  1.0000
  C   C41       1.0  0.75920  0.66140  0.54048  1.0000
  C   C42       1.0  0.58860  0.50920  0.79048  1.0000
  C   C43       1.0  0.74080  0.33860  0.04048  1.0000
  C   C44       1.0  0.91140  0.49080  0.29048  1.0000
  C   C45       1.0  0.75920  0.33860  0.95952  1.0000
  C   C46       1.0  0.91140  0.50920  0.20952  1.0000
  C   C47       1.0  0.74080  0.66140  0.45952  1.0000
  C   C48       1.0  0.58860  0.49080  0.70952  1.0000
  C   C49       1.0  0.74080  0.83860  0.95952  1.0000
  C   C50       1.0  0.91140  0.99080  0.70952  1.0000
  C   C51       1.0  0.75920  0.16140  0.45952  1.0000
  C   C52       1.0  0.58860  0.00920  0.20952  1.0000
  C   C53       1.0  0.74080  0.16140  0.54048  1.0000
  C   C54       1.0  0.58860  0.99080  0.29048  1.0000
  C   C55       1.0  0.75920  0.83860  0.04048  1.0000
  C   C56       1.0  0.91140  0.00920  0.79048  1.0000
  C   C57       1.0  0.24080  0.33860  0.45952  1.0000
  C   C58       1.0  0.41140  0.49080  0.20952  1.0000
  C   C59       1.0  0.25920  0.66140  0.95952  1.0000
  C   C60       1.0  0.08860  0.50920  0.70952  1.0000
  C   C61       1.0  0.24080  0.66140  0.04048  1.0000
  C   C62       1.0  0.08860  0.49080  0.79048  1.0000
  C   C63       1.0  0.25920  0.33860  0.54048  1.0000
  C   C64       1.0  0.41140  0.50920  0.29048  1.0000
  H   H1        1.0  0.26680  0.11980  0.02770  1.0000
  H   H2        1.0  0.13020  0.01680  0.27770  1.0000
  H   H3        1.0  0.23320  0.88020  0.52770  1.0000
  H   H4        1.0  0.36980  0.98320  0.77770  1.0000
  H   H5        1.0  0.26680  0.88020  0.47230  1.0000
  H   H6        1.0  0.36980  0.01680  0.72230  1.0000
  H   H7        1.0  0.23320  0.11980  0.97230  1.0000
  H   H8        1.0  0.13020  0.98320  0.22230  1.0000
  H   H9        1.0  0.76680  0.61980  0.52770  1.0000
  H   H10       1.0  0.63020  0.51680  0.77770  1.0000
  H   H11       1.0  0.73320  0.38020  0.02770  1.0000
  H   H12       1.0  0.86980  0.48320  0.27770  1.0000
  H   H13       1.0  0.76680  0.38020  0.97230  1.0000
  H   H14       1.0  0.86980  0.51680  0.22230  1.0000
  H   H15       1.0  0.73320  0.61980  0.47230  1.0000
  H   H16       1.0  0.63020  0.48320  0.72230  1.0000
  H   H17       1.0  0.73320  0.88020  0.97230  1.0000
  H   H18       1.0  0.86980  0.98320  0.72230  1.0000
  H   H19       1.0  0.76680  0.11980  0.47230  1.0000
  H   H20       1.0  0.63020  0.01680  0.22230  1.0000
  H   H21       1.0  0.73320  0.11980  0.52770  1.0000
  H   H22       1.0  0.63020  0.98320  0.27770  1.0000
  H   H23       1.0  0.76680  0.88020  0.02770  1.0000
  H   H24       1.0  0.86980  0.01680  0.77770  1.0000
  H   H25       1.0  0.23320  0.38020  0.47230  1.0000
  H   H26       1.0  0.36980  0.48320  0.22230  1.0000
  H   H27       1.0  0.26680  0.61980  0.97230  1.0000
  H   H28       1.0  0.13020  0.51680  0.72230  1.0000
  H   H29       1.0  0.23320  0.61980  0.02770  1.0000
  H   H30       1.0  0.13020  0.48320  0.77770  1.0000
  H   H31       1.0  0.26680  0.38020  0.52770  1.0000
  H   H32       1.0  0.36980  0.51680  0.27770  1.0000
  C   C65       1.0  0.25850  0.16160  0.07858  1.0000
  C   C66       1.0  0.08840  0.00850  0.32858  1.0000
  C   C67       1.0  0.24150  0.83840  0.57858  1.0000
  C   C68       1.0  0.41160  0.99150  0.82858  1.0000
  C   C69       1.0  0.25850  0.83840  0.42142  1.0000
  C   C70       1.0  0.41160  0.00850  0.67142  1.0000
  C   C71       1.0  0.24150  0.16160  0.92142  1.0000
  C   C72       1.0  0.08840  0.99150  0.17142  1.0000
  C   C73       1.0  0.75850  0.66160  0.57858  1.0000
  C   C74       1.0  0.58840  0.50850  0.82858  1.0000
  C   C75       1.0  0.74150  0.33840  0.07858  1.0000
  C   C76       1.0  0.91160  0.49150  0.32858  1.0000
  C   C77       1.0  0.75850  0.33840  0.92142  1.0000
  C   C78       1.0  0.91160  0.50850  0.17142  1.0000
  C   C79       1.0  0.74150  0.66160  0.42142  1.0000
  C   C80       1.0  0.58840  0.49150  0.67142  1.0000
  C   C81       1.0  0.74150  0.83840  0.92142  1.0000
  C   C82       1.0  0.91160  0.99150  0.67142  1.0000
  C   C83       1.0  0.75850  0.16160  0.42142  1.0000
  C   C84       1.0  0.58840  0.00850  0.17142  1.0000
  C   C85       1.0  0.74150  0.16160  0.57858  1.0000
  C   C86       1.0  0.58840  0.99150  0.32858  1.0000
  C   C87       1.0  0.75850  0.83840  0.07858  1.0000
  C   C88       1.0  0.91160  0.00850  0.82858  1.0000
  C   C89       1.0  0.24150  0.33840  0.42142  1.0000
  C   C90       1.0  0.41160  0.49150  0.17142  1.0000
  C   C91       1.0  0.25850  0.66160  0.92142  1.0000
  C   C92       1.0  0.08840  0.50850  0.67142  1.0000
  C   C93       1.0  0.24150  0.66160  0.07858  1.0000
  C   C94       1.0  0.08840  0.49150  0.82858  1.0000
  C   C95       1.0  0.25850  0.33840  0.57858  1.0000
  C   C96       1.0  0.41160  0.50850  0.32858  1.0000
  C   C97       1.0  0.24810  0.22040  0.09825  1.0000
  C   C98       1.0  0.02960  0.99810  0.34825  1.0000
  C   C99       1.0  0.25190  0.77960  0.59825  1.0000
  C   C100      1.0  0.47040  0.00190  0.84825  1.0000
  C   C101      1.0  0.24810  0.77960  0.40175  1.0000
  C   C102      1.0  0.47040  0.99810  0.65175  1.0000
  C   C103      1.0  0.25190  0.22040  0.90175  1.0000
  C   C104      1.0  0.02960  0.00190  0.15175  1.0000
  C   C105      1.0  0.74810  0.72040  0.59825  1.0000
  C   C106      1.0  0.52960  0.49810  0.84825  1.0000
  C   C107      1.0  0.75190  0.27960  0.09825  1.0000
  C   C108      1.0  0.97040  0.50190  0.34825  1.0000
  C   C109      1.0  0.74810  0.27960  0.90175  1.0000
  C   C110      1.0  0.97040  0.49810  0.15175  1.0000
  C   C111      1.0  0.75190  0.72040  0.40175  1.0000
  C   C112      1.0  0.52960  0.50190  0.65175  1.0000
  C   C113      1.0  0.75190  0.77960  0.90175  1.0000
  C   C114      1.0  0.97040  0.00190  0.65175  1.0000
  C   C115      1.0  0.74810  0.22040  0.40175  1.0000
  C   C116      1.0  0.52960  0.99810  0.15175  1.0000
  C   C117      1.0  0.75190  0.22040  0.59825  1.0000
  C   C118      1.0  0.52960  0.00190  0.34825  1.0000
  C   C119      1.0  0.74810  0.77960  0.09825  1.0000
  C   C120      1.0  0.97040  0.99810  0.84825  1.0000
  C   C121      1.0  0.25190  0.27960  0.40175  1.0000
  C   C122      1.0  0.47040  0.50190  0.15175  1.0000
  C   C123      1.0  0.24810  0.72040  0.90175  1.0000
  C   C124      1.0  0.02960  0.49810  0.65175  1.0000
  C   C125      1.0  0.25190  0.72040  0.09825  1.0000
  C   C126      1.0  0.02960  0.50190  0.84825  1.0000
  C   C127      1.0  0.24810  0.27960  0.59825  1.0000
  C   C128      1.0  0.47040  0.49810  0.34825  1.0000
  H   H33       1.0  0.24810  0.21970  0.12450  1.0000
  H   H34       1.0  0.03030  0.99810  0.37450  1.0000
  H   H35       1.0  0.25190  0.78030  0.62450  1.0000
  H   H36       1.0  0.46970  0.00190  0.87450  1.0000
  H   H37       1.0  0.24810  0.78030  0.37550  1.0000
  H   H38       1.0  0.46970  0.99810  0.62550  1.0000
  H   H39       1.0  0.25190  0.21970  0.87550  1.0000
  H   H40       1.0  0.03030  0.00190  0.12550  1.0000
  H   H41       1.0  0.74810  0.71970  0.62450  1.0000
  H   H42       1.0  0.53030  0.49810  0.87450  1.0000
  H   H43       1.0  0.75190  0.28030  0.12450  1.0000
  H   H44       1.0  0.96970  0.50190  0.37450  1.0000
  H   H45       1.0  0.74810  0.28030  0.87550  1.0000
  H   H46       1.0  0.96970  0.49810  0.12550  1.0000
  H   H47       1.0  0.75190  0.71970  0.37550  1.0000
  H   H48       1.0  0.53030  0.50190  0.62550  1.0000
  H   H49       1.0  0.75190  0.78030  0.87550  1.0000
  H   H50       1.0  0.96970  0.00190  0.62550  1.0000
  H   H51       1.0  0.74810  0.21970  0.37550  1.0000
  H   H52       1.0  0.53030  0.99810  0.12550  1.0000
  H   H53       1.0  0.75190  0.21970  0.62450  1.0000
  H   H54       1.0  0.53030  0.00190  0.37450  1.0000
  H   H55       1.0  0.74810  0.78030  0.12450  1.0000
  H   H56       1.0  0.96970  0.99810  0.87450  1.0000
  H   H57       1.0  0.25190  0.28030  0.37550  1.0000
  H   H58       1.0  0.46970  0.50190  0.12550  1.0000
  H   H59       1.0  0.24810  0.71970  0.87550  1.0000
  H   H60       1.0  0.03030  0.49810  0.62550  1.0000
  H   H61       1.0  0.25190  0.71970  0.12450  1.0000
  H   H62       1.0  0.03030  0.50190  0.87450  1.0000
  H   H63       1.0  0.24810  0.28030  0.62450  1.0000
  H   H64       1.0  0.46970  0.49810  0.37450  1.0000
  C   C129      1.0  0.23740  0.28090  0.07936  1.0000
  C   C130      1.0  0.96910  0.98740  0.32936  1.0000
  C   C131      1.0  0.26260  0.71910  0.57936  1.0000
  C   C132      1.0  0.53090  0.01260  0.82936  1.0000
  C   C133      1.0  0.23740  0.71910  0.42064  1.0000
  C   C134      1.0  0.53090  0.98740  0.67064  1.0000
  C   C135      1.0  0.26260  0.28090  0.92064  1.0000
  C   C136      1.0  0.96910  0.01260  0.17064  1.0000
  C   C137      1.0  0.73740  0.78090  0.57936  1.0000
  C   C138      1.0  0.46910  0.48740  0.82936  1.0000
  C   C139      1.0  0.76260  0.21910  0.07936  1.0000
  C   C140      1.0  0.03090  0.51260  0.32936  1.0000
  C   C141      1.0  0.73740  0.21910  0.92064  1.0000
  C   C142      1.0  0.03090  0.48740  0.17064  1.0000
  C   C143      1.0  0.76260  0.78090  0.42064  1.0000
  C   C144      1.0  0.46910  0.51260  0.67064  1.0000
  C   C145      1.0  0.76260  0.71910  0.92064  1.0000
  C   C146      1.0  0.03090  0.01260  0.67064  1.0000
  C   C147      1.0  0.73740  0.28090  0.42064  1.0000
  C   C148      1.0  0.46910  0.98740  0.17064  1.0000
  C   C149      1.0  0.76260  0.28090  0.57936  1.0000
  C   C150      1.0  0.46910  0.01260  0.32936  1.0000
  C   C151      1.0  0.73740  0.71910  0.07936  1.0000
  C   C152      1.0  0.03090  0.98740  0.82936  1.0000
  C   C153      1.0  0.26260  0.21910  0.42064  1.0000
  C   C154      1.0  0.53090  0.51260  0.17064  1.0000
  C   C155      1.0  0.23740  0.78090  0.92064  1.0000
  C   C156      1.0  0.96910  0.48740  0.67064  1.0000
  C   C157      1.0  0.26260  0.78090  0.07936  1.0000
  C   C158      1.0  0.96910  0.51260  0.82936  1.0000
  C   C159      1.0  0.23740  0.21910  0.57936  1.0000
  C   C160      1.0  0.53090  0.48740  0.32936  1.0000
  C   C161      1.0  0.23820  0.28100  0.04050  1.0000
  C   C162      1.0  0.96900  0.98820  0.29050  1.0000
  C   C163      1.0  0.26180  0.71900  0.54050  1.0000
  C   C164      1.0  0.53100  0.01180  0.79050  1.0000
  C   C165      1.0  0.23820  0.71900  0.45950  1.0000
  C   C166      1.0  0.53100  0.98820  0.70950  1.0000
  C   C167      1.0  0.26180  0.28100  0.95950  1.0000
  C   C168      1.0  0.96900  0.01180  0.20950  1.0000
  C   C169      1.0  0.73820  0.78100  0.54050  1.0000
  C   C170      1.0  0.46900  0.48820  0.79050  1.0000
  C   C171      1.0  0.76180  0.21900  0.04050  1.0000
  C   C172      1.0  0.03100  0.51180  0.29050  1.0000
  C   C173      1.0  0.73820  0.21900  0.95950  1.0000
  C   C174      1.0  0.03100  0.48820  0.20950  1.0000
  C   C175      1.0  0.76180  0.78100  0.45950  1.0000
  C   C176      1.0  0.46900  0.51180  0.70950  1.0000
  C   C177      1.0  0.76180  0.71900  0.95950  1.0000
  C   C178      1.0  0.03100  0.01180  0.70950  1.0000
  C   C179      1.0  0.73820  0.28100  0.45950  1.0000
  C   C180      1.0  0.46900  0.98820  0.20950  1.0000
  C   C181      1.0  0.76180  0.28100  0.54050  1.0000
  C   C182      1.0  0.46900  0.01180  0.29050  1.0000
  C   C183      1.0  0.73820  0.71900  0.04050  1.0000
  C   C184      1.0  0.03100  0.98820  0.79050  1.0000
  C   C185      1.0  0.26180  0.21900  0.45950  1.0000
  C   C186      1.0  0.53100  0.51180  0.20950  1.0000
  C   C187      1.0  0.23820  0.78100  0.95950  1.0000
  C   C188      1.0  0.96900  0.48820  0.70950  1.0000
  C   C189      1.0  0.26180  0.78100  0.04050  1.0000
  C   C190      1.0  0.96900  0.51180  0.79050  1.0000
  C   C191      1.0  0.23820  0.21900  0.54050  1.0000
  C   C192      1.0  0.53100  0.48820  0.29050  1.0000
  H   H65       1.0  0.23120  0.32260  0.02760  1.0000
  H   H66       1.0  0.92740  0.98120  0.27760  1.0000
  H   H67       1.0  0.26880  0.67740  0.52760  1.0000
  H   H68       1.0  0.57260  0.01880  0.77760  1.0000
  H   H69       1.0  0.23120  0.67740  0.47240  1.0000
  H   H70       1.0  0.57260  0.98120  0.72240  1.0000
  H   H71       1.0  0.26880  0.32260  0.97240  1.0000
  H   H72       1.0  0.92740  0.01880  0.22240  1.0000
  H   H73       1.0  0.73120  0.82260  0.52760  1.0000
  H   H74       1.0  0.42740  0.48120  0.77760  1.0000
  H   H75       1.0  0.76880  0.17740  0.02760  1.0000
  H   H76       1.0  0.07260  0.51880  0.27760  1.0000
  H   H77       1.0  0.73120  0.17740  0.97240  1.0000
  H   H78       1.0  0.07260  0.48120  0.22240  1.0000
  H   H79       1.0  0.76880  0.82260  0.47240  1.0000
  H   H80       1.0  0.42740  0.51880  0.72240  1.0000
  H   H81       1.0  0.76880  0.67740  0.97240  1.0000
  H   H82       1.0  0.07260  0.01880  0.72240  1.0000
  H   H83       1.0  0.73120  0.32260  0.47240  1.0000
  H   H84       1.0  0.42740  0.98120  0.22240  1.0000
  H   H85       1.0  0.76880  0.32260  0.52760  1.0000
  H   H86       1.0  0.42740  0.01880  0.27760  1.0000
  H   H87       1.0  0.73120  0.67740  0.02760  1.0000
  H   H88       1.0  0.07260  0.98120  0.77760  1.0000
  H   H89       1.0  0.26880  0.17740  0.47240  1.0000
  H   H90       1.0  0.57260  0.51880  0.22240  1.0000
  H   H91       1.0  0.23120  0.82260  0.97240  1.0000
  H   H92       1.0  0.92740  0.48120  0.72240  1.0000
  H   H93       1.0  0.26880  0.82260  0.02760  1.0000
  H   H94       1.0  0.92740  0.51880  0.77760  1.0000
  H   H95       1.0  0.23120  0.17740  0.52760  1.0000
  H   H96       1.0  0.57260  0.48120  0.27760  1.0000
  C   C193      1.0  0.22960  0.34680  0.09860  1.0000
  C   C194      1.0  0.90320  0.97960  0.34860  1.0000
  C   C195      1.0  0.27040  0.65320  0.59860  1.0000
  C   C196      1.0  0.59680  0.02040  0.84860  1.0000
  C   C197      1.0  0.22960  0.65320  0.40140  1.0000
  C   C198      1.0  0.59680  0.97960  0.65140  1.0000
  C   C199      1.0  0.27040  0.34680  0.90140  1.0000
  C   C200      1.0  0.90320  0.02040  0.15140  1.0000
  C   C201      1.0  0.72960  0.84680  0.59860  1.0000
  C   C202      1.0  0.40320  0.47960  0.84860  1.0000
  C   C203      1.0  0.77040  0.15320  0.09860  1.0000
  C   C204      1.0  0.09680  0.52040  0.34860  1.0000
  C   C205      1.0  0.72960  0.15320  0.90140  1.0000
  C   C206      1.0  0.09680  0.47960  0.15140  1.0000
  C   C207      1.0  0.77040  0.84680  0.40140  1.0000
  C   C208      1.0  0.40320  0.52040  0.65140  1.0000
  C   C209      1.0  0.77040  0.65320  0.90140  1.0000
  C   C210      1.0  0.09680  0.02040  0.65140  1.0000
  C   C211      1.0  0.72960  0.34680  0.40140  1.0000
  C   C212      1.0  0.40320  0.97960  0.15140  1.0000
  C   C213      1.0  0.77040  0.34680  0.59860  1.0000
  C   C214      1.0  0.40320  0.02040  0.34860  1.0000
  C   C215      1.0  0.72960  0.65320  0.09860  1.0000
  C   C216      1.0  0.09680  0.97960  0.84860  1.0000
  C   C217      1.0  0.27040  0.15320  0.40140  1.0000
  C   C218      1.0  0.59680  0.52040  0.15140  1.0000
  C   C219      1.0  0.22960  0.84680  0.90140  1.0000
  C   C220      1.0  0.90320  0.47960  0.65140  1.0000
  C   C221      1.0  0.27040  0.84680  0.09860  1.0000
  C   C222      1.0  0.90320  0.52040  0.84860  1.0000
  C   C223      1.0  0.22960  0.15320  0.59860  1.0000
  C   C224      1.0  0.59680  0.47960  0.34860  1.0000
  C   C225      1.0  0.27010  0.09490  0.09757  1.0000
  C   C226      1.0  0.15510  0.02010  0.34757  1.0000
  C   C227      1.0  0.22990  0.90510  0.59757  1.0000
  C   C228      1.0  0.34490  0.97990  0.84757  1.0000
  C   C229      1.0  0.27010  0.90510  0.40243  1.0000
  C   C230      1.0  0.34490  0.02010  0.65243  1.0000
  C   C231      1.0  0.22990  0.09490  0.90243  1.0000
  C   C232      1.0  0.15510  0.97990  0.15243  1.0000
  C   C233      1.0  0.77010  0.59490  0.59757  1.0000
  C   C234      1.0  0.65510  0.52010  0.84757  1.0000
  C   C235      1.0  0.72990  0.40510  0.09757  1.0000
  C   C236      1.0  0.84490  0.47990  0.34757  1.0000
  C   C237      1.0  0.77010  0.40510  0.90243  1.0000
  C   C238      1.0  0.84490  0.52010  0.15243  1.0000
  C   C239      1.0  0.72990  0.59490  0.40243  1.0000
  C   C240      1.0  0.65510  0.47990  0.65243  1.0000
  C   C241      1.0  0.72990  0.90510  0.90243  1.0000
  C   C242      1.0  0.84490  0.97990  0.65243  1.0000
  C   C243      1.0  0.77010  0.09490  0.40243  1.0000
  C   C244      1.0  0.65510  0.02010  0.15243  1.0000
  C   C245      1.0  0.72990  0.09490  0.59757  1.0000
  C   C246      1.0  0.65510  0.97990  0.34757  1.0000
  C   C247      1.0  0.77010  0.90510  0.09757  1.0000
  C   C248      1.0  0.84490  0.02010  0.84757  1.0000
  C   C249      1.0  0.22990  0.40510  0.40243  1.0000
  C   C250      1.0  0.34490  0.47990  0.15243  1.0000
  C   C251      1.0  0.27010  0.59490  0.90243  1.0000
  C   C252      1.0  0.15510  0.52010  0.65243  1.0000
  C   C253      1.0  0.22990  0.59490  0.09757  1.0000
  C   C254      1.0  0.15510  0.47990  0.84757  1.0000
  C   C255      1.0  0.27010  0.40510  0.59757  1.0000
  C   C256      1.0  0.34490  0.52010  0.34757  1.0000
