data_image0
_chemical_formula_structural       Cd24C32H8C8H8C8H8C32H8C16H8C16H8C40H8C8H8C8H8C40H8C16H8C16H8C16O16H16O112H8O24
_chemical_formula_sum              "Cd24 C256 H120 O152"
_cell_length_a       21.9035
_cell_length_b       14.5496
_cell_length_c       27.9653
_cell_angle_alpha    90
_cell_angle_beta     90
_cell_angle_gamma    90

_space_group_name_H-M_alt    "P 1"
_space_group_IT_number       1

loop_
  _space_group_symop_operation_xyz
  'x, y, z'

loop_
  _atom_site_type_symbol
  _atom_site_label
  _atom_site_symmetry_multiplicity
  _atom_site_fract_x
  _atom_site_fract_y
  _atom_site_fract_z
  _atom_site_occupancy
  Cd  Cd1       1.0  0.05904  0.33788  0.97440  1.0000
  Cd  Cd2       1.0  0.44096  0.66212  0.47440  1.0000
  Cd  Cd3       1.0  0.94096  0.83788  0.52560  1.0000
  Cd  Cd4       1.0  0.55904  0.16212  0.02560  1.0000
  Cd  Cd5       1.0  0.94096  0.66212  0.02560  1.0000
  Cd  Cd6       1.0  0.55904  0.33788  0.52560  1.0000
  Cd  Cd7       1.0  0.05904  0.16212  0.47440  1.0000
  Cd  Cd8       1.0  0.44096  0.83788  0.97440  1.0000
  Cd  Cd9       1.0  0.93467  0.22070  0.78034  1.0000
  Cd  Cd10      1.0  0.56533  0.77930  0.28034  1.0000
  Cd  Cd11      1.0  0.06533  0.72070  0.71966  1.0000
  Cd  Cd12      1.0  0.43467  0.27930  0.21966  1.0000
  Cd  Cd13      1.0  0.06533  0.77930  0.21966  1.0000
  Cd  Cd14      1.0  0.43467  0.22070  0.71966  1.0000
  Cd  Cd15      1.0  0.93467  0.27930  0.28034  1.0000
  Cd  Cd16      1.0  0.56533  0.72070  0.78034  1.0000
  Cd  Cd17      1.0  0.00214  0.18173  0.88879  1.0000
  Cd  Cd18      1.0  0.49786  0.81827  0.38879  1.0000
  Cd  Cd19      1.0  0.99786  0.68173  0.61121  1.0000
  Cd  Cd20      1.0  0.50214  0.31827  0.11121  1.0000
  Cd  Cd21      1.0  0.99786  0.81827  0.11121  1.0000
  Cd  Cd22      1.0  0.50214  0.18173  0.61121  1.0000
  Cd  Cd23      1.0  0.00214  0.31827  0.38879  1.0000
  Cd  Cd24      1.0  0.49786  0.68173  0.88879  1.0000
  C   C1        1.0  0.15990  0.28600  0.84670  1.0000
  C   C2        1.0  0.34010  0.71400  0.34670  1.0000
  C   C3        1.0  0.84010  0.78600  0.65330  1.0000
  C   C4        1.0  0.65990  0.21400  0.15330  1.0000
  C   C5        1.0  0.84010  0.71400  0.15330  1.0000
  C   C6        1.0  0.65990  0.28600  0.65330  1.0000
  C   C7        1.0  0.15990  0.21400  0.34670  1.0000
  C   C8        1.0  0.34010  0.78600  0.84670  1.0000
  C   C9        1.0  0.12820  0.26610  0.80450  1.0000
  C   C10       1.0  0.37180  0.73390  0.30450  1.0000
  C   C11       1.0  0.87180  0.76610  0.69550  1.0000
  C   C12       1.0  0.62820  0.23390  0.19550  1.0000
  C   C13       1.0  0.87180  0.73390  0.19550  1.0000
  C   C14       1.0  0.62820  0.26610  0.69550  1.0000
  C   C15       1.0  0.12820  0.23390  0.30450  1.0000
  C   C16       1.0  0.37180  0.76610  0.80450  1.0000
  C   C17       1.0  0.16080  0.25710  0.76260  1.0000
  C   C18       1.0  0.33920  0.74290  0.26260  1.0000
  C   C19       1.0  0.83920  0.75710  0.73740  1.0000
  C   C20       1.0  0.66080  0.24290  0.23740  1.0000
  C   C21       1.0  0.83920  0.74290  0.23740  1.0000
  C   C22       1.0  0.66080  0.25710  0.73740  1.0000
  C   C23       1.0  0.16080  0.24290  0.26260  1.0000
  C   C24       1.0  0.33920  0.75710  0.76260  1.0000
  C   C25       1.0  0.22350  0.26830  0.76070  1.0000
  C   C26       1.0  0.27650  0.73170  0.26070  1.0000
  C   C27       1.0  0.77650  0.76830  0.73930  1.0000
  C   C28       1.0  0.72350  0.23170  0.23930  1.0000
  C   C29       1.0  0.77650  0.73170  0.23930  1.0000
  C   C30       1.0  0.72350  0.26830  0.73930  1.0000
  C   C31       1.0  0.22350  0.23170  0.26070  1.0000
  C   C32       1.0  0.27650  0.76830  0.76070  1.0000
  H   H1        1.0  0.24450  0.26200  0.73200  1.0000
  H   H2        1.0  0.25550  0.73800  0.23200  1.0000
  H   H3        1.0  0.75550  0.76200  0.76800  1.0000
  H   H4        1.0  0.74450  0.23800  0.26800  1.0000
  H   H5        1.0  0.75550  0.73800  0.26800  1.0000
  H   H6        1.0  0.74450  0.26200  0.76800  1.0000
  H   H7        1.0  0.24450  0.23800  0.23200  1.0000
  H   H8        1.0  0.25550  0.76200  0.73200  1.0000
  C   C33       1.0  0.25420  0.28950  0.80310  1.0000
  C   C34       1.0  0.24580  0.71050  0.30310  1.0000
  C   C35       1.0  0.74580  0.78950  0.69690  1.0000
  C   C36       1.0  0.75420  0.21050  0.19690  1.0000
  C   C37       1.0  0.74580  0.71050  0.19690  1.0000
  C   C38       1.0  0.75420  0.28950  0.69690  1.0000
  C   C39       1.0  0.25420  0.21050  0.30310  1.0000
  C   C40       1.0  0.24580  0.78950  0.80310  1.0000
  H   H9        1.0  0.29620  0.29930  0.80260  1.0000
  H   H10       1.0  0.20380  0.70070  0.30260  1.0000
  H   H11       1.0  0.70380  0.79930  0.69740  1.0000
  H   H12       1.0  0.79620  0.20070  0.19740  1.0000
  H   H13       1.0  0.70380  0.70070  0.19740  1.0000
  H   H14       1.0  0.79620  0.29930  0.69740  1.0000
  H   H15       1.0  0.29620  0.20070  0.30260  1.0000
  H   H16       1.0  0.20380  0.79930  0.80260  1.0000
  C   C41       1.0  0.22280  0.29610  0.84580  1.0000
  C   C42       1.0  0.27720  0.70390  0.34580  1.0000
  C   C43       1.0  0.77720  0.79610  0.65420  1.0000
  C   C44       1.0  0.72280  0.20390  0.15420  1.0000
  C   C45       1.0  0.77720  0.70390  0.15420  1.0000
  C   C46       1.0  0.72280  0.29610  0.65420  1.0000
  C   C47       1.0  0.22280  0.20390  0.34580  1.0000
  C   C48       1.0  0.27720  0.79610  0.84580  1.0000
  H   H17       1.0  0.24390  0.30730  0.87400  1.0000
  H   H18       1.0  0.25610  0.69270  0.37400  1.0000
  H   H19       1.0  0.75610  0.80730  0.62600  1.0000
  H   H20       1.0  0.74390  0.19270  0.12600  1.0000
  H   H21       1.0  0.75610  0.69270  0.12600  1.0000
  H   H22       1.0  0.74390  0.30730  0.62600  1.0000
  H   H23       1.0  0.24390  0.19270  0.37400  1.0000
  H   H24       1.0  0.25610  0.80730  0.87400  1.0000
  C   C49       1.0  0.12790  0.29810  0.89350  1.0000
  C   C50       1.0  0.37210  0.70190  0.39350  1.0000
  C   C51       1.0  0.87210  0.79810  0.60650  1.0000
  C   C52       1.0  0.62790  0.20190  0.10650  1.0000
  C   C53       1.0  0.87210  0.70190  0.10650  1.0000
  C   C54       1.0  0.62790  0.29810  0.60650  1.0000
  C   C55       1.0  0.12790  0.20190  0.39350  1.0000
  C   C56       1.0  0.37210  0.79810  0.89350  1.0000
  C   C57       1.0  0.06050  0.25570  0.80040  1.0000
  C   C58       1.0  0.43950  0.74430  0.30040  1.0000
  C   C59       1.0  0.93950  0.75570  0.69960  1.0000
  C   C60       1.0  0.56050  0.24430  0.19960  1.0000
  C   C61       1.0  0.93950  0.74430  0.19960  1.0000
  C   C62       1.0  0.56050  0.25570  0.69960  1.0000
  C   C63       1.0  0.06050  0.24430  0.30040  1.0000
  C   C64       1.0  0.43950  0.75570  0.80040  1.0000
  C   C65       1.0  0.11420  0.28590  0.68612  1.0000
  C   C66       1.0  0.38580  0.71410  0.18612  1.0000
  C   C67       1.0  0.88580  0.78590  0.81388  1.0000
  C   C68       1.0  0.61420  0.21410  0.31388  1.0000
  C   C69       1.0  0.88580  0.71410  0.31388  1.0000
  C   C70       1.0  0.61420  0.28590  0.81388  1.0000
  C   C71       1.0  0.11420  0.21410  0.18612  1.0000
  C   C72       1.0  0.38580  0.78590  0.68612  1.0000
  C   C73       1.0  0.10340  0.24600  0.64209  1.0000
  C   C74       1.0  0.39660  0.75400  0.14209  1.0000
  C   C75       1.0  0.89660  0.74600  0.85791  1.0000
  C   C76       1.0  0.60340  0.25400  0.35791  1.0000
  C   C77       1.0  0.89660  0.75400  0.35791  1.0000
  C   C78       1.0  0.60340  0.24600  0.85791  1.0000
  C   C79       1.0  0.10340  0.25400  0.14209  1.0000
  C   C80       1.0  0.39660  0.74600  0.64209  1.0000
  H   H25       1.0  0.10780  0.18300  0.63780  1.0000
  H   H26       1.0  0.39220  0.81700  0.13780  1.0000
  H   H27       1.0  0.89220  0.68300  0.86220  1.0000
  H   H28       1.0  0.60780  0.31700  0.36220  1.0000
  H   H29       1.0  0.89220  0.81700  0.36220  1.0000
  H   H30       1.0  0.60780  0.18300  0.86220  1.0000
  H   H31       1.0  0.10780  0.31700  0.13780  1.0000
  H   H32       1.0  0.39220  0.68300  0.63780  1.0000
  C   C81       1.0  0.08560  0.30210  0.60440  1.0000
  C   C82       1.0  0.41440  0.69790  0.10440  1.0000
  C   C83       1.0  0.91440  0.80210  0.89560  1.0000
  C   C84       1.0  0.58560  0.19790  0.39560  1.0000
  C   C85       1.0  0.91440  0.69790  0.39560  1.0000
  C   C86       1.0  0.58560  0.30210  0.89560  1.0000
  C   C87       1.0  0.08560  0.19790  0.10440  1.0000
  C   C88       1.0  0.41440  0.80210  0.60440  1.0000
  C   C89       1.0  0.07780  0.39360  0.61160  1.0000
  C   C90       1.0  0.42220  0.60640  0.11160  1.0000
  C   C91       1.0  0.92220  0.89360  0.88840  1.0000
  C   C92       1.0  0.57780  0.10640  0.38840  1.0000
  C   C93       1.0  0.92220  0.60640  0.38840  1.0000
  C   C94       1.0  0.57780  0.39360  0.88840  1.0000
  C   C95       1.0  0.07780  0.10640  0.11160  1.0000
  C   C96       1.0  0.42220  0.89360  0.61160  1.0000
  H   H33       1.0  0.06560  0.43070  0.58620  1.0000
  H   H34       1.0  0.43440  0.56930  0.08620  1.0000
  H   H35       1.0  0.93440  0.93070  0.91380  1.0000
  H   H36       1.0  0.56560  0.06930  0.41380  1.0000
  H   H37       1.0  0.93440  0.56930  0.41380  1.0000
  H   H38       1.0  0.56560  0.43070  0.91380  1.0000
  H   H39       1.0  0.06560  0.06930  0.08620  1.0000
  H   H40       1.0  0.43440  0.93070  0.58620  1.0000
  C   C97       1.0  0.08760  0.43270  0.65624  1.0000
  C   C98       1.0  0.41240  0.56730  0.15624  1.0000
  C   C99       1.0  0.91240  0.93270  0.84376  1.0000
  C   C100      1.0  0.58760  0.06730  0.34376  1.0000
  C   C101      1.0  0.91240  0.56730  0.34376  1.0000
  C   C102      1.0  0.58760  0.43270  0.84376  1.0000
  C   C103      1.0  0.08760  0.06730  0.15624  1.0000
  C   C104      1.0  0.41240  0.93270  0.65624  1.0000
  C   C105      1.0  0.10640  0.37760  0.69385  1.0000
  C   C106      1.0  0.39360  0.62240  0.19385  1.0000
  C   C107      1.0  0.89360  0.87760  0.80615  1.0000
  C   C108      1.0  0.60640  0.12240  0.30615  1.0000
  C   C109      1.0  0.89360  0.62240  0.30615  1.0000
  C   C110      1.0  0.60640  0.37760  0.80615  1.0000
  C   C111      1.0  0.10640  0.12240  0.19385  1.0000
  C   C112      1.0  0.39360  0.87760  0.69385  1.0000
  H   H41       1.0  0.11360  0.40280  0.72390  1.0000
  H   H42       1.0  0.38640  0.59720  0.22390  1.0000
  H   H43       1.0  0.88640  0.90280  0.77610  1.0000
  H   H44       1.0  0.61360  0.09720  0.27610  1.0000
  H   H45       1.0  0.88640  0.59720  0.27610  1.0000
  H   H46       1.0  0.61360  0.40280  0.77610  1.0000
  H   H47       1.0  0.11360  0.09720  0.22390  1.0000
  H   H48       1.0  0.38640  0.90280  0.72390  1.0000
  C   C113      1.0  0.07590  0.25860  0.55640  1.0000
  C   C114      1.0  0.42410  0.74140  0.05640  1.0000
  C   C115      1.0  0.92410  0.75860  0.94360  1.0000
  C   C116      1.0  0.57590  0.24140  0.44360  1.0000
  C   C117      1.0  0.92410  0.74140  0.44360  1.0000
  C   C118      1.0  0.57590  0.25860  0.94360  1.0000
  C   C119      1.0  0.07590  0.24140  0.05640  1.0000
  C   C120      1.0  0.42410  0.75860  0.55640  1.0000
  C   C121      1.0  0.07850  0.53480  0.66290  1.0000
  C   C122      1.0  0.42150  0.46520  0.16290  1.0000
  C   C123      1.0  0.92150  0.03480  0.83710  1.0000
  C   C124      1.0  0.57850  0.96520  0.33710  1.0000
  C   C125      1.0  0.92150  0.46520  0.33710  1.0000
  C   C126      1.0  0.57850  0.53480  0.83710  1.0000
  C   C127      1.0  0.07850  0.96520  0.16290  1.0000
  C   C128      1.0  0.42150  0.03480  0.66290  1.0000
  C   C129      1.0  0.86700  0.29410  0.95010  1.0000
  C   C130      1.0  0.63300  0.70590  0.45010  1.0000
  C   C131      1.0  0.13300  0.79410  0.54990  1.0000
  C   C132      1.0  0.36700  0.20590  0.04990  1.0000
  C   C133      1.0  0.13300  0.70590  0.04990  1.0000
  C   C134      1.0  0.36700  0.29410  0.54990  1.0000
  C   C135      1.0  0.86700  0.20590  0.45010  1.0000
  C   C136      1.0  0.63300  0.79410  0.95010  1.0000
  C   C137      1.0  0.83750  0.28200  0.90580  1.0000
  C   C138      1.0  0.66250  0.71800  0.40580  1.0000
  C   C139      1.0  0.16250  0.78200  0.59420  1.0000
  C   C140      1.0  0.33750  0.21800  0.09420  1.0000
  C   C141      1.0  0.16250  0.71800  0.09420  1.0000
  C   C142      1.0  0.33750  0.28200  0.59420  1.0000
  C   C143      1.0  0.83750  0.21800  0.40580  1.0000
  C   C144      1.0  0.66250  0.78200  0.90580  1.0000
  C   C145      1.0  0.77480  0.27300  0.90480  1.0000
  C   C146      1.0  0.72520  0.72700  0.40480  1.0000
  C   C147      1.0  0.22520  0.77300  0.59520  1.0000
  C   C148      1.0  0.27480  0.22700  0.09520  1.0000
  C   C149      1.0  0.22520  0.72700  0.09520  1.0000
  C   C150      1.0  0.27480  0.27300  0.59520  1.0000
  C   C151      1.0  0.77480  0.22700  0.40480  1.0000
  C   C152      1.0  0.72520  0.77300  0.90480  1.0000
  H   H49       1.0  0.75480  0.26850  0.87560  1.0000
  H   H50       1.0  0.74520  0.73150  0.37560  1.0000
  H   H51       1.0  0.24520  0.76850  0.62440  1.0000
  H   H52       1.0  0.25480  0.23150  0.12440  1.0000
  H   H53       1.0  0.24520  0.73150  0.12440  1.0000
  H   H54       1.0  0.25480  0.26850  0.62440  1.0000
  H   H55       1.0  0.75480  0.23150  0.37560  1.0000
  H   H56       1.0  0.74520  0.76850  0.87560  1.0000
  C   C153      1.0  0.74120  0.27080  0.94650  1.0000
  C   C154      1.0  0.75880  0.72920  0.44650  1.0000
  C   C155      1.0  0.25880  0.77080  0.55350  1.0000
  C   C156      1.0  0.24120  0.22920  0.05350  1.0000
  C   C157      1.0  0.25880  0.72920  0.05350  1.0000
  C   C158      1.0  0.24120  0.27080  0.55350  1.0000
  C   C159      1.0  0.74120  0.22920  0.44650  1.0000
  C   C160      1.0  0.75880  0.77080  0.94650  1.0000
  H   H57       1.0  0.69900  0.26410  0.94530  1.0000
  H   H58       1.0  0.80100  0.73590  0.44530  1.0000
  H   H59       1.0  0.30100  0.76410  0.55470  1.0000
  H   H60       1.0  0.19900  0.23590  0.05470  1.0000
  H   H61       1.0  0.30100  0.73590  0.05470  1.0000
  H   H62       1.0  0.19900  0.26410  0.55470  1.0000
  H   H63       1.0  0.69900  0.23590  0.44530  1.0000
  H   H64       1.0  0.80100  0.76410  0.94530  1.0000
  C   C161      1.0  0.77020  0.27840  0.99020  1.0000
  C   C162      1.0  0.72980  0.72160  0.49020  1.0000
  C   C163      1.0  0.22980  0.77840  0.50980  1.0000
  C   C164      1.0  0.27020  0.22160  0.00980  1.0000
  C   C165      1.0  0.22980  0.72160  0.00980  1.0000
  C   C166      1.0  0.27020  0.27840  0.50980  1.0000
  C   C167      1.0  0.77020  0.22160  0.49020  1.0000
  C   C168      1.0  0.72980  0.77840  0.99020  1.0000
  H   H65       1.0  0.74780  0.27520  0.01850  1.0000
  H   H66       1.0  0.75220  0.72480  0.51850  1.0000
  H   H67       1.0  0.25220  0.77520  0.48150  1.0000
  H   H68       1.0  0.24780  0.22480  0.98150  1.0000
  H   H69       1.0  0.25220  0.72480  0.98150  1.0000
  H   H70       1.0  0.24780  0.27520  0.48150  1.0000
  H   H71       1.0  0.74780  0.22480  0.51850  1.0000
  H   H72       1.0  0.75220  0.77520  0.01850  1.0000
  C   C169      1.0  0.83090  0.29040  0.99160  1.0000
  C   C170      1.0  0.66910  0.70960  0.49160  1.0000
  C   C171      1.0  0.16910  0.79040  0.50840  1.0000
  C   C172      1.0  0.33090  0.20960  0.00840  1.0000
  C   C173      1.0  0.16910  0.70960  0.00840  1.0000
  C   C174      1.0  0.33090  0.29040  0.50840  1.0000
  C   C175      1.0  0.83090  0.20960  0.49160  1.0000
  C   C176      1.0  0.66910  0.79040  0.99160  1.0000
  C   C177      1.0  0.93510  0.30900  0.95780  1.0000
  C   C178      1.0  0.56490  0.69100  0.45780  1.0000
  C   C179      1.0  0.06490  0.80900  0.54220  1.0000
  C   C180      1.0  0.43510  0.19100  0.04220  1.0000
  C   C181      1.0  0.06490  0.69100  0.04220  1.0000
  C   C182      1.0  0.43510  0.30900  0.54220  1.0000
  C   C183      1.0  0.93510  0.19100  0.45780  1.0000
  C   C184      1.0  0.56490  0.80900  0.95780  1.0000
  C   C185      1.0  0.87280  0.27690  0.86000  1.0000
  C   C186      1.0  0.62720  0.72310  0.36000  1.0000
  C   C187      1.0  0.12720  0.77690  0.64000  1.0000
  C   C188      1.0  0.37280  0.22310  0.14000  1.0000
  C   C189      1.0  0.12720  0.72310  0.14000  1.0000
  C   C190      1.0  0.37280  0.27690  0.64000  1.0000
  C   C191      1.0  0.87280  0.22310  0.36000  1.0000
  C   C192      1.0  0.62720  0.77690  0.86000  1.0000
  C   C193      1.0  0.88000  0.23500  0.06190  1.0000
  C   C194      1.0  0.62000  0.76500  0.56190  1.0000
  C   C195      1.0  0.12000  0.73500  0.43810  1.0000
  C   C196      1.0  0.38000  0.26500  0.93810  1.0000
  C   C197      1.0  0.12000  0.76500  0.93810  1.0000
  C   C198      1.0  0.38000  0.23500  0.43810  1.0000
  C   C199      1.0  0.88000  0.26500  0.56190  1.0000
  C   C200      1.0  0.62000  0.73500  0.06190  1.0000
  C   C201      1.0  0.89260  0.25470  0.10910  1.0000
  C   C202      1.0  0.60740  0.74530  0.60910  1.0000
  C   C203      1.0  0.10740  0.75470  0.39090  1.0000
  C   C204      1.0  0.39260  0.24530  0.89090  1.0000
  C   C205      1.0  0.10740  0.74530  0.89090  1.0000
  C   C206      1.0  0.39260  0.25470  0.39090  1.0000
  C   C207      1.0  0.89260  0.24530  0.60910  1.0000
  C   C208      1.0  0.60740  0.75470  0.10910  1.0000
  H   H73       1.0  0.88880  0.31460  0.12050  1.0000
  H   H74       1.0  0.61120  0.68540  0.62050  1.0000
  H   H75       1.0  0.11120  0.81460  0.37950  1.0000
  H   H76       1.0  0.38880  0.18540  0.87950  1.0000
  H   H77       1.0  0.11120  0.68540  0.87950  1.0000
  H   H78       1.0  0.38880  0.31460  0.37950  1.0000
  H   H79       1.0  0.88880  0.18540  0.62050  1.0000
  H   H80       1.0  0.61120  0.81460  0.12050  1.0000
  C   C209      1.0  0.91100  0.18480  0.13970  1.0000
  C   C210      1.0  0.58900  0.81520  0.63970  1.0000
  C   C211      1.0  0.08900  0.68480  0.36030  1.0000
  C   C212      1.0  0.41100  0.31520  0.86030  1.0000
  C   C213      1.0  0.08900  0.81520  0.86030  1.0000
  C   C214      1.0  0.41100  0.18480  0.36030  1.0000
  C   C215      1.0  0.91100  0.31520  0.63970  1.0000
  C   C216      1.0  0.58900  0.68480  0.13970  1.0000
  C   C217      1.0  0.91760  0.09630  0.12250  1.0000
  C   C218      1.0  0.58240  0.90370  0.62250  1.0000
  C   C219      1.0  0.08240  0.59630  0.37750  1.0000
  C   C220      1.0  0.41760  0.40370  0.87750  1.0000
  C   C221      1.0  0.08240  0.90370  0.87750  1.0000
  C   C222      1.0  0.41760  0.09630  0.37750  1.0000
  C   C223      1.0  0.91760  0.40370  0.62250  1.0000
  C   C224      1.0  0.58240  0.59630  0.12250  1.0000
  H   H81       1.0  0.92880  0.04910  0.14310  1.0000
  H   H82       1.0  0.57120  0.95090  0.64310  1.0000
  H   H83       1.0  0.07120  0.54910  0.35690  1.0000
  H   H84       1.0  0.42880  0.45090  0.85690  1.0000
  H   H85       1.0  0.07120  0.95090  0.85690  1.0000
  H   H86       1.0  0.42880  0.04910  0.35690  1.0000
  H   H87       1.0  0.92880  0.45090  0.64310  1.0000
  H   H88       1.0  0.57120  0.54910  0.14310  1.0000
  C   C225      1.0  0.90760  0.07800  0.07440  1.0000
  C   C226      1.0  0.59240  0.92200  0.57440  1.0000
  C   C227      1.0  0.09240  0.57800  0.42560  1.0000
  C   C228      1.0  0.40760  0.42200  0.92560  1.0000
  C   C229      1.0  0.09240  0.92200  0.92560  1.0000
  C   C230      1.0  0.40760  0.07800  0.42560  1.0000
  C   C231      1.0  0.90760  0.42200  0.57440  1.0000
  C   C232      1.0  0.59240  0.57800  0.07440  1.0000
  C   C233      1.0  0.88730  0.14730  0.04376  1.0000
  C   C234      1.0  0.61270  0.85270  0.54376  1.0000
  C   C235      1.0  0.11270  0.64730  0.45624  1.0000
  C   C236      1.0  0.38730  0.35270  0.95624  1.0000
  C   C237      1.0  0.11270  0.85270  0.95624  1.0000
  C   C238      1.0  0.38730  0.14730  0.45624  1.0000
  C   C239      1.0  0.88730  0.35270  0.54376  1.0000
  C   C240      1.0  0.61270  0.64730  0.04376  1.0000
  H   H89       1.0  0.87890  0.13480  0.01180  1.0000
  H   H90       1.0  0.62110  0.86520  0.51180  1.0000
  H   H91       1.0  0.12110  0.63480  0.48820  1.0000
  H   H92       1.0  0.37890  0.36520  0.98820  1.0000
  H   H93       1.0  0.12110  0.86520  0.98820  1.0000
  H   H94       1.0  0.37890  0.13480  0.48820  1.0000
  H   H95       1.0  0.87890  0.36520  0.51180  1.0000
  H   H96       1.0  0.62110  0.63480  0.01180  1.0000
  C   C241      1.0  0.91930  0.20800  0.19190  1.0000
  C   C242      1.0  0.58070  0.79200  0.69190  1.0000
  C   C243      1.0  0.08070  0.70800  0.30810  1.0000
  C   C244      1.0  0.41930  0.29200  0.80810  1.0000
  C   C245      1.0  0.08070  0.79200  0.80810  1.0000
  C   C246      1.0  0.41930  0.20800  0.30810  1.0000
  C   C247      1.0  0.91930  0.29200  0.69190  1.0000
  C   C248      1.0  0.58070  0.70800  0.19190  1.0000
  C   C249      1.0  0.91620  0.98250  0.05650  1.0000
  C   C250      1.0  0.58380  0.01750  0.55650  1.0000
  C   C251      1.0  0.08380  0.48250  0.44350  1.0000
  C   C252      1.0  0.41620  0.51750  0.94350  1.0000
  C   C253      1.0  0.08380  0.01750  0.94350  1.0000
  C   C254      1.0  0.41620  0.98250  0.44350  1.0000
  C   C255      1.0  0.91620  0.51750  0.55650  1.0000
  C   C256      1.0  0.58380  0.48250  0.05650  1.0000
  O   O1        1.0  0.15630  0.30680  0.93116  1.0000
  O   O2        1.0  0.34370  0.69320  0.43116  1.0000
  O   O3        1.0  0.84370  0.80680  0.56884  1.0000
  O   O4        1.0  0.65630  0.19320  0.06884  1.0000
  O   O5        1.0  0.84370  0.69320  0.06884  1.0000
  O   O6        1.0  0.65630  0.30680  0.56884  1.0000
  O   O7        1.0  0.15630  0.19320  0.43116  1.0000
  O   O8        1.0  0.34370  0.80680  0.93116  1.0000
  O   O9        1.0  0.08720  0.48310  0.96730  1.0000
  O   O10       1.0  0.41280  0.51690  0.46730  1.0000
  O   O11       1.0  0.91280  0.98310  0.53270  1.0000
  O   O12       1.0  0.58720  0.01690  0.03270  1.0000
  O   O13       1.0  0.91280  0.51690  0.03270  1.0000
  O   O14       1.0  0.58720  0.48310  0.53270  1.0000
  O   O15       1.0  0.08720  0.01690  0.46730  1.0000
  O   O16       1.0  0.41280  0.98310  0.96730  1.0000
  H   H97       1.0  0.07900  0.53800  0.97600  1.0000
  H   H98       1.0  0.42100  0.46200  0.47600  1.0000
  H   H99       1.0  0.92100  0.03800  0.52400  1.0000
  H   H100      1.0  0.57900  0.96200  0.02400  1.0000
  H   H101      1.0  0.92100  0.46200  0.02400  1.0000
  H   H102      1.0  0.57900  0.53800  0.52400  1.0000
  H   H103      1.0  0.07900  0.96200  0.47600  1.0000
  H   H104      1.0  0.42100  0.03800  0.97600  1.0000
  H   H105      1.0  0.10700  0.49200  0.94160  1.0000
  H   H106      1.0  0.39300  0.50800  0.44160  1.0000
  H   H107      1.0  0.89300  0.99200  0.55840  1.0000
  H   H108      1.0  0.60700  0.00800  0.05840  1.0000
  H   H109      1.0  0.89300  0.50800  0.05840  1.0000
  H   H110      1.0  0.60700  0.49200  0.55840  1.0000
  H   H111      1.0  0.10700  0.00800  0.44160  1.0000
  H   H112      1.0  0.39300  0.99200  0.94160  1.0000
  O   O17       1.0  0.06870  0.30050  0.89361  1.0000
  O   O18       1.0  0.43130  0.69950  0.39361  1.0000
  O   O19       1.0  0.93130  0.80050  0.60639  1.0000
  O   O20       1.0  0.56870  0.19950  0.10639  1.0000
  O   O21       1.0  0.93130  0.69950  0.10639  1.0000
  O   O22       1.0  0.56870  0.30050  0.60639  1.0000
  O   O23       1.0  0.06870  0.19950  0.39361  1.0000
  O   O24       1.0  0.43130  0.80050  0.89361  1.0000
  O   O25       1.0  0.02940  0.31790  0.78275  1.0000
  O   O26       1.0  0.47060  0.68210  0.28275  1.0000
  O   O27       1.0  0.97060  0.81790  0.71725  1.0000
  O   O28       1.0  0.52940  0.18210  0.21725  1.0000
  O   O29       1.0  0.97060  0.68210  0.21725  1.0000
  O   O30       1.0  0.52940  0.31790  0.71725  1.0000
  O   O31       1.0  0.02940  0.18210  0.28275  1.0000
  O   O32       1.0  0.47060  0.81790  0.78275  1.0000
  O   O33       1.0  0.03690  0.17830  0.81209  1.0000
  O   O34       1.0  0.46310  0.82170  0.31209  1.0000
  O   O35       1.0  0.96310  0.67830  0.68791  1.0000
  O   O36       1.0  0.53690  0.32170  0.18791  1.0000
  O   O37       1.0  0.96310  0.82170  0.18791  1.0000
  O   O38       1.0  0.53690  0.17830  0.68791  1.0000
  O   O39       1.0  0.03690  0.32170  0.31209  1.0000
  O   O40       1.0  0.46310  0.67830  0.81209  1.0000
  O   O41       1.0  0.13030  0.22450  0.72222  1.0000
  O   O42       1.0  0.36970  0.77550  0.22222  1.0000
  O   O43       1.0  0.86970  0.72450  0.77778  1.0000
  O   O44       1.0  0.63030  0.27550  0.27778  1.0000
  O   O45       1.0  0.86970  0.77550  0.27778  1.0000
  O   O46       1.0  0.63030  0.22450  0.77778  1.0000
  O   O47       1.0  0.13030  0.27550  0.22222  1.0000
  O   O48       1.0  0.36970  0.72450  0.72222  1.0000
  O   O49       1.0  0.06500  0.17500  0.55430  1.0000
  O   O50       1.0  0.43500  0.82500  0.05430  1.0000
  O   O51       1.0  0.93500  0.67500  0.94570  1.0000
  O   O52       1.0  0.56500  0.32500  0.44570  1.0000
  O   O53       1.0  0.93500  0.82500  0.44570  1.0000
  O   O54       1.0  0.56500  0.17500  0.94570  1.0000
  O   O55       1.0  0.06500  0.32500  0.05430  1.0000
  O   O56       1.0  0.43500  0.67500  0.55430  1.0000
  O   O57       1.0  0.07980  0.30660  0.51883  1.0000
  O   O58       1.0  0.42020  0.69340  0.01883  1.0000
  O   O59       1.0  0.92020  0.80660  0.98117  1.0000
  O   O60       1.0  0.57980  0.19340  0.48117  1.0000
  O   O61       1.0  0.92020  0.69340  0.48117  1.0000
  O   O62       1.0  0.57980  0.30660  0.98117  1.0000
  O   O63       1.0  0.07980  0.19340  0.01883  1.0000
  O   O64       1.0  0.42020  0.80660  0.51883  1.0000
  O   O65       1.0  0.06630  0.57890  0.62542  1.0000
  O   O66       1.0  0.43370  0.42110  0.12542  1.0000
  O   O67       1.0  0.93370  0.07890  0.87458  1.0000
  O   O68       1.0  0.56630  0.92110  0.37458  1.0000
  O   O69       1.0  0.93370  0.42110  0.37458  1.0000
  O   O70       1.0  0.56630  0.57890  0.87458  1.0000
  O   O71       1.0  0.06630  0.92110  0.12542  1.0000
  O   O72       1.0  0.43370  0.07890  0.62542  1.0000
  O   O73       1.0  0.08450  0.56900  0.70361  1.0000
  O   O74       1.0  0.41550  0.43100  0.20361  1.0000
  O   O75       1.0  0.91550  0.06900  0.79639  1.0000
  O   O76       1.0  0.58450  0.93100  0.29639  1.0000
  O   O77       1.0  0.91550  0.43100  0.29639  1.0000
  O   O78       1.0  0.58450  0.56900  0.79639  1.0000
  O   O79       1.0  0.08450  0.93100  0.20361  1.0000
  O   O80       1.0  0.41550  0.06900  0.70361  1.0000
  O   O81       1.0  0.93020  0.29090  0.86044  1.0000
  O   O82       1.0  0.56980  0.70910  0.36044  1.0000
  O   O83       1.0  0.06980  0.79090  0.63956  1.0000
  O   O84       1.0  0.43020  0.20910  0.13956  1.0000
  O   O85       1.0  0.06980  0.70910  0.13956  1.0000
  O   O86       1.0  0.43020  0.29090  0.63956  1.0000
  O   O87       1.0  0.93020  0.20910  0.36044  1.0000
  O   O88       1.0  0.56980  0.79090  0.86044  1.0000
  O   O89       1.0  0.84520  0.25420  0.82317  1.0000
  O   O90       1.0  0.65480  0.74580  0.32317  1.0000
  O   O91       1.0  0.15480  0.75420  0.67683  1.0000
  O   O92       1.0  0.34520  0.24580  0.17683  1.0000
  O   O93       1.0  0.15480  0.74580  0.17683  1.0000
  O   O94       1.0  0.34520  0.25420  0.67683  1.0000
  O   O95       1.0  0.84520  0.24580  0.32317  1.0000
  O   O96       1.0  0.65480  0.75420  0.82317  1.0000
  O   O97       1.0  0.96860  0.23870  0.95779  1.0000
  O   O98       1.0  0.53140  0.76130  0.45779  1.0000
  O   O99       1.0  0.03140  0.73870  0.54221  1.0000
  O   O100      1.0  0.46860  0.26130  0.04221  1.0000
  O   O101      1.0  0.03140  0.76130  0.04221  1.0000
  O   O102      1.0  0.46860  0.23870  0.54221  1.0000
  O   O103      1.0  0.96860  0.26130  0.45779  1.0000
  O   O104      1.0  0.53140  0.73870  0.95779  1.0000
  O   O105      1.0  0.95430  0.38530  0.96641  1.0000
  O   O106      1.0  0.54570  0.61470  0.46641  1.0000
  O   O107      1.0  0.04570  0.88530  0.53359  1.0000
  O   O108      1.0  0.45430  0.11470  0.03359  1.0000
  O   O109      1.0  0.04570  0.61470  0.03359  1.0000
  O   O110      1.0  0.45430  0.38530  0.53359  1.0000
  O   O111      1.0  0.95430  0.11470  0.46641  1.0000
  O   O112      1.0  0.54570  0.88530  0.96641  1.0000
  O   O113      1.0  0.86040  0.30880  0.03465  1.0000
  O   O114      1.0  0.63960  0.69120  0.53465  1.0000
  O   O115      1.0  0.13960  0.80880  0.46535  1.0000
  O   O116      1.0  0.36040  0.19120  0.96535  1.0000
  O   O117      1.0  0.13960  0.69120  0.96535  1.0000
  O   O118      1.0  0.36040  0.30880  0.46535  1.0000
  O   O119      1.0  0.86040  0.19120  0.53465  1.0000
  O   O120      1.0  0.63960  0.80880  0.03465  1.0000
  O   O121      1.0  0.90770  0.97350  0.01062  1.0000
  O   O122      1.0  0.59230  0.02650  0.51062  1.0000
  O   O123      1.0  0.09230  0.47350  0.48938  1.0000
  O   O124      1.0  0.40770  0.52650  0.98938  1.0000
  O   O125      1.0  0.09230  0.02650  0.98938  1.0000
  O   O126      1.0  0.40770  0.97350  0.48938  1.0000
  O   O127      1.0  0.90770  0.52650  0.51062  1.0000
  O   O128      1.0  0.59230  0.47350  0.01062  1.0000
  H   H113      1.0  0.91100  0.91200  0.00300  1.0000
  H   H114      1.0  0.58900  0.08800  0.50300  1.0000
  H   H115      1.0  0.08900  0.41200  0.49700  1.0000
  H   H116      1.0  0.41100  0.58800  0.99700  1.0000
  H   H117      1.0  0.08900  0.08800  0.99700  1.0000
  H   H118      1.0  0.41100  0.91200  0.49700  1.0000
  H   H119      1.0  0.91100  0.58800  0.50300  1.0000
  H   H120      1.0  0.58900  0.41200  0.00300  1.0000
  O   O129      1.0  0.92780  0.91880  0.08272  1.0000
  O   O130      1.0  0.57220  0.08120  0.58272  1.0000
  O   O131      1.0  0.07220  0.41880  0.41728  1.0000
  O   O132      1.0  0.42780  0.58120  0.91728  1.0000
  O   O133      1.0  0.07220  0.08120  0.91728  1.0000
  O   O134      1.0  0.42780  0.91880  0.41728  1.0000
  O   O135      1.0  0.92780  0.58120  0.58272  1.0000
  O   O136      1.0  0.57220  0.41880  0.08272  1.0000
  O   O137      1.0  0.91340  0.14840  0.22258  1.0000
  O   O138      1.0  0.58660  0.85160  0.72258  1.0000
  O   O139      1.0  0.08660  0.64840  0.27742  1.0000
  O   O140      1.0  0.41340  0.35160  0.77742  1.0000
  O   O141      1.0  0.08660  0.85160  0.77742  1.0000
  O   O142      1.0  0.41340  0.14840  0.27742  1.0000
  O   O143      1.0  0.91340  0.35160  0.72258  1.0000
  O   O144      1.0  0.58660  0.64840  0.22258  1.0000
  O   O145      1.0  0.93090  0.29090  0.20176  1.0000
  O   O146      1.0  0.56910  0.70910  0.70176  1.0000
  O   O147      1.0  0.06910  0.79090  0.29824  1.0000
  O   O148      1.0  0.43090  0.20910  0.79824  1.0000
  O   O149      1.0  0.06910  0.70910  0.79824  1.0000
  O   O150      1.0  0.43090  0.29090  0.29824  1.0000
  O   O151      1.0  0.93090  0.20910  0.70176  1.0000
  O   O152      1.0  0.56910  0.79090  0.20176  1.0000
