data_image0
_chemical_formula_structural       Fe12N36C72H36C108H36N36C36
_chemical_formula_sum              "Fe12 N72 C216 H72"
_cell_length_a       13.0157
_cell_length_b       13.0157
_cell_length_c       62.615
_cell_angle_alpha    90
_cell_angle_beta     90
_cell_angle_gamma    120

_space_group_name_H-M_alt    "P 1"
_space_group_IT_number       1

loop_
  _space_group_symop_operation_xyz
  'x, y, z'

loop_
  _atom_site_type_symbol
  _atom_site_label
  _atom_site_symmetry_multiplicity
  _atom_site_fract_x
  _atom_site_fract_y
  _atom_site_fract_z
  _atom_site_occupancy
  Fe  Fe1       1.0  0.33330  0.66670  0.00354  1.0000
  Fe  Fe2       1.0  0.66660  0.33330  0.49646  1.0000
  Fe  Fe3       1.0  0.99997  0.00003  0.33688  1.0000
  Fe  Fe4       1.0  0.33327  0.66663  0.82979  1.0000
  Fe  Fe5       1.0  0.66663  0.33337  0.67021  1.0000
  Fe  Fe6       1.0  0.99993  0.99997  0.16312  1.0000
  Fe  Fe7       1.0  0.66670  0.33330  0.99646  1.0000
  Fe  Fe8       1.0  0.33340  0.66670  0.50354  1.0000
  Fe  Fe9       1.0  0.00003  0.99997  0.66312  1.0000
  Fe  Fe10      1.0  0.66673  0.33337  0.17021  1.0000
  Fe  Fe11      1.0  0.33337  0.66663  0.32979  1.0000
  Fe  Fe12      1.0  0.00007  0.00003  0.83688  1.0000
  N   N1        1.0  0.45971  0.65006  0.98407  1.0000
  N   N2        1.0  0.34994  0.80965  0.98407  1.0000
  N   N3        1.0  0.19035  0.54029  0.98407  1.0000
  N   N4        1.0  0.80965  0.34994  0.51593  1.0000
  N   N5        1.0  0.54029  0.19035  0.51593  1.0000
  N   N6        1.0  0.65006  0.45971  0.51593  1.0000
  N   N7        1.0  0.12638  0.98339  0.31740  1.0000
  N   N8        1.0  0.01661  0.14298  0.31740  1.0000
  N   N9        1.0  0.85702  0.87362  0.31740  1.0000
  N   N10       1.0  0.47632  0.68327  0.84926  1.0000
  N   N11       1.0  0.20696  0.52368  0.84926  1.0000
  N   N12       1.0  0.31673  0.79304  0.84926  1.0000
  N   N13       1.0  0.79304  0.31673  0.65074  1.0000
  N   N14       1.0  0.68327  0.47632  0.65074  1.0000
  N   N15       1.0  0.52368  0.20696  0.65074  1.0000
  N   N16       1.0  0.14298  0.01661  0.18260  1.0000
  N   N17       1.0  0.87362  0.85702  0.18260  1.0000
  N   N18       1.0  0.98339  0.12638  0.18260  1.0000
  N   N19       1.0  0.54029  0.34994  0.01593  1.0000
  N   N20       1.0  0.65006  0.19035  0.01593  1.0000
  N   N21       1.0  0.80965  0.45971  0.01593  1.0000
  N   N22       1.0  0.19035  0.65006  0.48407  1.0000
  N   N23       1.0  0.45971  0.80965  0.48407  1.0000
  N   N24       1.0  0.34994  0.54029  0.48407  1.0000
  N   N25       1.0  0.87362  0.01661  0.68260  1.0000
  N   N26       1.0  0.98339  0.85702  0.68260  1.0000
  N   N27       1.0  0.14298  0.12638  0.68260  1.0000
  N   N28       1.0  0.52368  0.31673  0.15074  1.0000
  N   N29       1.0  0.79304  0.47632  0.15074  1.0000
  N   N30       1.0  0.68327  0.20696  0.15074  1.0000
  N   N31       1.0  0.20696  0.68327  0.34926  1.0000
  N   N32       1.0  0.31673  0.52368  0.34926  1.0000
  N   N33       1.0  0.47632  0.79304  0.34926  1.0000
  N   N34       1.0  0.85702  0.98339  0.81740  1.0000
  N   N35       1.0  0.12638  0.14298  0.81740  1.0000
  N   N36       1.0  0.01661  0.87362  0.81740  1.0000
  C   C1        1.0  0.59225  0.60124  0.96128  1.0000
  C   C2        1.0  0.39876  0.99101  0.96128  1.0000
  C   C3        1.0  0.00899  0.40775  0.96128  1.0000
  C   C4        1.0  0.99101  0.39876  0.53872  1.0000
  C   C5        1.0  0.40775  0.00899  0.53872  1.0000
  C   C6        1.0  0.60124  0.59225  0.53872  1.0000
  C   C7        1.0  0.25892  0.93457  0.29461  1.0000
  C   C8        1.0  0.06543  0.32434  0.29461  1.0000
  C   C9        1.0  0.67566  0.74108  0.29461  1.0000
  C   C10       1.0  0.65768  0.73209  0.87205  1.0000
  C   C11       1.0  0.07442  0.34232  0.87205  1.0000
  C   C12       1.0  0.26791  0.92558  0.87205  1.0000
  C   C13       1.0  0.92558  0.26791  0.62795  1.0000
  C   C14       1.0  0.73209  0.65768  0.62795  1.0000
  C   C15       1.0  0.34232  0.07442  0.62795  1.0000
  C   C16       1.0  0.32434  0.06543  0.20539  1.0000
  C   C17       1.0  0.74108  0.67566  0.20539  1.0000
  C   C18       1.0  0.93457  0.25892  0.20539  1.0000
  C   C19       1.0  0.40775  0.39876  0.03872  1.0000
  C   C20       1.0  0.60124  0.00899  0.03872  1.0000
  C   C21       1.0  0.99101  0.59225  0.03872  1.0000
  C   C22       1.0  0.00899  0.60124  0.46128  1.0000
  C   C23       1.0  0.59225  0.99101  0.46128  1.0000
  C   C24       1.0  0.39876  0.40775  0.46128  1.0000
  C   C25       1.0  0.74108  0.06543  0.70539  1.0000
  C   C26       1.0  0.93457  0.67566  0.70539  1.0000
  C   C27       1.0  0.32434  0.25892  0.70539  1.0000
  C   C28       1.0  0.34232  0.26791  0.12795  1.0000
  C   C29       1.0  0.92558  0.65768  0.12795  1.0000
  C   C30       1.0  0.73209  0.07442  0.12795  1.0000
  C   C31       1.0  0.07442  0.73209  0.37205  1.0000
  C   C32       1.0  0.26791  0.34232  0.37205  1.0000
  C   C33       1.0  0.65768  0.92558  0.37205  1.0000
  C   C34       1.0  0.67566  0.93457  0.79461  1.0000
  C   C35       1.0  0.25892  0.32434  0.79461  1.0000
  C   C36       1.0  0.06543  0.74108  0.79461  1.0000
  C   C37       1.0  0.71019  0.65047  0.92735  1.0000
  C   C38       1.0  0.34953  0.05972  0.92735  1.0000
  C   C39       1.0  0.94028  0.28981  0.92735  1.0000
  C   C40       1.0  0.05972  0.34953  0.57265  1.0000
  C   C41       1.0  0.28981  0.94028  0.57265  1.0000
  C   C42       1.0  0.65047  0.71019  0.57265  1.0000
  C   C43       1.0  0.37686  0.98380  0.26068  1.0000
  C   C44       1.0  0.01620  0.39305  0.26068  1.0000
  C   C45       1.0  0.60695  0.62314  0.26068  1.0000
  C   C46       1.0  0.72639  0.68286  0.90598  1.0000
  C   C47       1.0  0.95648  0.27361  0.90598  1.0000
  C   C48       1.0  0.31714  0.04352  0.90598  1.0000
  C   C49       1.0  0.04352  0.31714  0.59402  1.0000
  C   C50       1.0  0.68286  0.72639  0.59402  1.0000
  C   C51       1.0  0.27361  0.95648  0.59402  1.0000
  C   C52       1.0  0.39305  0.01620  0.23932  1.0000
  C   C53       1.0  0.62314  0.60695  0.23932  1.0000
  C   C54       1.0  0.98380  0.37686  0.23932  1.0000
  C   C55       1.0  0.28981  0.34953  0.07265  1.0000
  C   C56       1.0  0.65047  0.94028  0.07265  1.0000
  C   C57       1.0  0.05972  0.71019  0.07265  1.0000
  C   C58       1.0  0.94028  0.65047  0.42735  1.0000
  C   C59       1.0  0.71019  0.05972  0.42735  1.0000
  C   C60       1.0  0.34953  0.28981  0.42735  1.0000
  C   C61       1.0  0.62314  0.01620  0.73932  1.0000
  C   C62       1.0  0.98380  0.60695  0.73932  1.0000
  C   C63       1.0  0.39305  0.37686  0.73932  1.0000
  C   C64       1.0  0.27361  0.31714  0.09402  1.0000
  C   C65       1.0  0.04352  0.72639  0.09402  1.0000
  C   C66       1.0  0.68286  0.95648  0.09402  1.0000
  C   C67       1.0  0.95648  0.68286  0.40598  1.0000
  C   C68       1.0  0.31714  0.27361  0.40598  1.0000
  C   C69       1.0  0.72639  0.04352  0.40598  1.0000
  C   C70       1.0  0.60695  0.98380  0.76068  1.0000
  C   C71       1.0  0.37686  0.39305  0.76068  1.0000
  C   C72       1.0  0.01620  0.62314  0.76068  1.0000
  H   H1        1.0  0.76830  0.63960  0.93450  1.0000
  H   H2        1.0  0.36040  0.12870  0.93450  1.0000
  H   H3        1.0  0.87130  0.23170  0.93450  1.0000
  H   H4        1.0  0.12870  0.36040  0.56550  1.0000
  H   H5        1.0  0.23170  0.87130  0.56550  1.0000
  H   H6        1.0  0.63960  0.76830  0.56550  1.0000
  H   H7        1.0  0.43497  0.97293  0.26783  1.0000
  H   H8        1.0  0.02707  0.46203  0.26783  1.0000
  H   H9        1.0  0.53797  0.56503  0.26783  1.0000
  H   H10       1.0  0.79537  0.69373  0.89883  1.0000
  H   H11       1.0  0.89837  0.20463  0.89883  1.0000
  H   H12       1.0  0.30627  0.10163  0.89883  1.0000
  H   H13       1.0  0.10163  0.30627  0.60117  1.0000
  H   H14       1.0  0.69373  0.79537  0.60117  1.0000
  H   H15       1.0  0.20463  0.89837  0.60117  1.0000
  H   H16       1.0  0.46203  0.02707  0.23217  1.0000
  H   H17       1.0  0.56503  0.53797  0.23217  1.0000
  H   H18       1.0  0.97293  0.43497  0.23217  1.0000
  H   H19       1.0  0.23170  0.36040  0.06550  1.0000
  H   H20       1.0  0.63960  0.87130  0.06550  1.0000
  H   H21       1.0  0.12870  0.76830  0.06550  1.0000
  H   H22       1.0  0.87130  0.63960  0.43450  1.0000
  H   H23       1.0  0.76830  0.12870  0.43450  1.0000
  H   H24       1.0  0.36040  0.23170  0.43450  1.0000
  H   H25       1.0  0.56503  0.02707  0.73217  1.0000
  H   H26       1.0  0.97293  0.53797  0.73217  1.0000
  H   H27       1.0  0.46203  0.43497  0.73217  1.0000
  H   H28       1.0  0.20463  0.30627  0.10117  1.0000
  H   H29       1.0  0.10163  0.79537  0.10117  1.0000
  H   H30       1.0  0.69373  0.89837  0.10117  1.0000
  H   H31       1.0  0.89837  0.69373  0.39883  1.0000
  H   H32       1.0  0.30627  0.20463  0.39883  1.0000
  H   H33       1.0  0.79537  0.10163  0.39883  1.0000
  H   H34       1.0  0.53797  0.97293  0.76783  1.0000
  H   H35       1.0  0.43497  0.46203  0.76783  1.0000
  H   H36       1.0  0.02707  0.56503  0.76783  1.0000
  C   C73       1.0  0.60974  0.63348  0.93851  1.0000
  C   C74       1.0  0.36652  0.97626  0.93851  1.0000
  C   C75       1.0  0.02374  0.39026  0.93851  1.0000
  C   C76       1.0  0.97626  0.36652  0.56149  1.0000
  C   C77       1.0  0.39026  0.02374  0.56149  1.0000
  C   C78       1.0  0.63348  0.60974  0.56149  1.0000
  C   C79       1.0  0.27641  0.96681  0.27184  1.0000
  C   C80       1.0  0.03319  0.30959  0.27184  1.0000
  C   C81       1.0  0.69041  0.72359  0.27184  1.0000
  C   C82       1.0  0.64293  0.69985  0.89482  1.0000
  C   C83       1.0  0.05693  0.35707  0.89482  1.0000
  C   C84       1.0  0.30015  0.94307  0.89482  1.0000
  C   C85       1.0  0.94307  0.30015  0.60518  1.0000
  C   C86       1.0  0.69985  0.64293  0.60518  1.0000
  C   C87       1.0  0.35707  0.05693  0.60518  1.0000
  C   C88       1.0  0.30959  0.03319  0.22816  1.0000
  C   C89       1.0  0.72359  0.69041  0.22816  1.0000
  C   C90       1.0  0.96681  0.27641  0.22816  1.0000
  C   C91       1.0  0.39026  0.36652  0.06149  1.0000
  C   C92       1.0  0.63348  0.02374  0.06149  1.0000
  C   C93       1.0  0.97626  0.60974  0.06149  1.0000
  C   C94       1.0  0.02374  0.63348  0.43851  1.0000
  C   C95       1.0  0.60974  0.97626  0.43851  1.0000
  C   C96       1.0  0.36652  0.39026  0.43851  1.0000
  C   C97       1.0  0.72359  0.03319  0.72816  1.0000
  C   C98       1.0  0.96681  0.69041  0.72816  1.0000
  C   C99       1.0  0.30959  0.27641  0.72816  1.0000
  C   C100      1.0  0.35707  0.30015  0.10518  1.0000
  C   C101      1.0  0.94307  0.64293  0.10518  1.0000
  C   C102      1.0  0.69985  0.05693  0.10518  1.0000
  C   C103      1.0  0.05693  0.69985  0.39482  1.0000
  C   C104      1.0  0.30015  0.35707  0.39482  1.0000
  C   C105      1.0  0.64293  0.94307  0.39482  1.0000
  C   C106      1.0  0.69041  0.96681  0.77184  1.0000
  C   C107      1.0  0.27641  0.30959  0.77184  1.0000
  C   C108      1.0  0.03319  0.72359  0.77184  1.0000
  C   C109      1.0  0.52012  0.62732  0.97393  1.0000
  C   C110      1.0  0.37268  0.89280  0.97393  1.0000
  C   C111      1.0  0.10720  0.47988  0.97393  1.0000
  C   C112      1.0  0.89280  0.37268  0.52607  1.0000
  C   C113      1.0  0.47988  0.10720  0.52607  1.0000
  C   C114      1.0  0.62732  0.52012  0.52607  1.0000
  C   C115      1.0  0.18679  0.96065  0.30726  1.0000
  C   C116      1.0  0.03935  0.22613  0.30726  1.0000
  C   C117      1.0  0.77387  0.81321  0.30726  1.0000
  C   C118      1.0  0.55947  0.70601  0.85940  1.0000
  C   C119      1.0  0.14655  0.44053  0.85940  1.0000
  C   C120      1.0  0.29399  0.85345  0.85940  1.0000
  C   C121      1.0  0.85345  0.29399  0.64060  1.0000
  C   C122      1.0  0.70601  0.55947  0.64060  1.0000
  C   C123      1.0  0.44053  0.14655  0.64060  1.0000
  C   C124      1.0  0.22613  0.03935  0.19274  1.0000
  C   C125      1.0  0.81321  0.77387  0.19274  1.0000
  C   C126      1.0  0.96065  0.18679  0.19274  1.0000
  C   C127      1.0  0.47988  0.37268  0.02607  1.0000
  C   C128      1.0  0.62732  0.10720  0.02607  1.0000
  C   C129      1.0  0.89280  0.52012  0.02607  1.0000
  C   C130      1.0  0.10720  0.62732  0.47393  1.0000
  C   C131      1.0  0.52012  0.89280  0.47393  1.0000
  C   C132      1.0  0.37268  0.47988  0.47393  1.0000
  C   C133      1.0  0.81321  0.03935  0.69274  1.0000
  C   C134      1.0  0.96065  0.77387  0.69274  1.0000
  C   C135      1.0  0.22613  0.18679  0.69274  1.0000
  C   C136      1.0  0.44053  0.29399  0.14060  1.0000
  C   C137      1.0  0.85345  0.55947  0.14060  1.0000
  C   C138      1.0  0.70601  0.14655  0.14060  1.0000
  C   C139      1.0  0.14655  0.70601  0.35940  1.0000
  C   C140      1.0  0.29399  0.44053  0.35940  1.0000
  C   C141      1.0  0.55947  0.85345  0.35940  1.0000
  C   C142      1.0  0.77387  0.96065  0.80726  1.0000
  C   C143      1.0  0.18679  0.22613  0.80726  1.0000
  C   C144      1.0  0.03935  0.81321  0.80726  1.0000
  C   C145      1.0  0.52591  0.65029  0.92738  1.0000
  C   C146      1.0  0.34971  0.87562  0.92738  1.0000
  C   C147      1.0  0.12438  0.47409  0.92738  1.0000
  C   C148      1.0  0.87562  0.34971  0.57262  1.0000
  C   C149      1.0  0.47409  0.12438  0.57262  1.0000
  C   C150      1.0  0.65029  0.52591  0.57262  1.0000
  C   C151      1.0  0.19258  0.98362  0.26071  1.0000
  C   C152      1.0  0.01638  0.20895  0.26071  1.0000
  C   C153      1.0  0.79105  0.80742  0.26071  1.0000
  C   C154      1.0  0.54229  0.68304  0.90595  1.0000
  C   C155      1.0  0.14076  0.45771  0.90595  1.0000
  C   C156      1.0  0.31696  0.85924  0.90595  1.0000
  C   C157      1.0  0.85924  0.31696  0.59405  1.0000
  C   C158      1.0  0.68304  0.54229  0.59405  1.0000
  C   C159      1.0  0.45771  0.14076  0.59405  1.0000
  C   C160      1.0  0.20895  0.01638  0.23929  1.0000
  C   C161      1.0  0.80742  0.79105  0.23929  1.0000
  C   C162      1.0  0.98362  0.19258  0.23929  1.0000
  C   C163      1.0  0.47409  0.34971  0.07262  1.0000
  C   C164      1.0  0.65029  0.12438  0.07262  1.0000
  C   C165      1.0  0.87562  0.52591  0.07262  1.0000
  C   C166      1.0  0.12438  0.65029  0.42738  1.0000
  C   C167      1.0  0.52591  0.87562  0.42738  1.0000
  C   C168      1.0  0.34971  0.47409  0.42738  1.0000
  C   C169      1.0  0.80742  0.01638  0.73929  1.0000
  C   C170      1.0  0.98362  0.79105  0.73929  1.0000
  C   C171      1.0  0.20895  0.19258  0.73929  1.0000
  C   C172      1.0  0.45771  0.31696  0.09405  1.0000
  C   C173      1.0  0.85924  0.54229  0.09405  1.0000
  C   C174      1.0  0.68304  0.14076  0.09405  1.0000
  C   C175      1.0  0.14076  0.68304  0.40595  1.0000
  C   C176      1.0  0.31696  0.45771  0.40595  1.0000
  C   C177      1.0  0.54229  0.85924  0.40595  1.0000
  C   C178      1.0  0.79105  0.98362  0.76071  1.0000
  C   C179      1.0  0.19258  0.20895  0.76071  1.0000
  C   C180      1.0  0.01638  0.80742  0.76071  1.0000
  H   H37       1.0  0.45680  0.63920  0.93460  1.0000
  H   H38       1.0  0.36080  0.81760  0.93460  1.0000
  H   H39       1.0  0.18240  0.54320  0.93460  1.0000
  H   H40       1.0  0.81760  0.36080  0.56540  1.0000
  H   H41       1.0  0.54320  0.18240  0.56540  1.0000
  H   H42       1.0  0.63920  0.45680  0.56540  1.0000
  H   H43       1.0  0.12347  0.97253  0.26793  1.0000
  H   H44       1.0  0.02747  0.15093  0.26793  1.0000
  H   H45       1.0  0.84907  0.87653  0.26793  1.0000
  H   H46       1.0  0.48427  0.69413  0.89873  1.0000
  H   H47       1.0  0.20987  0.51573  0.89873  1.0000
  H   H48       1.0  0.30587  0.79013  0.89873  1.0000
  H   H49       1.0  0.79013  0.30587  0.60127  1.0000
  H   H50       1.0  0.69413  0.48427  0.60127  1.0000
  H   H51       1.0  0.51573  0.20987  0.60127  1.0000
  H   H52       1.0  0.15093  0.02747  0.23207  1.0000
  H   H53       1.0  0.87653  0.84907  0.23207  1.0000
  H   H54       1.0  0.97253  0.12347  0.23207  1.0000
  H   H55       1.0  0.54320  0.36080  0.06540  1.0000
  H   H56       1.0  0.63920  0.18240  0.06540  1.0000
  H   H57       1.0  0.81760  0.45680  0.06540  1.0000
  H   H58       1.0  0.18240  0.63920  0.43460  1.0000
  H   H59       1.0  0.45680  0.81760  0.43460  1.0000
  H   H60       1.0  0.36080  0.54320  0.43460  1.0000
  H   H61       1.0  0.87653  0.02747  0.73207  1.0000
  H   H62       1.0  0.97253  0.84907  0.73207  1.0000
  H   H63       1.0  0.15093  0.12347  0.73207  1.0000
  H   H64       1.0  0.51573  0.30587  0.10127  1.0000
  H   H65       1.0  0.79013  0.48427  0.10127  1.0000
  H   H66       1.0  0.69413  0.20987  0.10127  1.0000
  H   H67       1.0  0.20987  0.69413  0.39873  1.0000
  H   H68       1.0  0.30587  0.51573  0.39873  1.0000
  H   H69       1.0  0.48427  0.79013  0.39873  1.0000
  H   H70       1.0  0.84907  0.97253  0.76793  1.0000
  H   H71       1.0  0.12347  0.15093  0.76793  1.0000
  H   H72       1.0  0.02747  0.87653  0.76793  1.0000
  N   N37       1.0  0.66717  0.47127  0.97780  1.0000
  N   N38       1.0  0.52873  0.19590  0.97780  1.0000
  N   N39       1.0  0.80410  0.33283  0.97780  1.0000
  N   N40       1.0  0.19590  0.52873  0.52220  1.0000
  N   N41       1.0  0.33283  0.80410  0.52220  1.0000
  N   N42       1.0  0.47127  0.66717  0.52220  1.0000
  N   N43       1.0  0.33384  0.80460  0.31113  1.0000
  N   N44       1.0  0.19540  0.52923  0.31113  1.0000
  N   N45       1.0  0.47077  0.66616  0.31113  1.0000
  N   N46       1.0  0.86257  0.86206  0.85553  1.0000
  N   N47       1.0  0.99950  0.13743  0.85553  1.0000
  N   N48       1.0  0.13794  0.00050  0.85553  1.0000
  N   N49       1.0  0.00050  0.13794  0.64447  1.0000
  N   N50       1.0  0.86206  0.86257  0.64447  1.0000
  N   N51       1.0  0.13743  0.99950  0.64447  1.0000
  N   N52       1.0  0.52923  0.19540  0.18887  1.0000
  N   N53       1.0  0.66616  0.47077  0.18887  1.0000
  N   N54       1.0  0.80460  0.33384  0.18887  1.0000
  N   N55       1.0  0.33283  0.52873  0.02220  1.0000
  N   N56       1.0  0.47127  0.80410  0.02220  1.0000
  N   N57       1.0  0.19590  0.66717  0.02220  1.0000
  N   N58       1.0  0.80410  0.47127  0.47780  1.0000
  N   N59       1.0  0.66717  0.19590  0.47780  1.0000
  N   N60       1.0  0.52873  0.33283  0.47780  1.0000
  N   N61       1.0  0.66616  0.19540  0.68887  1.0000
  N   N62       1.0  0.80460  0.47077  0.68887  1.0000
  N   N63       1.0  0.52923  0.33384  0.68887  1.0000
  N   N64       1.0  0.13743  0.13794  0.14447  1.0000
  N   N65       1.0  0.00050  0.86257  0.14447  1.0000
  N   N66       1.0  0.86206  0.99950  0.14447  1.0000
  N   N67       1.0  0.99950  0.86206  0.35553  1.0000
  N   N68       1.0  0.13794  0.13743  0.35553  1.0000
  N   N69       1.0  0.86257  0.00050  0.35553  1.0000
  N   N70       1.0  0.47077  0.80460  0.81113  1.0000
  N   N71       1.0  0.33384  0.52923  0.81113  1.0000
  N   N72       1.0  0.19540  0.66616  0.81113  1.0000
  C   C181      1.0  0.63491  0.53148  0.97027  1.0000
  C   C182      1.0  0.46852  0.10343  0.97027  1.0000
  C   C183      1.0  0.89657  0.36509  0.97027  1.0000
  C   C184      1.0  0.10343  0.46852  0.52973  1.0000
  C   C185      1.0  0.36509  0.89657  0.52973  1.0000
  C   C186      1.0  0.53148  0.63491  0.52973  1.0000
  C   C187      1.0  0.30158  0.86481  0.30360  1.0000
  C   C188      1.0  0.13519  0.43676  0.30360  1.0000
  C   C189      1.0  0.56324  0.69842  0.30360  1.0000
  C   C190      1.0  0.77010  0.80185  0.86306  1.0000
  C   C191      1.0  0.03176  0.22990  0.86306  1.0000
  C   C192      1.0  0.19815  0.96824  0.86306  1.0000
  C   C193      1.0  0.96824  0.19815  0.63694  1.0000
  C   C194      1.0  0.80185  0.77010  0.63694  1.0000
  C   C195      1.0  0.22990  0.03176  0.63694  1.0000
  C   C196      1.0  0.43676  0.13519  0.19640  1.0000
  C   C197      1.0  0.69842  0.56324  0.19640  1.0000
  C   C198      1.0  0.86481  0.30158  0.19640  1.0000
  C   C199      1.0  0.36509  0.46852  0.02973  1.0000
  C   C200      1.0  0.53148  0.89657  0.02973  1.0000
  C   C201      1.0  0.10343  0.63491  0.02973  1.0000
  C   C202      1.0  0.89657  0.53148  0.47027  1.0000
  C   C203      1.0  0.63491  0.10343  0.47027  1.0000
  C   C204      1.0  0.46852  0.36509  0.47027  1.0000
  C   C205      1.0  0.69842  0.13519  0.69640  1.0000
  C   C206      1.0  0.86481  0.56324  0.69640  1.0000
  C   C207      1.0  0.43676  0.30158  0.69640  1.0000
  C   C208      1.0  0.22990  0.19815  0.13694  1.0000
  C   C209      1.0  0.96824  0.77010  0.13694  1.0000
  C   C210      1.0  0.80185  0.03176  0.13694  1.0000
  C   C211      1.0  0.03176  0.80185  0.36306  1.0000
  C   C212      1.0  0.19815  0.22990  0.36306  1.0000
  C   C213      1.0  0.77010  0.96824  0.36306  1.0000
  C   C214      1.0  0.56324  0.86481  0.80360  1.0000
  C   C215      1.0  0.30158  0.43676  0.80360  1.0000
  C   C216      1.0  0.13519  0.69842  0.80360  1.0000
