data_image0
_chemical_formula_structural       Zn12N36C144H36C36H36C36N36
_chemical_formula_sum              "Zn12 N72 C216 H72"
_cell_length_a       12.9728
_cell_length_b       12.9728
_cell_length_c       62.652
_cell_angle_alpha    90
_cell_angle_beta     90
_cell_angle_gamma    120

_space_group_name_H-M_alt    "P 1"
_space_group_IT_number       1

loop_
  _space_group_symop_operation_xyz
  'x, y, z'

loop_
  _atom_site_type_symbol
  _atom_site_label
  _atom_site_symmetry_multiplicity
  _atom_site_fract_x
  _atom_site_fract_y
  _atom_site_fract_z
  _atom_site_occupancy
  Zn  Zn1       1.0  0.33330  0.66670  0.00362  1.0000
  Zn  Zn2       1.0  0.66660  0.33330  0.49638  1.0000
  Zn  Zn3       1.0  0.99997  0.00003  0.33695  1.0000
  Zn  Zn4       1.0  0.33327  0.66663  0.82972  1.0000
  Zn  Zn5       1.0  0.66663  0.33337  0.67028  1.0000
  Zn  Zn6       1.0  0.99993  0.99997  0.16305  1.0000
  Zn  Zn7       1.0  0.66670  0.33330  0.99638  1.0000
  Zn  Zn8       1.0  0.33340  0.66670  0.50362  1.0000
  Zn  Zn9       1.0  0.00003  0.99997  0.66305  1.0000
  Zn  Zn10      1.0  0.66673  0.33337  0.17028  1.0000
  Zn  Zn11      1.0  0.33337  0.66663  0.32972  1.0000
  Zn  Zn12      1.0  0.00007  0.00003  0.83695  1.0000
  N   N1        1.0  0.34875  0.53994  0.98400  1.0000
  N   N2        1.0  0.46006  0.80881  0.98400  1.0000
  N   N3        1.0  0.19119  0.65125  0.98400  1.0000
  N   N4        1.0  0.80881  0.46006  0.51600  1.0000
  N   N5        1.0  0.65125  0.19119  0.51600  1.0000
  N   N6        1.0  0.53994  0.34875  0.51600  1.0000
  N   N7        1.0  0.01542  0.87327  0.31734  1.0000
  N   N8        1.0  0.12673  0.14214  0.31734  1.0000
  N   N9        1.0  0.85786  0.98458  0.31734  1.0000
  N   N10       1.0  0.47548  0.79339  0.84933  1.0000
  N   N11       1.0  0.31792  0.52452  0.84933  1.0000
  N   N12       1.0  0.20661  0.68208  0.84933  1.0000
  N   N13       1.0  0.68208  0.20661  0.65067  1.0000
  N   N14       1.0  0.79339  0.47548  0.65067  1.0000
  N   N15       1.0  0.52452  0.31792  0.65067  1.0000
  N   N16       1.0  0.14214  0.12673  0.18266  1.0000
  N   N17       1.0  0.98458  0.85786  0.18266  1.0000
  N   N18       1.0  0.87327  0.01542  0.18266  1.0000
  N   N19       1.0  0.65125  0.46006  0.01600  1.0000
  N   N20       1.0  0.53994  0.19119  0.01600  1.0000
  N   N21       1.0  0.80881  0.34875  0.01600  1.0000
  N   N22       1.0  0.19119  0.53994  0.48400  1.0000
  N   N23       1.0  0.34875  0.80881  0.48400  1.0000
  N   N24       1.0  0.46006  0.65125  0.48400  1.0000
  N   N25       1.0  0.98458  0.12673  0.68266  1.0000
  N   N26       1.0  0.87327  0.85786  0.68266  1.0000
  N   N27       1.0  0.14214  0.01542  0.68266  1.0000
  N   N28       1.0  0.52452  0.20661  0.15067  1.0000
  N   N29       1.0  0.68208  0.47548  0.15067  1.0000
  N   N30       1.0  0.79339  0.31792  0.15067  1.0000
  N   N31       1.0  0.31792  0.79339  0.34933  1.0000
  N   N32       1.0  0.20661  0.52452  0.34933  1.0000
  N   N33       1.0  0.47548  0.68208  0.34933  1.0000
  N   N34       1.0  0.85786  0.87327  0.81734  1.0000
  N   N35       1.0  0.01542  0.14214  0.81734  1.0000
  N   N36       1.0  0.12673  0.98458  0.81734  1.0000
  C   C1        1.0  0.37215  0.47959  0.97391  1.0000
  C   C2        1.0  0.52041  0.89256  0.97391  1.0000
  C   C3        1.0  0.10744  0.62785  0.97391  1.0000
  C   C4        1.0  0.89256  0.52041  0.52609  1.0000
  C   C5        1.0  0.62785  0.10744  0.52609  1.0000
  C   C6        1.0  0.47959  0.37215  0.52609  1.0000
  C   C7        1.0  0.03882  0.81292  0.30724  1.0000
  C   C8        1.0  0.18708  0.22589  0.30724  1.0000
  C   C9        1.0  0.77411  0.96118  0.30724  1.0000
  C   C10       1.0  0.55923  0.85374  0.85943  1.0000
  C   C11       1.0  0.29452  0.44077  0.85943  1.0000
  C   C12       1.0  0.14626  0.70548  0.85943  1.0000
  C   C13       1.0  0.70548  0.14626  0.64057  1.0000
  C   C14       1.0  0.85374  0.55923  0.64057  1.0000
  C   C15       1.0  0.44077  0.29452  0.64057  1.0000
  C   C16       1.0  0.22589  0.18708  0.19276  1.0000
  C   C17       1.0  0.96118  0.77411  0.19276  1.0000
  C   C18       1.0  0.81292  0.03882  0.19276  1.0000
  C   C19       1.0  0.62785  0.52041  0.02610  1.0000
  C   C20       1.0  0.47959  0.10744  0.02610  1.0000
  C   C21       1.0  0.89256  0.37215  0.02610  1.0000
  C   C22       1.0  0.10744  0.47959  0.47391  1.0000
  C   C23       1.0  0.37215  0.89256  0.47391  1.0000
  C   C24       1.0  0.52041  0.62785  0.47391  1.0000
  C   C25       1.0  0.96118  0.18708  0.69276  1.0000
  C   C26       1.0  0.81292  0.77411  0.69276  1.0000
  C   C27       1.0  0.22589  0.03882  0.69276  1.0000
  C   C28       1.0  0.44077  0.14626  0.14057  1.0000
  C   C29       1.0  0.70548  0.55923  0.14057  1.0000
  C   C30       1.0  0.85374  0.29452  0.14057  1.0000
  C   C31       1.0  0.29452  0.85374  0.35943  1.0000
  C   C32       1.0  0.14626  0.44077  0.35943  1.0000
  C   C33       1.0  0.55923  0.70548  0.35943  1.0000
  C   C34       1.0  0.77411  0.81292  0.80724  1.0000
  C   C35       1.0  0.03882  0.22589  0.80724  1.0000
  C   C36       1.0  0.18708  0.96118  0.80724  1.0000
  C   C37       1.0  0.36617  0.38956  0.93858  1.0000
  C   C38       1.0  0.61044  0.97661  0.93858  1.0000
  C   C39       1.0  0.02339  0.63383  0.93858  1.0000
  C   C40       1.0  0.97661  0.61044  0.56142  1.0000
  C   C41       1.0  0.63383  0.02339  0.56142  1.0000
  C   C42       1.0  0.38956  0.36617  0.56142  1.0000
  C   C43       1.0  0.03284  0.72289  0.27191  1.0000
  C   C44       1.0  0.27711  0.30994  0.27191  1.0000
  C   C45       1.0  0.69006  0.96716  0.27191  1.0000
  C   C46       1.0  0.64328  0.94377  0.89475  1.0000
  C   C47       1.0  0.30050  0.35672  0.89475  1.0000
  C   C48       1.0  0.05623  0.69950  0.89475  1.0000
  C   C49       1.0  0.69950  0.05623  0.60525  1.0000
  C   C50       1.0  0.94377  0.64328  0.60525  1.0000
  C   C51       1.0  0.35672  0.30050  0.60525  1.0000
  C   C52       1.0  0.30994  0.27711  0.22809  1.0000
  C   C53       1.0  0.96716  0.69006  0.22809  1.0000
  C   C54       1.0  0.72289  0.03284  0.22809  1.0000
  C   C55       1.0  0.63383  0.61044  0.06142  1.0000
  C   C56       1.0  0.38956  0.02339  0.06142  1.0000
  C   C57       1.0  0.97661  0.36617  0.06142  1.0000
  C   C58       1.0  0.02339  0.38956  0.43858  1.0000
  C   C59       1.0  0.36617  0.97661  0.43858  1.0000
  C   C60       1.0  0.61044  0.63383  0.43858  1.0000
  C   C61       1.0  0.96716  0.27711  0.72809  1.0000
  C   C62       1.0  0.72289  0.69006  0.72809  1.0000
  C   C63       1.0  0.30994  0.03284  0.72809  1.0000
  C   C64       1.0  0.35672  0.05623  0.10525  1.0000
  C   C65       1.0  0.69950  0.64328  0.10525  1.0000
  C   C66       1.0  0.94377  0.30050  0.10525  1.0000
  C   C67       1.0  0.30050  0.94377  0.39475  1.0000
  C   C68       1.0  0.05623  0.35672  0.39475  1.0000
  C   C69       1.0  0.64328  0.69950  0.39475  1.0000
  C   C70       1.0  0.69006  0.72289  0.77191  1.0000
  C   C71       1.0  0.03284  0.30994  0.77191  1.0000
  C   C72       1.0  0.27711  0.96716  0.77191  1.0000
  C   C73       1.0  0.39873  0.40710  0.96131  1.0000
  C   C74       1.0  0.59290  0.99163  0.96131  1.0000
  C   C75       1.0  0.00837  0.60127  0.96131  1.0000
  C   C76       1.0  0.99163  0.59290  0.53869  1.0000
  C   C77       1.0  0.60127  0.00837  0.53869  1.0000
  C   C78       1.0  0.40710  0.39873  0.53869  1.0000
  C   C79       1.0  0.06540  0.74043  0.29464  1.0000
  C   C80       1.0  0.25957  0.32496  0.29464  1.0000
  C   C81       1.0  0.67504  0.93460  0.29464  1.0000
  C   C82       1.0  0.65830  0.92623  0.87203  1.0000
  C   C83       1.0  0.26794  0.34170  0.87203  1.0000
  C   C84       1.0  0.07377  0.73206  0.87203  1.0000
  C   C85       1.0  0.73206  0.07377  0.62797  1.0000
  C   C86       1.0  0.92623  0.65830  0.62797  1.0000
  C   C87       1.0  0.34170  0.26794  0.62797  1.0000
  C   C88       1.0  0.32496  0.25957  0.20536  1.0000
  C   C89       1.0  0.93460  0.67504  0.20536  1.0000
  C   C90       1.0  0.74043  0.06540  0.20536  1.0000
  C   C91       1.0  0.60127  0.59290  0.03869  1.0000
  C   C92       1.0  0.40710  0.00837  0.03869  1.0000
  C   C93       1.0  0.99163  0.39873  0.03869  1.0000
  C   C94       1.0  0.00837  0.40710  0.46131  1.0000
  C   C95       1.0  0.39873  0.99163  0.46131  1.0000
  C   C96       1.0  0.59290  0.60127  0.46131  1.0000
  C   C97       1.0  0.93460  0.25957  0.70536  1.0000
  C   C98       1.0  0.74043  0.67504  0.70536  1.0000
  C   C99       1.0  0.32496  0.06540  0.70536  1.0000
  C   C100      1.0  0.34170  0.07377  0.12797  1.0000
  C   C101      1.0  0.73206  0.65830  0.12797  1.0000
  C   C102      1.0  0.92623  0.26794  0.12797  1.0000
  C   C103      1.0  0.26794  0.92623  0.37203  1.0000
  C   C104      1.0  0.07377  0.34170  0.37203  1.0000
  C   C105      1.0  0.65830  0.73206  0.37203  1.0000
  C   C106      1.0  0.67504  0.74043  0.79464  1.0000
  C   C107      1.0  0.06540  0.32496  0.79464  1.0000
  C   C108      1.0  0.25957  0.93460  0.79464  1.0000
  C   C109      1.0  0.34960  0.47377  0.92737  1.0000
  C   C110      1.0  0.52623  0.87583  0.92737  1.0000
  C   C111      1.0  0.12417  0.65040  0.92737  1.0000
  C   C112      1.0  0.87583  0.52623  0.57263  1.0000
  C   C113      1.0  0.65040  0.12417  0.57263  1.0000
  C   C114      1.0  0.47377  0.34960  0.57263  1.0000
  C   C115      1.0  0.01627  0.80710  0.26071  1.0000
  C   C116      1.0  0.19290  0.20916  0.26071  1.0000
  C   C117      1.0  0.79084  0.98373  0.26071  1.0000
  C   C118      1.0  0.54250  0.85956  0.90596  1.0000
  C   C119      1.0  0.31707  0.45750  0.90596  1.0000
  C   C120      1.0  0.14044  0.68293  0.90596  1.0000
  C   C121      1.0  0.68293  0.14044  0.59404  1.0000
  C   C122      1.0  0.85956  0.54250  0.59404  1.0000
  C   C123      1.0  0.45750  0.31707  0.59404  1.0000
  C   C124      1.0  0.20916  0.19290  0.23929  1.0000
  C   C125      1.0  0.98373  0.79084  0.23929  1.0000
  C   C126      1.0  0.80710  0.01627  0.23929  1.0000
  C   C127      1.0  0.65040  0.52623  0.07263  1.0000
  C   C128      1.0  0.47377  0.12417  0.07263  1.0000
  C   C129      1.0  0.87583  0.34960  0.07263  1.0000
  C   C130      1.0  0.12417  0.47377  0.42737  1.0000
  C   C131      1.0  0.34960  0.87583  0.42737  1.0000
  C   C132      1.0  0.52623  0.65040  0.42737  1.0000
  C   C133      1.0  0.98373  0.19290  0.73929  1.0000
  C   C134      1.0  0.80710  0.79084  0.73929  1.0000
  C   C135      1.0  0.20916  0.01627  0.73929  1.0000
  C   C136      1.0  0.45750  0.14044  0.09404  1.0000
  C   C137      1.0  0.68293  0.54250  0.09404  1.0000
  C   C138      1.0  0.85956  0.31707  0.09404  1.0000
  C   C139      1.0  0.31707  0.85956  0.40596  1.0000
  C   C140      1.0  0.14044  0.45750  0.40596  1.0000
  C   C141      1.0  0.54250  0.68293  0.40596  1.0000
  C   C142      1.0  0.79084  0.80710  0.76071  1.0000
  C   C143      1.0  0.01627  0.20916  0.76071  1.0000
  C   C144      1.0  0.19290  0.98373  0.76071  1.0000
  H   H1        1.0  0.36080  0.54320  0.93450  1.0000
  H   H2        1.0  0.45680  0.81760  0.93450  1.0000
  H   H3        1.0  0.18240  0.63920  0.93450  1.0000
  H   H4        1.0  0.81760  0.45680  0.56550  1.0000
  H   H5        1.0  0.63920  0.18240  0.56550  1.0000
  H   H6        1.0  0.54320  0.36080  0.56550  1.0000
  H   H7        1.0  0.02747  0.87653  0.26783  1.0000
  H   H8        1.0  0.12347  0.15093  0.26783  1.0000
  H   H9        1.0  0.84907  0.97253  0.26783  1.0000
  H   H10       1.0  0.48427  0.79013  0.89883  1.0000
  H   H11       1.0  0.30587  0.51573  0.89883  1.0000
  H   H12       1.0  0.20987  0.69413  0.89883  1.0000
  H   H13       1.0  0.69413  0.20987  0.60117  1.0000
  H   H14       1.0  0.79013  0.48427  0.60117  1.0000
  H   H15       1.0  0.51573  0.30587  0.60117  1.0000
  H   H16       1.0  0.15093  0.12347  0.23217  1.0000
  H   H17       1.0  0.97253  0.84907  0.23217  1.0000
  H   H18       1.0  0.87653  0.02747  0.23217  1.0000
  H   H19       1.0  0.63920  0.45680  0.06550  1.0000
  H   H20       1.0  0.54320  0.18240  0.06550  1.0000
  H   H21       1.0  0.81760  0.36080  0.06550  1.0000
  H   H22       1.0  0.18240  0.54320  0.43450  1.0000
  H   H23       1.0  0.36080  0.81760  0.43450  1.0000
  H   H24       1.0  0.45680  0.63920  0.43450  1.0000
  H   H25       1.0  0.97253  0.12347  0.73217  1.0000
  H   H26       1.0  0.87653  0.84907  0.73217  1.0000
  H   H27       1.0  0.15093  0.02747  0.73217  1.0000
  H   H28       1.0  0.51573  0.20987  0.10117  1.0000
  H   H29       1.0  0.69413  0.48427  0.10117  1.0000
  H   H30       1.0  0.79013  0.30587  0.10117  1.0000
  H   H31       1.0  0.30587  0.79013  0.39883  1.0000
  H   H32       1.0  0.20987  0.51573  0.39883  1.0000
  H   H33       1.0  0.48427  0.69413  0.39883  1.0000
  H   H34       1.0  0.84907  0.87653  0.76783  1.0000
  H   H35       1.0  0.02747  0.15093  0.76783  1.0000
  H   H36       1.0  0.12347  0.97253  0.76783  1.0000
  C   C145      1.0  0.34933  0.28869  0.92740  1.0000
  C   C146      1.0  0.71131  0.06064  0.92740  1.0000
  C   C147      1.0  0.93936  0.65067  0.92740  1.0000
  C   C148      1.0  0.06064  0.71131  0.57260  1.0000
  C   C149      1.0  0.65067  0.93936  0.57260  1.0000
  C   C150      1.0  0.28869  0.34933  0.57260  1.0000
  C   C151      1.0  0.01600  0.62202  0.26073  1.0000
  C   C152      1.0  0.37798  0.39397  0.26073  1.0000
  C   C153      1.0  0.60603  0.98400  0.26073  1.0000
  C   C154      1.0  0.72731  0.04464  0.90594  1.0000
  C   C155      1.0  0.31734  0.27269  0.90594  1.0000
  C   C156      1.0  0.95536  0.68266  0.90594  1.0000
  C   C157      1.0  0.68266  0.95536  0.59406  1.0000
  C   C158      1.0  0.04464  0.72731  0.59406  1.0000
  C   C159      1.0  0.27269  0.31734  0.59406  1.0000
  C   C160      1.0  0.39397  0.37798  0.23927  1.0000
  C   C161      1.0  0.98400  0.60603  0.23927  1.0000
  C   C162      1.0  0.62202  0.01600  0.23927  1.0000
  C   C163      1.0  0.65067  0.71131  0.07260  1.0000
  C   C164      1.0  0.28869  0.93936  0.07260  1.0000
  C   C165      1.0  0.06064  0.34933  0.07260  1.0000
  C   C166      1.0  0.93936  0.28869  0.42740  1.0000
  C   C167      1.0  0.34933  0.06064  0.42740  1.0000
  C   C168      1.0  0.71131  0.65067  0.42740  1.0000
  C   C169      1.0  0.98400  0.37798  0.73927  1.0000
  C   C170      1.0  0.62202  0.60603  0.73927  1.0000
  C   C171      1.0  0.39397  0.01600  0.73927  1.0000
  C   C172      1.0  0.27269  0.95536  0.09406  1.0000
  C   C173      1.0  0.68266  0.72731  0.09406  1.0000
  C   C174      1.0  0.04464  0.31734  0.09406  1.0000
  C   C175      1.0  0.31734  0.04464  0.40594  1.0000
  C   C176      1.0  0.95536  0.27269  0.40594  1.0000
  C   C177      1.0  0.72731  0.68266  0.40594  1.0000
  C   C178      1.0  0.60603  0.62202  0.76073  1.0000
  C   C179      1.0  0.01600  0.39397  0.76073  1.0000
  C   C180      1.0  0.37798  0.98400  0.76073  1.0000
  H   H37       1.0  0.35990  0.23020  0.93460  1.0000
  H   H38       1.0  0.76980  0.12970  0.93460  1.0000
  H   H39       1.0  0.87030  0.64010  0.93460  1.0000
  H   H40       1.0  0.12970  0.76980  0.56540  1.0000
  H   H41       1.0  0.64010  0.87030  0.56540  1.0000
  H   H42       1.0  0.23020  0.35990  0.56540  1.0000
  H   H43       1.0  0.02657  0.56353  0.26793  1.0000
  H   H44       1.0  0.43647  0.46303  0.26793  1.0000
  H   H45       1.0  0.53697  0.97343  0.26793  1.0000
  H   H46       1.0  0.79637  0.10313  0.89873  1.0000
  H   H47       1.0  0.30677  0.20363  0.89873  1.0000
  H   H48       1.0  0.89687  0.69323  0.89873  1.0000
  H   H49       1.0  0.69323  0.89687  0.60127  1.0000
  H   H50       1.0  0.10313  0.79637  0.60127  1.0000
  H   H51       1.0  0.20363  0.30677  0.60127  1.0000
  H   H52       1.0  0.46303  0.43647  0.23207  1.0000
  H   H53       1.0  0.97343  0.53697  0.23207  1.0000
  H   H54       1.0  0.56353  0.02657  0.23207  1.0000
  H   H55       1.0  0.64010  0.76980  0.06540  1.0000
  H   H56       1.0  0.23020  0.87030  0.06540  1.0000
  H   H57       1.0  0.12970  0.35990  0.06540  1.0000
  H   H58       1.0  0.87030  0.23020  0.43460  1.0000
  H   H59       1.0  0.35990  0.12970  0.43460  1.0000
  H   H60       1.0  0.76980  0.64010  0.43460  1.0000
  H   H61       1.0  0.97343  0.43647  0.73207  1.0000
  H   H62       1.0  0.56353  0.53697  0.73207  1.0000
  H   H63       1.0  0.46303  0.02657  0.73207  1.0000
  H   H64       1.0  0.20363  0.89687  0.10127  1.0000
  H   H65       1.0  0.69323  0.79637  0.10127  1.0000
  H   H66       1.0  0.10313  0.30677  0.10127  1.0000
  H   H67       1.0  0.30677  0.10313  0.39873  1.0000
  H   H68       1.0  0.89687  0.20363  0.39873  1.0000
  H   H69       1.0  0.79637  0.69323  0.39873  1.0000
  H   H70       1.0  0.53697  0.56353  0.76793  1.0000
  H   H71       1.0  0.02657  0.46303  0.76793  1.0000
  H   H72       1.0  0.43647  0.97343  0.76793  1.0000
  C   C181      1.0  0.46874  0.36469  0.97033  1.0000
  C   C182      1.0  0.63531  0.10405  0.97033  1.0000
  C   C183      1.0  0.89595  0.53126  0.97033  1.0000
  C   C184      1.0  0.10405  0.63531  0.52967  1.0000
  C   C185      1.0  0.53126  0.89595  0.52967  1.0000
  C   C186      1.0  0.36469  0.46874  0.52967  1.0000
  C   C187      1.0  0.13541  0.69802  0.30366  1.0000
  C   C188      1.0  0.30198  0.43738  0.30366  1.0000
  C   C189      1.0  0.56262  0.86459  0.30366  1.0000
  C   C190      1.0  0.77072  0.96864  0.86300  1.0000
  C   C191      1.0  0.19793  0.22928  0.86300  1.0000
  C   C192      1.0  0.03136  0.80207  0.86300  1.0000
  C   C193      1.0  0.80207  0.03136  0.63700  1.0000
  C   C194      1.0  0.96864  0.77072  0.63700  1.0000
  C   C195      1.0  0.22928  0.19793  0.63700  1.0000
  C   C196      1.0  0.43738  0.30198  0.19634  1.0000
  C   C197      1.0  0.86459  0.56262  0.19634  1.0000
  C   C198      1.0  0.69802  0.13541  0.19634  1.0000
  C   C199      1.0  0.53126  0.63531  0.02967  1.0000
  C   C200      1.0  0.36469  0.89595  0.02967  1.0000
  C   C201      1.0  0.10405  0.46874  0.02967  1.0000
  C   C202      1.0  0.89595  0.36469  0.47033  1.0000
  C   C203      1.0  0.46874  0.10405  0.47033  1.0000
  C   C204      1.0  0.63531  0.53126  0.47033  1.0000
  C   C205      1.0  0.86459  0.30198  0.69634  1.0000
  C   C206      1.0  0.69802  0.56262  0.69634  1.0000
  C   C207      1.0  0.43738  0.13541  0.69634  1.0000
  C   C208      1.0  0.22928  0.03136  0.13700  1.0000
  C   C209      1.0  0.80207  0.77072  0.13700  1.0000
  C   C210      1.0  0.96864  0.19793  0.13700  1.0000
  C   C211      1.0  0.19793  0.96864  0.36300  1.0000
  C   C212      1.0  0.03136  0.22928  0.36300  1.0000
  C   C213      1.0  0.77072  0.80207  0.36300  1.0000
  C   C214      1.0  0.56262  0.69802  0.80366  1.0000
  C   C215      1.0  0.13541  0.43738  0.80366  1.0000
  C   C216      1.0  0.30198  0.86459  0.80366  1.0000
  N   N37       1.0  0.52882  0.33162  0.97772  1.0000
  N   N38       1.0  0.66838  0.19720  0.97772  1.0000
  N   N39       1.0  0.80280  0.47118  0.97772  1.0000
  N   N40       1.0  0.19720  0.66838  0.52228  1.0000
  N   N41       1.0  0.47118  0.80280  0.52228  1.0000
  N   N42       1.0  0.33162  0.52882  0.52228  1.0000
  N   N43       1.0  0.19549  0.66495  0.31105  1.0000
  N   N44       1.0  0.33505  0.53053  0.31105  1.0000
  N   N45       1.0  0.46947  0.80451  0.31105  1.0000
  N   N46       1.0  0.86387  0.00171  0.85561  1.0000
  N   N47       1.0  0.13785  0.13613  0.85561  1.0000
  N   N48       1.0  0.99829  0.86215  0.85561  1.0000
  N   N49       1.0  0.86215  0.99829  0.64439  1.0000
  N   N50       1.0  0.00171  0.86387  0.64439  1.0000
  N   N51       1.0  0.13613  0.13785  0.64439  1.0000
  N   N52       1.0  0.53053  0.33505  0.18895  1.0000
  N   N53       1.0  0.80451  0.46947  0.18895  1.0000
  N   N54       1.0  0.66495  0.19549  0.18895  1.0000
  N   N55       1.0  0.47118  0.66838  0.02228  1.0000
  N   N56       1.0  0.33162  0.80280  0.02228  1.0000
  N   N57       1.0  0.19720  0.52882  0.02228  1.0000
  N   N58       1.0  0.80280  0.33162  0.47772  1.0000
  N   N59       1.0  0.52882  0.19720  0.47772  1.0000
  N   N60       1.0  0.66838  0.47118  0.47772  1.0000
  N   N61       1.0  0.80451  0.33505  0.68895  1.0000
  N   N62       1.0  0.66495  0.46947  0.68895  1.0000
  N   N63       1.0  0.53053  0.19549  0.68895  1.0000
  N   N64       1.0  0.13613  0.99829  0.14439  1.0000
  N   N65       1.0  0.86215  0.86387  0.14439  1.0000
  N   N66       1.0  0.00171  0.13785  0.14439  1.0000
  N   N67       1.0  0.13785  0.00171  0.35561  1.0000
  N   N68       1.0  0.99829  0.13613  0.35561  1.0000
  N   N69       1.0  0.86387  0.86215  0.35561  1.0000
  N   N70       1.0  0.46947  0.66495  0.81105  1.0000
  N   N71       1.0  0.19549  0.53053  0.81105  1.0000
  N   N72       1.0  0.33505  0.80451  0.81105  1.0000
