data_image0
_chemical_formula_structural       C4H4C4H4C4H4C8N8O8I8Hg4
_chemical_formula_sum              "C20 H12 N8 O8 I8 Hg4"
_cell_length_a       18.339
_cell_length_b       7.1315
_cell_length_c       12.955
_cell_angle_alpha    90
_cell_angle_beta     104.43
_cell_angle_gamma    90

_space_group_name_H-M_alt    "P 1"
_space_group_IT_number       1

loop_
  _space_group_symop_operation_xyz
  'x, y, z'

loop_
  _atom_site_type_symbol
  _atom_site_label
  _atom_site_symmetry_multiplicity
  _atom_site_fract_x
  _atom_site_fract_y
  _atom_site_fract_z
  _atom_site_occupancy
  C   C1        1.0  0.25960  0.40100  0.16700  1.0000
  C   C2        1.0  0.74040  0.90100  0.33300  1.0000
  C   C3        1.0  0.74040  0.59900  0.83300  1.0000
  C   C4        1.0  0.25960  0.09900  0.66700  1.0000
  H   H1        1.0  0.26310  0.39650  0.09660  1.0000
  H   H2        1.0  0.73690  0.89650  0.40340  1.0000
  H   H3        1.0  0.73690  0.60350  0.90340  1.0000
  H   H4        1.0  0.26310  0.10350  0.59660  1.0000
  C   C5        1.0  0.19350  0.43600  0.18410  1.0000
  C   C6        1.0  0.80650  0.93600  0.31590  1.0000
  C   C7        1.0  0.80650  0.56400  0.81590  1.0000
  C   C8        1.0  0.19350  0.06400  0.68410  1.0000
  H   H5        1.0  0.15240  0.45670  0.12670  1.0000
  H   H6        1.0  0.84760  0.95670  0.37330  1.0000
  H   H7        1.0  0.84760  0.54330  0.87330  1.0000
  H   H8        1.0  0.15240  0.04330  0.62670  1.0000
  C   C9        1.0  0.24490  0.41100  0.36500  1.0000
  C   C10       1.0  0.75510  0.91100  0.13500  1.0000
  C   C11       1.0  0.75510  0.58900  0.63500  1.0000
  C   C12       1.0  0.24490  0.08900  0.86500  1.0000
  H   H9        1.0  0.24190  0.40940  0.43560  1.0000
  H   H10       1.0  0.75810  0.90940  0.06440  1.0000
  H   H11       1.0  0.75810  0.59060  0.56440  1.0000
  H   H12       1.0  0.24190  0.09060  0.93560  1.0000
  C   C13       1.0  0.31530  0.37900  0.34020  1.0000
  C   C14       1.0  0.68470  0.87900  0.15980  1.0000
  C   C15       1.0  0.68470  0.62100  0.65980  1.0000
  C   C16       1.0  0.31530  0.12100  0.84020  1.0000
  C   C17       1.0  0.38300  0.34300  0.42780  1.0000
  C   C18       1.0  0.61700  0.84300  0.07220  1.0000
  C   C19       1.0  0.61700  0.65700  0.57220  1.0000
  C   C20       1.0  0.38300  0.15700  0.92780  1.0000
  N   N1        1.0  0.32020  0.37300  0.24090  1.0000
  N   N2        1.0  0.67980  0.87300  0.25910  1.0000
  N   N3        1.0  0.67980  0.62700  0.75910  1.0000
  N   N4        1.0  0.32020  0.12700  0.74090  1.0000
  N   N5        1.0  0.18420  0.44200  0.28800  1.0000
  N   N6        1.0  0.81580  0.94200  0.21200  1.0000
  N   N7        1.0  0.81580  0.55800  0.71200  1.0000
  N   N8        1.0  0.18420  0.05800  0.78800  1.0000
  O   O1        1.0  0.37300  0.35200  0.51930  1.0000
  O   O2        1.0  0.62700  0.85200  0.98070  1.0000
  O   O3        1.0  0.62700  0.64800  0.48070  1.0000
  O   O4        1.0  0.37300  0.14800  0.01930  1.0000
  O   O5        1.0  0.44390  0.30080  0.40850  1.0000
  O   O6        1.0  0.55610  0.80080  0.09150  1.0000
  O   O7        1.0  0.55610  0.69920  0.59150  1.0000
  O   O8        1.0  0.44390  0.19920  0.90850  1.0000
  I   I1        1.0  0.97496  0.53832  0.15017  1.0000
  I   I2        1.0  0.02504  0.03832  0.34983  1.0000
  I   I3        1.0  0.02504  0.46168  0.84983  1.0000
  I   I4        1.0  0.97496  0.96168  0.65017  1.0000
  I   I5        1.0  0.11908  0.53680  0.55000  1.0000
  I   I6        1.0  0.88092  0.03680  0.95000  1.0000
  I   I7        1.0  0.88092  0.46320  0.45000  1.0000
  I   I8        1.0  0.11908  0.96320  0.05000  1.0000
  Hg  Hg1       1.0  0.06147  0.50617  0.34400  1.0000
  Hg  Hg2       1.0  0.93853  0.00617  0.15600  1.0000
  Hg  Hg3       1.0  0.93853  0.49383  0.65600  1.0000
  Hg  Hg4       1.0  0.06147  0.99383  0.84400  1.0000
