data_image0
_chemical_formula_structural       In4O32C64H8C8H8C8H8C16H8C8H16C8H16N16H8C16H8N24C8N8H8C24H8C8H8C8H8C8H8C8O16
_chemical_formula_sum              "In4 O48 C192 H120 N48"
_cell_length_a       28.5747
_cell_length_b       24.1316
_cell_length_c       13.7602
_cell_angle_alpha    90
_cell_angle_beta     100.767
_cell_angle_gamma    90

_space_group_name_H-M_alt    "P 1"
_space_group_IT_number       1

loop_
  _space_group_symop_operation_xyz
  'x, y, z'

loop_
  _atom_site_type_symbol
  _atom_site_label
  _atom_site_symmetry_multiplicity
  _atom_site_fract_x
  _atom_site_fract_y
  _atom_site_fract_z
  _atom_site_occupancy
  In  In1       1.0  0.00000  0.84815  0.75000  1.0000
  In  In2       1.0  0.50000  0.34815  0.75000  1.0000
  In  In3       1.0  0.00000  0.15185  0.25000  1.0000
  In  In4       1.0  0.50000  0.65185  0.25000  1.0000
  O   O1        1.0  0.94076  0.81146  0.64316  1.0000
  O   O2        1.0  0.05924  0.81146  0.85684  1.0000
  O   O3        1.0  0.44076  0.31146  0.64316  1.0000
  O   O4        1.0  0.55924  0.31146  0.85684  1.0000
  O   O5        1.0  0.05924  0.18854  0.35684  1.0000
  O   O6        1.0  0.94076  0.18854  0.14316  1.0000
  O   O7        1.0  0.55924  0.68854  0.35684  1.0000
  O   O8        1.0  0.44076  0.68854  0.14316  1.0000
  O   O9        1.0  0.95091  0.77862  0.79145  1.0000
  O   O10       1.0  0.04909  0.77862  0.70855  1.0000
  O   O11       1.0  0.45091  0.27862  0.79145  1.0000
  O   O12       1.0  0.54909  0.27862  0.70855  1.0000
  O   O13       1.0  0.04909  0.22138  0.20855  1.0000
  O   O14       1.0  0.95091  0.22138  0.29145  1.0000
  O   O15       1.0  0.54909  0.72138  0.20855  1.0000
  O   O16       1.0  0.45091  0.72138  0.29145  1.0000
  O   O17       1.0  0.51096  0.38696  0.60367  1.0000
  O   O18       1.0  0.48904  0.38696  0.89633  1.0000
  O   O19       1.0  0.01096  0.88696  0.60367  1.0000
  O   O20       1.0  0.98904  0.88696  0.89633  1.0000
  O   O21       1.0  0.48904  0.61304  0.39633  1.0000
  O   O22       1.0  0.51096  0.61304  0.10367  1.0000
  O   O23       1.0  0.98904  0.11304  0.39633  1.0000
  O   O24       1.0  0.01096  0.11304  0.10367  1.0000
  O   O25       1.0  0.55346  0.41863  0.73953  1.0000
  O   O26       1.0  0.44654  0.41863  0.76047  1.0000
  O   O27       1.0  0.05346  0.91863  0.73953  1.0000
  O   O28       1.0  0.94654  0.91863  0.76047  1.0000
  O   O29       1.0  0.44654  0.58137  0.26047  1.0000
  O   O30       1.0  0.55346  0.58137  0.23953  1.0000
  O   O31       1.0  0.94654  0.08137  0.26047  1.0000
  O   O32       1.0  0.05346  0.08137  0.23953  1.0000
  C   C1        1.0  0.92796  0.77909  0.70580  1.0000
  C   C2        1.0  0.07204  0.77909  0.79420  1.0000
  C   C3        1.0  0.42796  0.27909  0.70580  1.0000
  C   C4        1.0  0.57204  0.27909  0.79420  1.0000
  C   C5        1.0  0.07204  0.22091  0.29420  1.0000
  C   C6        1.0  0.92796  0.22091  0.20580  1.0000
  C   C7        1.0  0.57204  0.72091  0.29420  1.0000
  C   C8        1.0  0.42796  0.72091  0.20580  1.0000
  C   C9        1.0  0.54249  0.41959  0.64695  1.0000
  C   C10       1.0  0.45751  0.41959  0.85305  1.0000
  C   C11       1.0  0.04249  0.91959  0.64695  1.0000
  C   C12       1.0  0.95751  0.91959  0.85305  1.0000
  C   C13       1.0  0.45751  0.58041  0.35305  1.0000
  C   C14       1.0  0.54249  0.58041  0.14695  1.0000
  C   C15       1.0  0.95751  0.08041  0.35305  1.0000
  C   C16       1.0  0.04249  0.08041  0.14695  1.0000
  C   C17       1.0  0.88559  0.74336  0.67330  1.0000
  C   C18       1.0  0.11441  0.74336  0.82670  1.0000
  C   C19       1.0  0.38559  0.24336  0.67330  1.0000
  C   C20       1.0  0.61441  0.24336  0.82670  1.0000
  C   C21       1.0  0.11441  0.25664  0.32670  1.0000
  C   C22       1.0  0.88559  0.25664  0.17330  1.0000
  C   C23       1.0  0.61441  0.75664  0.32670  1.0000
  C   C24       1.0  0.38559  0.75664  0.17330  1.0000
  C   C25       1.0  0.56597  0.45891  0.58835  1.0000
  C   C26       1.0  0.43403  0.45891  0.91165  1.0000
  C   C27       1.0  0.06597  0.95891  0.58835  1.0000
  C   C28       1.0  0.93403  0.95891  0.91165  1.0000
  C   C29       1.0  0.43403  0.54109  0.41165  1.0000
  C   C30       1.0  0.56597  0.54109  0.08835  1.0000
  C   C31       1.0  0.93403  0.04109  0.41165  1.0000
  C   C32       1.0  0.06597  0.04109  0.08835  1.0000
  C   C33       1.0  0.85930  0.74857  0.57870  1.0000
  C   C34       1.0  0.14070  0.74857  0.92130  1.0000
  C   C35       1.0  0.35930  0.24857  0.57870  1.0000
  C   C36       1.0  0.64070  0.24857  0.92130  1.0000
  C   C37       1.0  0.14070  0.25143  0.42130  1.0000
  C   C38       1.0  0.85930  0.25143  0.07870  1.0000
  C   C39       1.0  0.64070  0.75143  0.42130  1.0000
  C   C40       1.0  0.35930  0.75143  0.07870  1.0000
  C   C41       1.0  0.87000  0.70755  0.73830  1.0000
  C   C42       1.0  0.13000  0.70755  0.76170  1.0000
  C   C43       1.0  0.37000  0.20755  0.73830  1.0000
  C   C44       1.0  0.63000  0.20755  0.76170  1.0000
  C   C45       1.0  0.13000  0.29245  0.26170  1.0000
  C   C46       1.0  0.87000  0.29245  0.23830  1.0000
  C   C47       1.0  0.63000  0.79245  0.26170  1.0000
  C   C48       1.0  0.37000  0.79245  0.23830  1.0000
  C   C49       1.0  0.60482  0.49061  0.63042  1.0000
  C   C50       1.0  0.39518  0.49061  0.86958  1.0000
  C   C51       1.0  0.10482  0.99061  0.63042  1.0000
  C   C52       1.0  0.89518  0.99061  0.86958  1.0000
  C   C53       1.0  0.39518  0.50939  0.36958  1.0000
  C   C54       1.0  0.60482  0.50939  0.13042  1.0000
  C   C55       1.0  0.89518  0.00939  0.36958  1.0000
  C   C56       1.0  0.10482  0.00939  0.13042  1.0000
  C   C57       1.0  0.54857  0.46494  0.48779  1.0000
  C   C58       1.0  0.45143  0.46494  0.01221  1.0000
  C   C59       1.0  0.04857  0.96494  0.48779  1.0000
  C   C60       1.0  0.95143  0.96494  0.01221  1.0000
  C   C61       1.0  0.45143  0.53506  0.51221  1.0000
  C   C62       1.0  0.54857  0.53506  0.98779  1.0000
  C   C63       1.0  0.95143  0.03506  0.51221  1.0000
  C   C64       1.0  0.04857  0.03506  0.98779  1.0000
  H   H1        1.0  0.86889  0.77413  0.53579  1.0000
  H   H2        1.0  0.13111  0.77413  0.96421  1.0000
  H   H3        1.0  0.36889  0.27413  0.53579  1.0000
  H   H4        1.0  0.63111  0.27413  0.96421  1.0000
  H   H5        1.0  0.13111  0.22587  0.46421  1.0000
  H   H6        1.0  0.86889  0.22587  0.03579  1.0000
  H   H7        1.0  0.63111  0.72587  0.46421  1.0000
  H   H8        1.0  0.36889  0.72587  0.03579  1.0000
  C   C65       1.0  0.81902  0.71677  0.54600  1.0000
  C   C66       1.0  0.18098  0.71677  0.95400  1.0000
  C   C67       1.0  0.31902  0.21677  0.54600  1.0000
  C   C68       1.0  0.68098  0.21677  0.95400  1.0000
  C   C69       1.0  0.18098  0.28323  0.45400  1.0000
  C   C70       1.0  0.81902  0.28323  0.04600  1.0000
  C   C71       1.0  0.68098  0.78323  0.45400  1.0000
  C   C72       1.0  0.31902  0.78323  0.04600  1.0000
  H   H9        1.0  0.88592  0.70557  0.80360  1.0000
  H   H10       1.0  0.11408  0.70557  0.69640  1.0000
  H   H11       1.0  0.38592  0.20557  0.80360  1.0000
  H   H12       1.0  0.61408  0.20557  0.69640  1.0000
  H   H13       1.0  0.11408  0.29443  0.19640  1.0000
  H   H14       1.0  0.88592  0.29443  0.30360  1.0000
  H   H15       1.0  0.61408  0.79443  0.19640  1.0000
  H   H16       1.0  0.38592  0.79443  0.30360  1.0000
  C   C73       1.0  0.83007  0.67406  0.70580  1.0000
  C   C74       1.0  0.16993  0.67406  0.79420  1.0000
  C   C75       1.0  0.33007  0.17406  0.70580  1.0000
  C   C76       1.0  0.66993  0.17406  0.79420  1.0000
  C   C77       1.0  0.16993  0.32594  0.29420  1.0000
  C   C78       1.0  0.83007  0.32594  0.20580  1.0000
  C   C79       1.0  0.66993  0.82594  0.29420  1.0000
  C   C80       1.0  0.33007  0.82594  0.20580  1.0000
  H   H17       1.0  0.61666  0.48736  0.69788  1.0000
  H   H18       1.0  0.38334  0.48736  0.80212  1.0000
  H   H19       1.0  0.11666  0.98736  0.69788  1.0000
  H   H20       1.0  0.88334  0.98736  0.80212  1.0000
  H   H21       1.0  0.38334  0.51264  0.30212  1.0000
  H   H22       1.0  0.61666  0.51264  0.19788  1.0000
  H   H23       1.0  0.88334  0.01264  0.30212  1.0000
  H   H24       1.0  0.11666  0.01264  0.19788  1.0000
  C   C81       1.0  0.62675  0.52725  0.57480  1.0000
  C   C82       1.0  0.37325  0.52725  0.92520  1.0000
  C   C83       1.0  0.12675  0.02725  0.57480  1.0000
  C   C84       1.0  0.87325  0.02725  0.92520  1.0000
  C   C85       1.0  0.37325  0.47275  0.42520  1.0000
  C   C86       1.0  0.62675  0.47275  0.07480  1.0000
  C   C87       1.0  0.87325  0.97275  0.42520  1.0000
  C   C88       1.0  0.12675  0.97275  0.07480  1.0000
  C   C89       1.0  0.56889  0.50138  0.43177  1.0000
  C   C90       1.0  0.43111  0.50138  0.06823  1.0000
  C   C91       1.0  0.06889  0.00138  0.43177  1.0000
  C   C92       1.0  0.93111  0.00138  0.06823  1.0000
  C   C93       1.0  0.43111  0.49862  0.56823  1.0000
  C   C94       1.0  0.56889  0.49862  0.93177  1.0000
  C   C95       1.0  0.93111  0.99862  0.56823  1.0000
  C   C96       1.0  0.06889  0.99862  0.93177  1.0000
  H   H25       1.0  0.52261  0.44382  0.45792  1.0000
  H   H26       1.0  0.47739  0.44382  0.04208  1.0000
  H   H27       1.0  0.02261  0.94382  0.45792  1.0000
  H   H28       1.0  0.97739  0.94382  0.04208  1.0000
  H   H29       1.0  0.47739  0.55618  0.54208  1.0000
  H   H30       1.0  0.52261  0.55618  0.95792  1.0000
  H   H31       1.0  0.97739  0.05618  0.54208  1.0000
  H   H32       1.0  0.02261  0.05618  0.95792  1.0000
  C   C97       1.0  0.80417  0.67878  0.60990  1.0000
  C   C98       1.0  0.19583  0.67878  0.89010  1.0000
  C   C99       1.0  0.30417  0.17878  0.60990  1.0000
  C   C100      1.0  0.69583  0.17878  0.89010  1.0000
  C   C101      1.0  0.19583  0.32122  0.39010  1.0000
  C   C102      1.0  0.80417  0.32122  0.10990  1.0000
  C   C103      1.0  0.69583  0.82122  0.39010  1.0000
  C   C104      1.0  0.30417  0.82122  0.10990  1.0000
  H   H33       1.0  0.80207  0.72082  0.48174  1.0000
  H   H34       1.0  0.19793  0.72082  0.01826  1.0000
  H   H35       1.0  0.30207  0.22082  0.48174  1.0000
  H   H36       1.0  0.69793  0.22082  0.01826  1.0000
  H   H37       1.0  0.19793  0.27918  0.51826  1.0000
  H   H38       1.0  0.80207  0.27918  0.98174  1.0000
  H   H39       1.0  0.69793  0.77918  0.51826  1.0000
  H   H40       1.0  0.30207  0.77918  0.98174  1.0000
  H   H41       1.0  0.82077  0.64835  0.74879  1.0000
  H   H42       1.0  0.17923  0.64835  0.75121  1.0000
  H   H43       1.0  0.32077  0.14835  0.74879  1.0000
  H   H44       1.0  0.67923  0.14835  0.75121  1.0000
  H   H45       1.0  0.17923  0.35165  0.25121  1.0000
  H   H46       1.0  0.82077  0.35165  0.24879  1.0000
  H   H47       1.0  0.67923  0.85165  0.25121  1.0000
  H   H48       1.0  0.32077  0.85165  0.24879  1.0000
  C   C105      1.0  0.60825  0.53318  0.47420  1.0000
  C   C106      1.0  0.39175  0.53318  0.02580  1.0000
  C   C107      1.0  0.10825  0.03318  0.47420  1.0000
  C   C108      1.0  0.89175  0.03318  0.02580  1.0000
  C   C109      1.0  0.39175  0.46682  0.52580  1.0000
  C   C110      1.0  0.60825  0.46682  0.97420  1.0000
  C   C111      1.0  0.89175  0.96682  0.52580  1.0000
  C   C112      1.0  0.10825  0.96682  0.97420  1.0000
  H   H49       1.0  0.65334  0.54746  0.60435  1.0000
  H   H50       1.0  0.34666  0.54746  0.89565  1.0000
  H   H51       1.0  0.15334  0.04746  0.60435  1.0000
  H   H52       1.0  0.84666  0.04746  0.89565  1.0000
  H   H53       1.0  0.34666  0.45254  0.39565  1.0000
  H   H54       1.0  0.65334  0.45254  0.10435  1.0000
  H   H55       1.0  0.84666  0.95254  0.39565  1.0000
  H   H56       1.0  0.15334  0.95254  0.10435  1.0000
  H   H57       1.0  0.55635  0.50501  0.36467  1.0000
  H   H58       1.0  0.44365  0.50501  0.13533  1.0000
  H   H59       1.0  0.05635  0.00501  0.36467  1.0000
  H   H60       1.0  0.94365  0.00501  0.13533  1.0000
  H   H61       1.0  0.44365  0.49499  0.63533  1.0000
  H   H62       1.0  0.55635  0.49499  0.86467  1.0000
  H   H63       1.0  0.94365  0.99499  0.63533  1.0000
  H   H64       1.0  0.05635  0.99499  0.86467  1.0000
  N   N1        1.0  0.76319  0.64625  0.58620  1.0000
  N   N2        1.0  0.23681  0.64625  0.91380  1.0000
  N   N3        1.0  0.26319  0.14625  0.58620  1.0000
  N   N4        1.0  0.73681  0.14625  0.91380  1.0000
  N   N5        1.0  0.23681  0.35375  0.41380  1.0000
  N   N6        1.0  0.76319  0.35375  0.08620  1.0000
  N   N7        1.0  0.73681  0.85375  0.41380  1.0000
  N   N8        1.0  0.26319  0.85375  0.08620  1.0000
  N   N9        1.0  0.62572  0.56826  0.40896  1.0000
  N   N10       1.0  0.37428  0.56826  0.09104  1.0000
  N   N11       1.0  0.12572  0.06826  0.40896  1.0000
  N   N12       1.0  0.87428  0.06826  0.09104  1.0000
  N   N13       1.0  0.37428  0.43174  0.59104  1.0000
  N   N14       1.0  0.62572  0.43174  0.90896  1.0000
  N   N15       1.0  0.87428  0.93174  0.59104  1.0000
  N   N16       1.0  0.12572  0.93174  0.90896  1.0000
  H   H65       1.0  0.75583  0.62811  0.63503  1.0000
  H   H66       1.0  0.24417  0.62811  0.86497  1.0000
  H   H67       1.0  0.25583  0.12811  0.63503  1.0000
  H   H68       1.0  0.74417  0.12811  0.86497  1.0000
  H   H69       1.0  0.24417  0.37189  0.36497  1.0000
  H   H70       1.0  0.75583  0.37189  0.13503  1.0000
  H   H71       1.0  0.74417  0.87189  0.36497  1.0000
  H   H72       1.0  0.25583  0.87189  0.13503  1.0000
  C   C113      1.0  0.73296  0.63868  0.49780  1.0000
  C   C114      1.0  0.26704  0.63868  0.00220  1.0000
  C   C115      1.0  0.23296  0.13868  0.49780  1.0000
  C   C116      1.0  0.76704  0.13868  0.00220  1.0000
  C   C117      1.0  0.26704  0.36132  0.50220  1.0000
  C   C118      1.0  0.73296  0.36132  0.99780  1.0000
  C   C119      1.0  0.76704  0.86132  0.50220  1.0000
  C   C120      1.0  0.23296  0.86132  0.99780  1.0000
  C   C121      1.0  0.66538  0.60086  0.41860  1.0000
  C   C122      1.0  0.33462  0.60086  0.08140  1.0000
  C   C123      1.0  0.16538  0.10086  0.41860  1.0000
  C   C124      1.0  0.83462  0.10086  0.08140  1.0000
  C   C125      1.0  0.33462  0.39914  0.58140  1.0000
  C   C126      1.0  0.66538  0.39914  0.91860  1.0000
  C   C127      1.0  0.83462  0.89914  0.58140  1.0000
  C   C128      1.0  0.16538  0.89914  0.91860  1.0000
  H   H73       1.0  0.60802  0.56967  0.35114  1.0000
  H   H74       1.0  0.39198  0.56967  0.14886  1.0000
  H   H75       1.0  0.10802  0.06967  0.35114  1.0000
  H   H76       1.0  0.89198  0.06967  0.14886  1.0000
  H   H77       1.0  0.39198  0.43033  0.64886  1.0000
  H   H78       1.0  0.60802  0.43033  0.85114  1.0000
  H   H79       1.0  0.89198  0.93033  0.64886  1.0000
  H   H80       1.0  0.10802  0.93033  0.85114  1.0000
  N   N17       1.0  0.69472  0.60614  0.50473  1.0000
  N   N18       1.0  0.30528  0.60614  0.99527  1.0000
  N   N19       1.0  0.19472  0.10614  0.50473  1.0000
  N   N20       1.0  0.80528  0.10614  0.99527  1.0000
  N   N21       1.0  0.30528  0.39386  0.49527  1.0000
  N   N22       1.0  0.69472  0.39386  0.00473  1.0000
  N   N23       1.0  0.80528  0.89386  0.49527  1.0000
  N   N24       1.0  0.19472  0.89386  0.00473  1.0000
  N   N25       1.0  0.74212  0.66289  0.41730  1.0000
  N   N26       1.0  0.25788  0.66289  0.08270  1.0000
  N   N27       1.0  0.24212  0.16289  0.41730  1.0000
  N   N28       1.0  0.75788  0.16289  0.08270  1.0000
  N   N29       1.0  0.25788  0.33711  0.58270  1.0000
  N   N30       1.0  0.74212  0.33711  0.91730  1.0000
  N   N31       1.0  0.75788  0.83711  0.58270  1.0000
  N   N32       1.0  0.24212  0.83711  0.91730  1.0000
  N   N33       1.0  0.66948  0.62429  0.33100  1.0000
  N   N34       1.0  0.33052  0.62429  0.16900  1.0000
  N   N35       1.0  0.16948  0.12429  0.33100  1.0000
  N   N36       1.0  0.83052  0.12429  0.16900  1.0000
  N   N37       1.0  0.33052  0.37571  0.66900  1.0000
  N   N38       1.0  0.66948  0.37571  0.83100  1.0000
  N   N39       1.0  0.83052  0.87571  0.66900  1.0000
  N   N40       1.0  0.16948  0.87571  0.83100  1.0000
  C   C129      1.0  0.70814  0.65559  0.33640  1.0000
  C   C130      1.0  0.29186  0.65559  0.16360  1.0000
  C   C131      1.0  0.20814  0.15559  0.33640  1.0000
  C   C132      1.0  0.79186  0.15559  0.16360  1.0000
  C   C133      1.0  0.29186  0.34441  0.66360  1.0000
  C   C134      1.0  0.70814  0.34441  0.83640  1.0000
  C   C135      1.0  0.79186  0.84441  0.66360  1.0000
  C   C136      1.0  0.20814  0.84441  0.83640  1.0000
  N   N41       1.0  0.71688  0.68217  0.25400  1.0000
  N   N42       1.0  0.28312  0.68217  0.24600  1.0000
  N   N43       1.0  0.21688  0.18217  0.25400  1.0000
  N   N44       1.0  0.78312  0.18217  0.24600  1.0000
  N   N45       1.0  0.28312  0.31783  0.74600  1.0000
  N   N46       1.0  0.71688  0.31783  0.75400  1.0000
  N   N47       1.0  0.78312  0.81783  0.74600  1.0000
  N   N48       1.0  0.21688  0.81783  0.75400  1.0000
  H   H81       1.0  0.74457  0.69718  0.26006  1.0000
  H   H82       1.0  0.25543  0.69718  0.23994  1.0000
  H   H83       1.0  0.24457  0.19718  0.26006  1.0000
  H   H84       1.0  0.75543  0.19718  0.23994  1.0000
  H   H85       1.0  0.25543  0.30282  0.73994  1.0000
  H   H86       1.0  0.74457  0.30282  0.76006  1.0000
  H   H87       1.0  0.75543  0.80282  0.73994  1.0000
  H   H88       1.0  0.24457  0.80282  0.76006  1.0000
  C   C137      1.0  0.68716  0.68874  0.16000  1.0000
  C   C138      1.0  0.31284  0.68874  0.34000  1.0000
  C   C139      1.0  0.18716  0.18874  0.16000  1.0000
  C   C140      1.0  0.81284  0.18874  0.34000  1.0000
  C   C141      1.0  0.31284  0.31126  0.84000  1.0000
  C   C142      1.0  0.68716  0.31126  0.66000  1.0000
  C   C143      1.0  0.81284  0.81126  0.84000  1.0000
  C   C144      1.0  0.18716  0.81126  0.66000  1.0000
  C   C145      1.0  0.64385  0.66374  0.13050  1.0000
  C   C146      1.0  0.35615  0.66374  0.36950  1.0000
  C   C147      1.0  0.14385  0.16374  0.13050  1.0000
  C   C148      1.0  0.85615  0.16374  0.36950  1.0000
  C   C149      1.0  0.35615  0.33626  0.86950  1.0000
  C   C150      1.0  0.64385  0.33626  0.63050  1.0000
  C   C151      1.0  0.85615  0.83626  0.86950  1.0000
  C   C152      1.0  0.14385  0.83626  0.63050  1.0000
  C   C153      1.0  0.70367  0.72360  0.09350  1.0000
  C   C154      1.0  0.29633  0.72360  0.40650  1.0000
  C   C155      1.0  0.20367  0.22360  0.09350  1.0000
  C   C156      1.0  0.79633  0.22360  0.40650  1.0000
  C   C157      1.0  0.29633  0.27640  0.90650  1.0000
  C   C158      1.0  0.70367  0.27640  0.59350  1.0000
  C   C159      1.0  0.79633  0.77640  0.90650  1.0000
  C   C160      1.0  0.20367  0.77640  0.59350  1.0000
  H   H89       1.0  0.63227  0.63961  0.17315  1.0000
  H   H90       1.0  0.36773  0.63961  0.32685  1.0000
  H   H91       1.0  0.13227  0.13961  0.17315  1.0000
  H   H92       1.0  0.86773  0.13961  0.32685  1.0000
  H   H93       1.0  0.36773  0.36039  0.82685  1.0000
  H   H94       1.0  0.63227  0.36039  0.67315  1.0000
  H   H95       1.0  0.86773  0.86039  0.82685  1.0000
  H   H96       1.0  0.13227  0.86039  0.67315  1.0000
  C   C161      1.0  0.61741  0.67410  0.03830  1.0000
  C   C162      1.0  0.38259  0.67410  0.46170  1.0000
  C   C163      1.0  0.11741  0.17410  0.03830  1.0000
  C   C164      1.0  0.88259  0.17410  0.46170  1.0000
  C   C165      1.0  0.38259  0.32590  0.96170  1.0000
  C   C166      1.0  0.61741  0.32590  0.53830  1.0000
  C   C167      1.0  0.88259  0.82590  0.96170  1.0000
  C   C168      1.0  0.11741  0.82590  0.53830  1.0000
  H   H97       1.0  0.73338  0.74030  0.11122  1.0000
  H   H98       1.0  0.26662  0.74030  0.38878  1.0000
  H   H99       1.0  0.23338  0.24030  0.11122  1.0000
  H   H100      1.0  0.76662  0.24030  0.38878  1.0000
  H   H101      1.0  0.26662  0.25970  0.88878  1.0000
  H   H102      1.0  0.73338  0.25970  0.61122  1.0000
  H   H103      1.0  0.76662  0.75970  0.88878  1.0000
  H   H104      1.0  0.23338  0.75970  0.61122  1.0000
  C   C169      1.0  0.67632  0.73370  0.00130  1.0000
  C   C170      1.0  0.32368  0.73370  0.49870  1.0000
  C   C171      1.0  0.17632  0.23370  0.00130  1.0000
  C   C172      1.0  0.82368  0.23370  0.49870  1.0000
  C   C173      1.0  0.32368  0.26630  0.99870  1.0000
  C   C174      1.0  0.67632  0.26630  0.50130  1.0000
  C   C175      1.0  0.82368  0.76630  0.99870  1.0000
  C   C176      1.0  0.17632  0.76630  0.50130  1.0000
  H   H105      1.0  0.58808  0.65662  0.01979  1.0000
  H   H106      1.0  0.41192  0.65662  0.48021  1.0000
  H   H107      1.0  0.08808  0.15662  0.01979  1.0000
  H   H108      1.0  0.91192  0.15662  0.48021  1.0000
  H   H109      1.0  0.41192  0.34338  0.98021  1.0000
  H   H110      1.0  0.58808  0.34338  0.51979  1.0000
  H   H111      1.0  0.91192  0.84338  0.98021  1.0000
  H   H112      1.0  0.08808  0.84338  0.51979  1.0000
  C   C177      1.0  0.63289  0.70950  0.97240  1.0000
  C   C178      1.0  0.36711  0.70950  0.52760  1.0000
  C   C179      1.0  0.13289  0.20950  0.97240  1.0000
  C   C180      1.0  0.86711  0.20950  0.52760  1.0000
  C   C181      1.0  0.36711  0.29050  0.02760  1.0000
  C   C182      1.0  0.63289  0.29050  0.47240  1.0000
  C   C183      1.0  0.86711  0.79050  0.02760  1.0000
  C   C184      1.0  0.13289  0.79050  0.47240  1.0000
  H   H113      1.0  0.68782  0.75747  0.95808  1.0000
  H   H114      1.0  0.31218  0.75747  0.54192  1.0000
  H   H115      1.0  0.18782  0.25747  0.95808  1.0000
  H   H116      1.0  0.81218  0.25747  0.54192  1.0000
  H   H117      1.0  0.31218  0.24253  0.04192  1.0000
  H   H118      1.0  0.68782  0.24253  0.45808  1.0000
  H   H119      1.0  0.81218  0.74253  0.04192  1.0000
  H   H120      1.0  0.18782  0.74253  0.45808  1.0000
  C   C185      1.0  0.60178  0.72000  0.87150  1.0000
  C   C186      1.0  0.39822  0.72000  0.62850  1.0000
  C   C187      1.0  0.10178  0.22000  0.87150  1.0000
  C   C188      1.0  0.89822  0.22000  0.62850  1.0000
  C   C189      1.0  0.39822  0.28000  0.12850  1.0000
  C   C190      1.0  0.60178  0.28000  0.37150  1.0000
  C   C191      1.0  0.89822  0.78000  0.12850  1.0000
  C   C192      1.0  0.10178  0.78000  0.37150  1.0000
  O   O33       1.0  0.56082  0.69980  0.85310  1.0000
  O   O34       1.0  0.43918  0.69980  0.64690  1.0000
  O   O35       1.0  0.06082  0.19980  0.85310  1.0000
  O   O36       1.0  0.93918  0.19980  0.64690  1.0000
  O   O37       1.0  0.43918  0.30020  0.14690  1.0000
  O   O38       1.0  0.56082  0.30020  0.35310  1.0000
  O   O39       1.0  0.93918  0.80020  0.14690  1.0000
  O   O40       1.0  0.06082  0.80020  0.35310  1.0000
  O   O41       1.0  0.61909  0.74840  0.81120  1.0000
  O   O42       1.0  0.38091  0.74840  0.68880  1.0000
  O   O43       1.0  0.11909  0.24840  0.81120  1.0000
  O   O44       1.0  0.88091  0.24840  0.68880  1.0000
  O   O45       1.0  0.38091  0.25160  0.18880  1.0000
  O   O46       1.0  0.61909  0.25160  0.31120  1.0000
  O   O47       1.0  0.88091  0.75160  0.18880  1.0000
  O   O48       1.0  0.11909  0.75160  0.31120  1.0000
