data_image0
_chemical_formula_structural       Ga30S48N6C36N6C12H78
_chemical_formula_sum              "Ga30 S48 N12 C48 H78"
_cell_length_a       18.2994
_cell_length_b       18.2994
_cell_length_c       13.4631
_cell_angle_alpha    90
_cell_angle_beta     90
_cell_angle_gamma    120

_space_group_name_H-M_alt    "P 1"
_space_group_IT_number       1

loop_
  _space_group_symop_operation_xyz
  'x, y, z'

loop_
  _atom_site_type_symbol
  _atom_site_label
  _atom_site_symmetry_multiplicity
  _atom_site_fract_x
  _atom_site_fract_y
  _atom_site_fract_z
  _atom_site_occupancy
  Ga  Ga1       1.0  0.71714  0.78770  0.24104  1.0000
  Ga  Ga2       1.0  0.21230  0.92944  0.90771  1.0000
  Ga  Ga3       1.0  0.07056  0.28286  0.57437  1.0000
  Ga  Ga4       1.0  0.78770  0.71714  0.75896  1.0000
  Ga  Ga5       1.0  0.92944  0.21230  0.09229  1.0000
  Ga  Ga6       1.0  0.28286  0.07056  0.42563  1.0000
  Ga  Ga7       1.0  0.76728  0.76728  0.00000  1.0000
  Ga  Ga8       1.0  0.23272  0.00000  0.66667  1.0000
  Ga  Ga9       1.0  0.00000  0.23272  0.33333  1.0000
  Ga  Ga10      1.0  0.69645  0.54544  0.91088  1.0000
  Ga  Ga11      1.0  0.45456  0.15101  0.57755  1.0000
  Ga  Ga12      1.0  0.84899  0.30355  0.24421  1.0000
  Ga  Ga13      1.0  0.54544  0.69645  0.08912  1.0000
  Ga  Ga14      1.0  0.15101  0.45456  0.42245  1.0000
  Ga  Ga15      1.0  0.30355  0.84899  0.75579  1.0000
  Ga  Ga16      1.0  0.65607  0.58168  0.17932  1.0000
  Ga  Ga17      1.0  0.41832  0.07439  0.84599  1.0000
  Ga  Ga18      1.0  0.92561  0.34393  0.51265  1.0000
  Ga  Ga19      1.0  0.58168  0.65607  0.82068  1.0000
  Ga  Ga20      1.0  0.07439  0.41832  0.15401  1.0000
  Ga  Ga21      1.0  0.34393  0.92561  0.48735  1.0000
  Ga  Ga22      1.0  0.47253  0.47253  0.00000  1.0000
  Ga  Ga23      1.0  0.52747  0.00000  0.66667  1.0000
  Ga  Ga24      1.0  0.00000  0.52747  0.33333  1.0000
  Ga  Ga25      1.0  0.58784  0.37989  0.08161  1.0000
  Ga  Ga26      1.0  0.62011  0.20795  0.74828  1.0000
  Ga  Ga27      1.0  0.79205  0.41216  0.41494  1.0000
  Ga  Ga28      1.0  0.37989  0.58784  0.91839  1.0000
  Ga  Ga29      1.0  0.20795  0.62011  0.25172  1.0000
  Ga  Ga30      1.0  0.41216  0.79205  0.58506  1.0000
  S   S1        1.0  0.81725  0.85762  0.12671  1.0000
  S   S2        1.0  0.14238  0.95963  0.79338  1.0000
  S   S3        1.0  0.04037  0.18275  0.46004  1.0000
  S   S4        1.0  0.85762  0.81725  0.87329  1.0000
  S   S5        1.0  0.95963  0.14238  0.20662  1.0000
  S   S6        1.0  0.18275  0.04037  0.53996  1.0000
  S   S7        1.0  0.59329  0.78362  0.21715  1.0000
  S   S8        1.0  0.21638  0.80967  0.88382  1.0000
  S   S9        1.0  0.19033  0.40671  0.55048  1.0000
  S   S10       1.0  0.78362  0.59329  0.78285  1.0000
  S   S11       1.0  0.80967  0.21638  0.11618  1.0000
  S   S12       1.0  0.40671  0.19033  0.44952  1.0000
  S   S13       1.0  0.70745  0.66977  0.30623  1.0000
  S   S14       1.0  0.33023  0.03768  0.97290  1.0000
  S   S15       1.0  0.96232  0.29255  0.63956  1.0000
  S   S16       1.0  0.66977  0.70745  0.69377  1.0000
  S   S17       1.0  0.03768  0.33023  0.02710  1.0000
  S   S18       1.0  0.29255  0.96232  0.36044  1.0000
  S   S19       1.0  0.74863  0.63624  0.04567  1.0000
  S   S20       1.0  0.36376  0.11239  0.71234  1.0000
  S   S21       1.0  0.88761  0.25137  0.37900  1.0000
  S   S22       1.0  0.63624  0.74863  0.95433  1.0000
  S   S23       1.0  0.11239  0.36376  0.28766  1.0000
  S   S24       1.0  0.25137  0.88761  0.62100  1.0000
  S   S25       1.0  0.68274  0.42132  0.95612  1.0000
  S   S26       1.0  0.57868  0.26142  0.62279  1.0000
  S   S27       1.0  0.73858  0.31726  0.28945  1.0000
  S   S28       1.0  0.42132  0.68274  0.04388  1.0000
  S   S29       1.0  0.26142  0.57868  0.37721  1.0000
  S   S30       1.0  0.31726  0.73858  0.71055  1.0000
  S   S31       1.0  0.56458  0.52569  0.86634  1.0000
  S   S32       1.0  0.47431  0.03889  0.53301  1.0000
  S   S33       1.0  0.96111  0.43542  0.19967  1.0000
  S   S34       1.0  0.52569  0.56458  0.13366  1.0000
  S   S35       1.0  0.03889  0.47431  0.46699  1.0000
  S   S36       1.0  0.43542  0.96111  0.80033  1.0000
  S   S37       1.0  0.64187  0.45723  0.21969  1.0000
  S   S38       1.0  0.54277  0.18464  0.88636  1.0000
  S   S39       1.0  0.81536  0.35813  0.55302  1.0000
  S   S40       1.0  0.45723  0.64187  0.78031  1.0000
  S   S41       1.0  0.18464  0.54277  0.11364  1.0000
  S   S42       1.0  0.35813  0.81536  0.44698  1.0000
  S   S43       1.0  0.45600  0.34613  0.03872  1.0000
  S   S44       1.0  0.65387  0.10987  0.70539  1.0000
  S   S45       1.0  0.89013  0.54400  0.37205  1.0000
  S   S46       1.0  0.34613  0.45600  0.96128  1.0000
  S   S47       1.0  0.10987  0.65387  0.29461  1.0000
  S   S48       1.0  0.54400  0.89013  0.62795  1.0000
  N   N1        1.0  0.75920  0.86400  0.36130  1.0000
  N   N2        1.0  0.13600  0.89520  0.02797  1.0000
  N   N3        1.0  0.10480  0.24080  0.69463  1.0000
  N   N4        1.0  0.86400  0.75920  0.63870  1.0000
  N   N5        1.0  0.89520  0.13600  0.97203  1.0000
  N   N6        1.0  0.24080  0.10480  0.30537  1.0000
  C   C1        1.0  0.80920  0.94860  0.35260  1.0000
  C   C2        1.0  0.05140  0.86060  0.01927  1.0000
  C   C3        1.0  0.13940  0.19080  0.68593  1.0000
  C   C4        1.0  0.94860  0.80920  0.64740  1.0000
  C   C5        1.0  0.86060  0.05140  0.98073  1.0000
  C   C6        1.0  0.19080  0.13940  0.31407  1.0000
  C   C7        1.0  0.82860  0.00010  0.43320  1.0000
  C   C8        1.0  0.99990  0.82850  0.09987  1.0000
  C   C9        1.0  0.17150  0.17140  0.76653  1.0000
  C   C10       1.0  0.00010  0.82860  0.56680  1.0000
  C   C11       1.0  0.82850  0.99990  0.90013  1.0000
  C   C12       1.0  0.17140  0.17150  0.23347  1.0000
  C   C13       1.0  0.79800  0.96920  0.52640  1.0000
  C   C14       1.0  0.03080  0.82880  0.19307  1.0000
  C   C15       1.0  0.17120  0.20200  0.85973  1.0000
  C   C16       1.0  0.96920  0.79800  0.47360  1.0000
  C   C17       1.0  0.82880  0.03080  0.80693  1.0000
  C   C18       1.0  0.20200  0.17120  0.14027  1.0000
  C   C19       1.0  0.74090  0.88220  0.53350  1.0000
  C   C20       1.0  0.11780  0.85870  0.20017  1.0000
  C   C21       1.0  0.14130  0.25910  0.86683  1.0000
  C   C22       1.0  0.88220  0.74090  0.46650  1.0000
  C   C23       1.0  0.85870  0.11780  0.79983  1.0000
  C   C24       1.0  0.25910  0.14130  0.13317  1.0000
  C   C25       1.0  0.72270  0.83440  0.44930  1.0000
  C   C26       1.0  0.16560  0.88830  0.11597  1.0000
  C   C27       1.0  0.11170  0.27730  0.78263  1.0000
  C   C28       1.0  0.83440  0.72270  0.55070  1.0000
  C   C29       1.0  0.88830  0.16560  0.88403  1.0000
  C   C30       1.0  0.27730  0.11170  0.21737  1.0000
  C   C31       1.0  0.81790  0.02460  0.61610  1.0000
  C   C32       1.0  0.97540  0.79330  0.28277  1.0000
  C   C33       1.0  0.20670  0.18210  0.94943  1.0000
  C   C34       1.0  0.02460  0.81790  0.38390  1.0000
  C   C35       1.0  0.79330  0.97540  0.71723  1.0000
  C   C36       1.0  0.18210  0.20670  0.05057  1.0000
  N   N7        1.0  0.57970  0.27000  0.11880  1.0000
  N   N8        1.0  0.73000  0.30970  0.78547  1.0000
  N   N9        1.0  0.69030  0.42030  0.45213  1.0000
  N   N10       1.0  0.27000  0.57970  0.88120  1.0000
  N   N11       1.0  0.30970  0.73000  0.21453  1.0000
  N   N12       1.0  0.42030  0.69030  0.54787  1.0000
  C   C37       1.0  0.50780  0.21100  0.18040  1.0000
  C   C38       1.0  0.78900  0.29680  0.84707  1.0000
  C   C39       1.0  0.70320  0.49220  0.51373  1.0000
  C   C40       1.0  0.21100  0.50780  0.81960  1.0000
  C   C41       1.0  0.29680  0.78900  0.15293  1.0000
  C   C42       1.0  0.49220  0.70320  0.48627  1.0000
  C   C43       1.0  0.50800  0.12900  0.20090  1.0000
  C   C44       1.0  0.87100  0.37900  0.86757  1.0000
  C   C45       1.0  0.62100  0.49200  0.53423  1.0000
  C   C46       1.0  0.12900  0.50800  0.79910  1.0000
  C   C47       1.0  0.37900  0.87100  0.13243  1.0000
  C   C48       1.0  0.49200  0.62100  0.46577  1.0000
  H   H1        1.0  0.83200  0.97390  0.28590  1.0000
  H   H2        1.0  0.02610  0.85810  0.95257  1.0000
  H   H3        1.0  0.14190  0.16800  0.61923  1.0000
  H   H4        1.0  0.97390  0.83200  0.71410  1.0000
  H   H5        1.0  0.85810  0.02610  0.04743  1.0000
  H   H6        1.0  0.16800  0.14190  0.38077  1.0000
  H   H7        1.0  0.86640  0.06230  0.42440  1.0000
  H   H8        1.0  0.93770  0.80410  0.09107  1.0000
  H   H9        1.0  0.19590  0.13360  0.75773  1.0000
  H   H10       1.0  0.06230  0.86640  0.57560  1.0000
  H   H11       1.0  0.80410  0.93770  0.90893  1.0000
  H   H12       1.0  0.13360  0.19590  0.24227  1.0000
  H   H13       1.0  0.71430  0.85600  0.59840  1.0000
  H   H14       1.0  0.14400  0.85830  0.26507  1.0000
  H   H15       1.0  0.14170  0.28570  0.93173  1.0000
  H   H16       1.0  0.85600  0.71430  0.40160  1.0000
  H   H17       1.0  0.85830  0.14400  0.73493  1.0000
  H   H18       1.0  0.28570  0.14170  0.06827  1.0000
  H   H19       1.0  0.67910  0.77320  0.45380  1.0000
  H   H20       1.0  0.22680  0.90590  0.12047  1.0000
  H   H21       1.0  0.09410  0.32090  0.78713  1.0000
  H   H22       1.0  0.77320  0.67910  0.54620  1.0000
  H   H23       1.0  0.90590  0.22680  0.87953  1.0000
  H   H24       1.0  0.32090  0.09410  0.21287  1.0000
  H   H25       1.0  0.88000  0.06550  0.61700  1.0000
  H   H26       1.0  0.93450  0.81450  0.28367  1.0000
  H   H27       1.0  0.18550  0.12000  0.95033  1.0000
  H   H28       1.0  0.06550  0.88000  0.38300  1.0000
  H   H29       1.0  0.81450  0.93450  0.71633  1.0000
  H   H30       1.0  0.12000  0.18550  0.04967  1.0000
  H   H31       1.0  0.78660  0.05630  0.61070  1.0000
  H   H32       1.0  0.94370  0.73030  0.27737  1.0000
  H   H33       1.0  0.26970  0.21340  0.94403  1.0000
  H   H34       1.0  0.05630  0.78660  0.38930  1.0000
  H   H35       1.0  0.73030  0.94370  0.72263  1.0000
  H   H36       1.0  0.21340  0.26970  0.05597  1.0000
  H   H37       1.0  0.51060  0.23910  0.24520  1.0000
  H   H38       1.0  0.76090  0.27150  0.91187  1.0000
  H   H39       1.0  0.72850  0.48940  0.57853  1.0000
  H   H40       1.0  0.23910  0.51060  0.75480  1.0000
  H   H41       1.0  0.27150  0.76090  0.08813  1.0000
  H   H42       1.0  0.48940  0.72850  0.42147  1.0000
  H   H43       1.0  0.45440  0.19740  0.14520  1.0000
  H   H44       1.0  0.80260  0.25700  0.81187  1.0000
  H   H45       1.0  0.74300  0.54560  0.47853  1.0000
  H   H46       1.0  0.19740  0.45440  0.85480  1.0000
  H   H47       1.0  0.25700  0.80260  0.18813  1.0000
  H   H48       1.0  0.54560  0.74300  0.52147  1.0000
  H   H49       1.0  0.45820  0.09110  0.24300  1.0000
  H   H50       1.0  0.90890  0.36710  0.90967  1.0000
  H   H51       1.0  0.63290  0.54180  0.57633  1.0000
  H   H52       1.0  0.09110  0.45820  0.75700  1.0000
  H   H53       1.0  0.36710  0.90890  0.09033  1.0000
  H   H54       1.0  0.54180  0.63290  0.42367  1.0000
  H   H55       1.0  0.56110  0.14180  0.23660  1.0000
  H   H56       1.0  0.85820  0.41930  0.90327  1.0000
  H   H57       1.0  0.58070  0.43890  0.56993  1.0000
  H   H58       1.0  0.14180  0.56110  0.76340  1.0000
  H   H59       1.0  0.41930  0.85820  0.09673  1.0000
  H   H60       1.0  0.43890  0.58070  0.43007  1.0000
  H   H61       1.0  0.50490  0.10010  0.13660  1.0000
  H   H62       1.0  0.89990  0.40480  0.80327  1.0000
  H   H63       1.0  0.59520  0.49510  0.46993  1.0000
  H   H64       1.0  0.10010  0.50490  0.86340  1.0000
  H   H65       1.0  0.40480  0.89990  0.19673  1.0000
  H   H66       1.0  0.49510  0.59520  0.53007  1.0000
  H   H67       1.0  0.63230  0.28340  0.15580  1.0000
  H   H68       1.0  0.71660  0.34890  0.82247  1.0000
  H   H69       1.0  0.65110  0.36770  0.48913  1.0000
  H   H70       1.0  0.28340  0.63230  0.84420  1.0000
  H   H71       1.0  0.34890  0.71660  0.17753  1.0000
  H   H72       1.0  0.36770  0.65110  0.51087  1.0000
  H   H73       1.0  0.57700  0.24000  0.05570  1.0000
  H   H74       1.0  0.76000  0.33700  0.72237  1.0000
  H   H75       1.0  0.66300  0.42300  0.38903  1.0000
  H   H76       1.0  0.24000  0.57700  0.94430  1.0000
  H   H77       1.0  0.33700  0.76000  0.27763  1.0000
  H   H78       1.0  0.42300  0.66300  0.61097  1.0000
