data_image0
_chemical_formula_structural       W72Ag16P8C8H8C8H8C24H8C8H8C8H8C8H8C8H8C16H8C8H8C8H8C8H8C8H8C8H8C8H8C16H8C8H8N32O248
_chemical_formula_sum              "W72 Ag16 P8 C160 H128 N32 O248"
_cell_length_a       24.789
_cell_length_b       22.241
_cell_length_c       17.334
_cell_angle_alpha    90
_cell_angle_beta     90
_cell_angle_gamma    90

_space_group_name_H-M_alt    "P 1"
_space_group_IT_number       1

loop_
  _space_group_symop_operation_xyz
  'x, y, z'

loop_
  _atom_site_type_symbol
  _atom_site_label
  _atom_site_symmetry_multiplicity
  _atom_site_fract_x
  _atom_site_fract_y
  _atom_site_fract_z
  _atom_site_occupancy
  W   W1        1.0  0.93943  0.26721  0.96397  1.0000
  W   W2        1.0  0.56057  0.23279  0.46397  1.0000
  W   W3        1.0  0.43943  0.23279  0.03603  1.0000
  W   W4        1.0  0.06057  0.26721  0.53603  1.0000
  W   W5        1.0  0.06057  0.73279  0.03603  1.0000
  W   W6        1.0  0.43943  0.76721  0.53603  1.0000
  W   W7        1.0  0.56057  0.76721  0.96397  1.0000
  W   W8        1.0  0.93943  0.73279  0.46397  1.0000
  W   W9        1.0  0.92688  0.08551  0.13873  1.0000
  W   W10       1.0  0.57312  0.41449  0.63873  1.0000
  W   W11       1.0  0.42689  0.41449  0.86127  1.0000
  W   W12       1.0  0.07311  0.08551  0.36127  1.0000
  W   W13       1.0  0.07311  0.91449  0.86127  1.0000
  W   W14       1.0  0.42689  0.58551  0.36127  1.0000
  W   W15       1.0  0.57312  0.58551  0.13873  1.0000
  W   W16       1.0  0.92688  0.91449  0.63873  1.0000
  W   W17       1.0  0.07499  0.08528  0.14443  1.0000
  W   W18       1.0  0.42501  0.41472  0.64443  1.0000
  W   W19       1.0  0.57499  0.41472  0.85557  1.0000
  W   W20       1.0  0.92501  0.08528  0.35557  1.0000
  W   W21       1.0  0.92501  0.91472  0.85557  1.0000
  W   W22       1.0  0.57499  0.58528  0.35557  1.0000
  W   W23       1.0  0.42501  0.58528  0.14443  1.0000
  W   W24       1.0  0.07499  0.91472  0.64443  1.0000
  W   W25       1.0  0.14186  0.21647  0.14925  1.0000
  W   W26       1.0  0.35814  0.28353  0.64925  1.0000
  W   W27       1.0  0.64186  0.28353  0.85075  1.0000
  W   W28       1.0  0.85814  0.21647  0.35075  1.0000
  W   W29       1.0  0.85814  0.78353  0.85075  1.0000
  W   W30       1.0  0.64186  0.71647  0.35075  1.0000
  W   W31       1.0  0.35814  0.71647  0.14925  1.0000
  W   W32       1.0  0.14186  0.78353  0.64925  1.0000
  W   W33       1.0  0.07523  0.26405  0.96808  1.0000
  W   W34       1.0  0.42477  0.23595  0.46808  1.0000
  W   W35       1.0  0.57523  0.23595  0.03192  1.0000
  W   W36       1.0  0.92477  0.26405  0.53192  1.0000
  W   W37       1.0  0.92477  0.73595  0.03192  1.0000
  W   W38       1.0  0.57523  0.76405  0.53192  1.0000
  W   W39       1.0  0.42477  0.76405  0.96808  1.0000
  W   W40       1.0  0.07523  0.73595  0.46808  1.0000
  W   W41       1.0  0.86170  0.21732  0.13463  1.0000
  W   W42       1.0  0.63830  0.28268  0.63463  1.0000
  W   W43       1.0  0.36170  0.28268  0.86537  1.0000
  W   W44       1.0  0.13830  0.21732  0.36537  1.0000
  W   W45       1.0  0.13830  0.78268  0.86537  1.0000
  W   W46       1.0  0.36170  0.71732  0.36537  1.0000
  W   W47       1.0  0.63830  0.71732  0.13463  1.0000
  W   W48       1.0  0.86170  0.78268  0.63463  1.0000
  W   W49       1.0  0.07003  0.36072  0.14230  1.0000
  W   W50       1.0  0.42997  0.13928  0.64230  1.0000
  W   W51       1.0  0.57003  0.13928  0.85770  1.0000
  W   W52       1.0  0.92997  0.36072  0.35770  1.0000
  W   W53       1.0  0.92997  0.63928  0.85770  1.0000
  W   W54       1.0  0.57003  0.86072  0.35770  1.0000
  W   W55       1.0  0.42997  0.86072  0.14230  1.0000
  W   W56       1.0  0.07003  0.63928  0.64230  1.0000
  W   W57       1.0  0.93428  0.36114  0.14075  1.0000
  W   W58       1.0  0.56572  0.13886  0.64075  1.0000
  W   W59       1.0  0.43428  0.13886  0.85925  1.0000
  W   W60       1.0  0.06572  0.36114  0.35925  1.0000
  W   W61       1.0  0.06572  0.63886  0.85925  1.0000
  W   W62       1.0  0.43428  0.86114  0.35925  1.0000
  W   W63       1.0  0.56572  0.86114  0.14075  1.0000
  W   W64       1.0  0.93428  0.63886  0.64075  1.0000
  W   W65       1.0  0.00478  0.13293  0.96711  1.0000
  W   W66       1.0  0.49522  0.36707  0.46711  1.0000
  W   W67       1.0  0.50478  0.36707  0.03289  1.0000
  W   W68       1.0  0.99522  0.13293  0.53289  1.0000
  W   W69       1.0  0.99522  0.86707  0.03289  1.0000
  W   W70       1.0  0.50478  0.63293  0.53289  1.0000
  W   W71       1.0  0.49522  0.63293  0.96711  1.0000
  W   W72       1.0  0.00478  0.86707  0.46711  1.0000
  Ag  Ag1       1.0  0.79193  0.27341  0.95663  1.0000
  Ag  Ag2       1.0  0.70807  0.22659  0.45663  1.0000
  Ag  Ag3       1.0  0.29193  0.22659  0.04337  1.0000
  Ag  Ag4       1.0  0.20807  0.27341  0.54337  1.0000
  Ag  Ag5       1.0  0.20807  0.72659  0.04337  1.0000
  Ag  Ag6       1.0  0.29193  0.77341  0.54337  1.0000
  Ag  Ag7       1.0  0.70807  0.77341  0.95663  1.0000
  Ag  Ag8       1.0  0.79193  0.72659  0.45663  1.0000
  Ag  Ag9       1.0  0.70395  0.22330  0.20167  1.0000
  Ag  Ag10      1.0  0.79605  0.27670  0.70167  1.0000
  Ag  Ag11      1.0  0.20395  0.27670  0.79833  1.0000
  Ag  Ag12      1.0  0.29605  0.22330  0.29833  1.0000
  Ag  Ag13      1.0  0.29605  0.77670  0.79833  1.0000
  Ag  Ag14      1.0  0.20395  0.72330  0.29833  1.0000
  Ag  Ag15      1.0  0.79605  0.72330  0.20167  1.0000
  Ag  Ag16      1.0  0.70395  0.77670  0.70167  1.0000
  P   P1        1.0  0.00217  0.22266  0.13564  1.0000
  P   P2        1.0  0.49783  0.27734  0.63564  1.0000
  P   P3        1.0  0.50217  0.27734  0.86436  1.0000
  P   P4        1.0  0.99783  0.22266  0.36436  1.0000
  P   P5        1.0  0.99783  0.77734  0.86436  1.0000
  P   P6        1.0  0.50217  0.72266  0.36436  1.0000
  P   P7        1.0  0.49783  0.72266  0.13564  1.0000
  P   P8        1.0  0.00217  0.77734  0.63564  1.0000
  C   C1        1.0  0.73290  0.15890  0.97310  1.0000
  C   C2        1.0  0.76710  0.34110  0.47310  1.0000
  C   C3        1.0  0.23290  0.34110  0.02690  1.0000
  C   C4        1.0  0.26710  0.15890  0.52690  1.0000
  C   C5        1.0  0.26710  0.84110  0.02690  1.0000
  C   C6        1.0  0.23290  0.65890  0.52690  1.0000
  C   C7        1.0  0.76710  0.65890  0.97310  1.0000
  C   C8        1.0  0.73290  0.84110  0.47310  1.0000
  H   H1        1.0  0.70670  0.18760  0.98450  1.0000
  H   H2        1.0  0.79330  0.31240  0.48450  1.0000
  H   H3        1.0  0.20670  0.31240  0.01550  1.0000
  H   H4        1.0  0.29330  0.18760  0.51550  1.0000
  H   H5        1.0  0.29330  0.81240  0.01550  1.0000
  H   H6        1.0  0.20670  0.68760  0.51550  1.0000
  H   H7        1.0  0.79330  0.68760  0.98450  1.0000
  H   H8        1.0  0.70670  0.81240  0.48450  1.0000
  C   C9        1.0  0.81730  0.13660  0.93470  1.0000
  C   C10       1.0  0.68270  0.36340  0.43470  1.0000
  C   C11       1.0  0.31730  0.36340  0.06530  1.0000
  C   C12       1.0  0.18270  0.13660  0.56530  1.0000
  C   C13       1.0  0.18270  0.86340  0.06530  1.0000
  C   C14       1.0  0.31730  0.63660  0.56530  1.0000
  C   C15       1.0  0.68270  0.63660  0.93470  1.0000
  C   C16       1.0  0.81730  0.86340  0.43470  1.0000
  H   H9        1.0  0.85120  0.14950  0.91880  1.0000
  H   H10       1.0  0.64880  0.35050  0.41880  1.0000
  H   H11       1.0  0.35120  0.35050  0.08120  1.0000
  H   H12       1.0  0.14880  0.14950  0.58120  1.0000
  H   H13       1.0  0.14880  0.85050  0.08120  1.0000
  H   H14       1.0  0.35120  0.64950  0.58120  1.0000
  H   H15       1.0  0.64880  0.64950  0.91880  1.0000
  H   H16       1.0  0.85120  0.85050  0.41880  1.0000
  C   C17       1.0  0.76110  0.50370  0.21270  1.0000
  C   C18       1.0  0.73890  0.99630  0.71270  1.0000
  C   C19       1.0  0.26110  0.99630  0.78730  1.0000
  C   C20       1.0  0.23890  0.50370  0.28730  1.0000
  C   C21       1.0  0.23890  0.49630  0.78730  1.0000
  C   C22       1.0  0.26110  0.00370  0.28730  1.0000
  C   C23       1.0  0.73890  0.00370  0.21270  1.0000
  C   C24       1.0  0.76110  0.49630  0.71270  1.0000
  C   C25       1.0  0.74400  0.99070  0.96770  1.0000
  C   C26       1.0  0.75600  0.50930  0.46770  1.0000
  C   C27       1.0  0.24400  0.50930  0.03230  1.0000
  C   C28       1.0  0.25600  0.99070  0.53230  1.0000
  C   C29       1.0  0.25600  0.00930  0.03230  1.0000
  C   C30       1.0  0.24400  0.49070  0.53230  1.0000
  C   C31       1.0  0.75600  0.49070  0.96770  1.0000
  C   C32       1.0  0.74400  0.00930  0.46770  1.0000
  C   C33       1.0  0.68240  0.90820  0.95160  1.0000
  C   C34       1.0  0.81760  0.59180  0.45160  1.0000
  C   C35       1.0  0.18240  0.59180  0.04840  1.0000
  C   C36       1.0  0.31760  0.90820  0.54840  1.0000
  C   C37       1.0  0.31760  0.09180  0.04840  1.0000
  C   C38       1.0  0.18240  0.40820  0.54840  1.0000
  C   C39       1.0  0.81760  0.40820  0.95160  1.0000
  C   C40       1.0  0.68240  0.09180  0.45160  1.0000
  H   H17       1.0  0.64800  0.89440  0.93960  1.0000
  H   H18       1.0  0.85200  0.60560  0.43960  1.0000
  H   H19       1.0  0.14800  0.60560  0.06040  1.0000
  H   H20       1.0  0.35200  0.89440  0.56040  1.0000
  H   H21       1.0  0.35200  0.10560  0.06040  1.0000
  H   H22       1.0  0.14800  0.39440  0.56040  1.0000
  H   H23       1.0  0.85200  0.39440  0.93960  1.0000
  H   H24       1.0  0.64800  0.10560  0.43960  1.0000
  C   C41       1.0  0.78340  0.94790  0.98640  1.0000
  C   C42       1.0  0.71660  0.55210  0.48640  1.0000
  C   C43       1.0  0.28340  0.55210  0.01360  1.0000
  C   C44       1.0  0.21660  0.94790  0.51360  1.0000
  C   C45       1.0  0.21660  0.05210  0.01360  1.0000
  C   C46       1.0  0.28340  0.44790  0.51360  1.0000
  C   C47       1.0  0.71660  0.44790  0.98640  1.0000
  C   C48       1.0  0.78340  0.05210  0.48640  1.0000
  H   H25       1.0  0.81850  0.96020  0.99680  1.0000
  H   H26       1.0  0.68150  0.53980  0.49680  1.0000
  H   H27       1.0  0.31850  0.53980  0.00320  1.0000
  H   H28       1.0  0.18150  0.96020  0.50320  1.0000
  H   H29       1.0  0.18150  0.03980  0.00320  1.0000
  H   H30       1.0  0.31850  0.46020  0.50320  1.0000
  H   H31       1.0  0.68150  0.46020  0.99680  1.0000
  H   H32       1.0  0.81850  0.03980  0.49680  1.0000
  C   C49       1.0  0.82170  0.58570  0.18250  1.0000
  C   C50       1.0  0.67830  0.91430  0.68250  1.0000
  C   C51       1.0  0.32170  0.91430  0.81750  1.0000
  C   C52       1.0  0.17830  0.58570  0.31750  1.0000
  C   C53       1.0  0.17830  0.41430  0.81750  1.0000
  C   C54       1.0  0.32170  0.08570  0.31750  1.0000
  C   C55       1.0  0.67830  0.08570  0.18250  1.0000
  C   C56       1.0  0.82170  0.41430  0.68250  1.0000
  H   H33       1.0  0.85390  0.59830  0.16020  1.0000
  H   H34       1.0  0.64610  0.90170  0.66020  1.0000
  H   H35       1.0  0.35390  0.90170  0.83980  1.0000
  H   H36       1.0  0.14610  0.59830  0.33980  1.0000
  H   H37       1.0  0.14610  0.40170  0.83980  1.0000
  H   H38       1.0  0.35390  0.09830  0.33980  1.0000
  H   H39       1.0  0.64610  0.09830  0.16020  1.0000
  H   H40       1.0  0.85390  0.40170  0.66020  1.0000
  C   C57       1.0  0.77030  0.88730  0.98930  1.0000
  C   C58       1.0  0.72970  0.61270  0.48930  1.0000
  C   C59       1.0  0.27030  0.61270  0.01070  1.0000
  C   C60       1.0  0.22970  0.88730  0.51070  1.0000
  C   C61       1.0  0.22970  0.11270  0.01070  1.0000
  C   C62       1.0  0.27030  0.38730  0.51070  1.0000
  C   C63       1.0  0.72970  0.38730  0.98930  1.0000
  C   C64       1.0  0.77030  0.11270  0.48930  1.0000
  H   H41       1.0  0.79620  0.85940  0.00410  1.0000
  H   H42       1.0  0.70380  0.64060  0.50410  1.0000
  H   H43       1.0  0.29620  0.64060  0.99590  1.0000
  H   H44       1.0  0.20380  0.85940  0.49590  1.0000
  H   H45       1.0  0.20380  0.14060  0.99590  1.0000
  H   H46       1.0  0.29620  0.35940  0.49590  1.0000
  H   H47       1.0  0.70380  0.35940  0.00410  1.0000
  H   H48       1.0  0.79620  0.14060  0.50410  1.0000
  C   C65       1.0  0.69480  0.42260  0.18830  1.0000
  C   C66       1.0  0.80520  0.07740  0.68830  1.0000
  C   C67       1.0  0.19480  0.07740  0.81170  1.0000
  C   C68       1.0  0.30520  0.42260  0.31170  1.0000
  C   C69       1.0  0.30520  0.57740  0.81170  1.0000
  C   C70       1.0  0.19480  0.92260  0.31170  1.0000
  C   C71       1.0  0.80520  0.92260  0.18830  1.0000
  C   C72       1.0  0.69480  0.57740  0.68830  1.0000
  H   H49       1.0  0.66910  0.45080  0.17370  1.0000
  H   H50       1.0  0.83090  0.04920  0.67370  1.0000
  H   H51       1.0  0.16910  0.04920  0.82630  1.0000
  H   H52       1.0  0.33090  0.45080  0.32630  1.0000
  H   H53       1.0  0.33090  0.54920  0.82630  1.0000
  H   H54       1.0  0.16910  0.95080  0.32630  1.0000
  H   H55       1.0  0.83090  0.95080  0.17370  1.0000
  H   H56       1.0  0.66910  0.54920  0.67370  1.0000
  C   C73       1.0  0.75730  0.05520  0.96160  1.0000
  C   C74       1.0  0.74270  0.44480  0.46160  1.0000
  C   C75       1.0  0.25730  0.44480  0.03840  1.0000
  C   C76       1.0  0.24270  0.05520  0.53840  1.0000
  C   C77       1.0  0.24270  0.94480  0.03840  1.0000
  C   C78       1.0  0.25730  0.55520  0.53840  1.0000
  C   C79       1.0  0.74270  0.55520  0.96160  1.0000
  C   C80       1.0  0.75730  0.94480  0.46160  1.0000
  C   C81       1.0  0.72750  0.54780  0.24690  1.0000
  C   C82       1.0  0.77250  0.95220  0.74690  1.0000
  C   C83       1.0  0.22750  0.95220  0.75310  1.0000
  C   C84       1.0  0.27250  0.54780  0.25310  1.0000
  C   C85       1.0  0.27250  0.45220  0.75310  1.0000
  C   C86       1.0  0.22750  0.04780  0.25310  1.0000
  C   C87       1.0  0.77250  0.04780  0.24690  1.0000
  C   C88       1.0  0.72750  0.45220  0.74690  1.0000
  H   H57       1.0  0.69510  0.53690  0.27000  1.0000
  H   H58       1.0  0.80490  0.96310  0.77000  1.0000
  H   H59       1.0  0.19510  0.96310  0.73000  1.0000
  H   H60       1.0  0.30490  0.53690  0.23000  1.0000
  H   H61       1.0  0.30490  0.46310  0.73000  1.0000
  H   H62       1.0  0.19510  0.03690  0.23000  1.0000
  H   H63       1.0  0.80490  0.03690  0.27000  1.0000
  H   H64       1.0  0.69510  0.46310  0.77000  1.0000
  C   C89       1.0  0.80740  0.07520  0.93920  1.0000
  C   C90       1.0  0.69260  0.42480  0.43920  1.0000
  C   C91       1.0  0.30740  0.42480  0.06080  1.0000
  C   C92       1.0  0.19260  0.07520  0.56080  1.0000
  C   C93       1.0  0.19260  0.92480  0.06080  1.0000
  C   C94       1.0  0.30740  0.57520  0.56080  1.0000
  C   C95       1.0  0.69260  0.57520  0.93920  1.0000
  C   C96       1.0  0.80740  0.92480  0.43920  1.0000
  H   H65       1.0  0.83450  0.04780  0.92710  1.0000
  H   H66       1.0  0.66550  0.45220  0.42710  1.0000
  H   H67       1.0  0.33450  0.45220  0.07290  1.0000
  H   H68       1.0  0.16550  0.04780  0.57290  1.0000
  H   H69       1.0  0.16550  0.95220  0.07290  1.0000
  H   H70       1.0  0.33450  0.54780  0.57290  1.0000
  H   H71       1.0  0.66550  0.54780  0.92710  1.0000
  H   H72       1.0  0.83450  0.95220  0.42710  1.0000
  C   C97       1.0  0.74330  0.60700  0.24530  1.0000
  C   C98       1.0  0.75670  0.89300  0.74530  1.0000
  C   C99       1.0  0.24330  0.89300  0.75470  1.0000
  C   C100      1.0  0.25670  0.60700  0.25470  1.0000
  C   C101      1.0  0.25670  0.39300  0.75470  1.0000
  C   C102      1.0  0.24330  0.10700  0.25470  1.0000
  C   C103      1.0  0.75670  0.10700  0.24530  1.0000
  C   C104      1.0  0.74330  0.39300  0.74530  1.0000
  H   H73       1.0  0.72030  0.63530  0.26710  1.0000
  H   H74       1.0  0.77970  0.86470  0.76710  1.0000
  H   H75       1.0  0.22030  0.86470  0.73290  1.0000
  H   H76       1.0  0.27970  0.63530  0.23290  1.0000
  H   H77       1.0  0.27970  0.36470  0.73290  1.0000
  H   H78       1.0  0.22030  0.13530  0.23290  1.0000
  H   H79       1.0  0.77970  0.13530  0.26710  1.0000
  H   H80       1.0  0.72030  0.36470  0.76710  1.0000
  C   C105      1.0  0.80910  0.52410  0.18100  1.0000
  C   C106      1.0  0.69090  0.97590  0.68100  1.0000
  C   C107      1.0  0.30910  0.97590  0.81900  1.0000
  C   C108      1.0  0.19090  0.52410  0.31900  1.0000
  C   C109      1.0  0.19090  0.47590  0.81900  1.0000
  C   C110      1.0  0.30910  0.02410  0.31900  1.0000
  C   C111      1.0  0.69090  0.02410  0.18100  1.0000
  C   C112      1.0  0.80910  0.47590  0.68100  1.0000
  H   H81       1.0  0.83290  0.49690  0.15860  1.0000
  H   H82       1.0  0.66710  0.00310  0.65860  1.0000
  H   H83       1.0  0.33290  0.00310  0.84140  1.0000
  H   H84       1.0  0.16710  0.49690  0.34140  1.0000
  H   H85       1.0  0.16710  0.50310  0.84140  1.0000
  H   H86       1.0  0.33290  0.99690  0.34140  1.0000
  H   H87       1.0  0.66710  0.99690  0.15860  1.0000
  H   H88       1.0  0.83290  0.50310  0.65860  1.0000
  C   C113      1.0  0.71890  0.09900  0.97950  1.0000
  C   C114      1.0  0.78110  0.40100  0.47950  1.0000
  C   C115      1.0  0.21890  0.40100  0.02050  1.0000
  C   C116      1.0  0.28110  0.09900  0.52050  1.0000
  C   C117      1.0  0.28110  0.90100  0.02050  1.0000
  C   C118      1.0  0.21890  0.59900  0.52050  1.0000
  C   C119      1.0  0.78110  0.59900  0.97950  1.0000
  C   C120      1.0  0.71890  0.90100  0.47950  1.0000
  H   H89       1.0  0.68450  0.08800  0.99550  1.0000
  H   H90       1.0  0.81550  0.41200  0.49550  1.0000
  H   H91       1.0  0.18450  0.41200  0.00450  1.0000
  H   H92       1.0  0.31550  0.08800  0.50450  1.0000
  H   H93       1.0  0.31550  0.91200  0.00450  1.0000
  H   H94       1.0  0.18450  0.58800  0.50450  1.0000
  H   H95       1.0  0.81550  0.58800  0.99550  1.0000
  H   H96       1.0  0.68450  0.91200  0.49550  1.0000
  C   C121      1.0  0.69290  0.96960  0.94890  1.0000
  C   C122      1.0  0.80710  0.53040  0.44890  1.0000
  C   C123      1.0  0.19290  0.53040  0.05110  1.0000
  C   C124      1.0  0.30710  0.96960  0.55110  1.0000
  C   C125      1.0  0.30710  0.03040  0.05110  1.0000
  C   C126      1.0  0.19290  0.46960  0.55110  1.0000
  C   C127      1.0  0.80710  0.46960  0.94890  1.0000
  C   C128      1.0  0.69290  0.03040  0.44890  1.0000
  H   H97       1.0  0.66590  0.99640  0.93450  1.0000
  H   H98       1.0  0.83410  0.50360  0.43450  1.0000
  H   H99       1.0  0.16590  0.50360  0.06550  1.0000
  H   H100      1.0  0.33410  0.99640  0.56550  1.0000
  H   H101      1.0  0.33410  0.00360  0.06550  1.0000
  H   H102      1.0  0.16590  0.49640  0.56550  1.0000
  H   H103      1.0  0.83410  0.49640  0.93450  1.0000
  H   H104      1.0  0.66590  0.00360  0.43450  1.0000
  C   C129      1.0  0.78110  0.39650  0.23630  1.0000
  C   C130      1.0  0.71890  0.10350  0.73630  1.0000
  C   C131      1.0  0.28110  0.10350  0.76370  1.0000
  C   C132      1.0  0.21890  0.39650  0.26370  1.0000
  C   C133      1.0  0.21890  0.60350  0.76370  1.0000
  C   C134      1.0  0.28110  0.89650  0.26370  1.0000
  C   C135      1.0  0.71890  0.89650  0.23630  1.0000
  C   C136      1.0  0.78110  0.60350  0.73630  1.0000
  H   H105      1.0  0.81590  0.40620  0.25200  1.0000
  H   H106      1.0  0.68410  0.09380  0.75200  1.0000
  H   H107      1.0  0.31590  0.09380  0.74800  1.0000
  H   H108      1.0  0.18410  0.40620  0.24800  1.0000
  H   H109      1.0  0.18410  0.59380  0.74800  1.0000
  H   H110      1.0  0.31590  0.90620  0.24800  1.0000
  H   H111      1.0  0.68410  0.90620  0.25200  1.0000
  H   H112      1.0  0.81590  0.59380  0.75200  1.0000
  C   C137      1.0  0.74530  0.44190  0.21270  1.0000
  C   C138      1.0  0.75470  0.05810  0.71270  1.0000
  C   C139      1.0  0.24530  0.05810  0.78730  1.0000
  C   C140      1.0  0.25470  0.44190  0.28730  1.0000
  C   C141      1.0  0.25470  0.55810  0.78730  1.0000
  C   C142      1.0  0.24530  0.94190  0.28730  1.0000
  C   C143      1.0  0.75470  0.94190  0.21270  1.0000
  C   C144      1.0  0.74530  0.55810  0.71270  1.0000
  C   C145      1.0  0.68230  0.36270  0.18550  1.0000
  C   C146      1.0  0.81770  0.13730  0.68550  1.0000
  C   C147      1.0  0.18230  0.13730  0.81450  1.0000
  C   C148      1.0  0.31770  0.36270  0.31450  1.0000
  C   C149      1.0  0.31770  0.63730  0.81450  1.0000
  C   C150      1.0  0.18230  0.86270  0.31450  1.0000
  C   C151      1.0  0.81770  0.86270  0.18550  1.0000
  C   C152      1.0  0.68230  0.63730  0.68550  1.0000
  H   H113      1.0  0.64910  0.35140  0.16520  1.0000
  H   H114      1.0  0.85090  0.14860  0.66520  1.0000
  H   H115      1.0  0.14910  0.14860  0.83480  1.0000
  H   H116      1.0  0.35090  0.35140  0.33480  1.0000
  H   H117      1.0  0.35090  0.64860  0.83480  1.0000
  H   H118      1.0  0.14910  0.85140  0.33480  1.0000
  H   H119      1.0  0.85090  0.85140  0.16520  1.0000
  H   H120      1.0  0.64910  0.64860  0.66520  1.0000
  C   C153      1.0  0.76420  0.33730  0.23590  1.0000
  C   C154      1.0  0.73580  0.16270  0.73590  1.0000
  C   C155      1.0  0.26420  0.16270  0.76410  1.0000
  C   C156      1.0  0.23580  0.33730  0.26410  1.0000
  C   C157      1.0  0.23580  0.66270  0.76410  1.0000
  C   C158      1.0  0.26420  0.83730  0.26410  1.0000
  C   C159      1.0  0.73580  0.83730  0.23590  1.0000
  C   C160      1.0  0.76420  0.66270  0.73590  1.0000
  H   H121      1.0  0.78790  0.30810  0.25420  1.0000
  H   H122      1.0  0.71210  0.19190  0.75420  1.0000
  H   H123      1.0  0.28790  0.19190  0.74580  1.0000
  H   H124      1.0  0.21210  0.30810  0.24580  1.0000
  H   H125      1.0  0.21210  0.69190  0.74580  1.0000
  H   H126      1.0  0.28790  0.80810  0.24580  1.0000
  H   H127      1.0  0.71210  0.80810  0.25420  1.0000
  H   H128      1.0  0.78790  0.69190  0.75420  1.0000
  N   N1        1.0  0.78000  0.17760  0.95240  1.0000
  N   N2        1.0  0.72000  0.32240  0.45240  1.0000
  N   N3        1.0  0.28000  0.32240  0.04760  1.0000
  N   N4        1.0  0.22000  0.17760  0.54760  1.0000
  N   N5        1.0  0.22000  0.82240  0.04760  1.0000
  N   N6        1.0  0.28000  0.67760  0.54760  1.0000
  N   N7        1.0  0.72000  0.67760  0.95240  1.0000
  N   N8        1.0  0.78000  0.82240  0.45240  1.0000
  N   N9        1.0  0.72010  0.86880  0.97070  1.0000
  N   N10       1.0  0.77990  0.63120  0.47070  1.0000
  N   N11       1.0  0.22010  0.63120  0.02930  1.0000
  N   N12       1.0  0.27990  0.86880  0.52930  1.0000
  N   N13       1.0  0.27990  0.13120  0.02930  1.0000
  N   N14       1.0  0.22010  0.36880  0.52930  1.0000
  N   N15       1.0  0.77990  0.36880  0.97070  1.0000
  N   N16       1.0  0.72010  0.13120  0.47070  1.0000
  N   N17       1.0  0.71600  0.31950  0.21070  1.0000
  N   N18       1.0  0.78400  0.18050  0.71070  1.0000
  N   N19       1.0  0.21600  0.18050  0.78930  1.0000
  N   N20       1.0  0.28400  0.31950  0.28930  1.0000
  N   N21       1.0  0.28400  0.68050  0.78930  1.0000
  N   N22       1.0  0.21600  0.81950  0.28930  1.0000
  N   N23       1.0  0.78400  0.81950  0.21070  1.0000
  N   N24       1.0  0.71600  0.68050  0.71070  1.0000
  N   N25       1.0  0.78970  0.62700  0.21440  1.0000
  N   N26       1.0  0.71030  0.87300  0.71440  1.0000
  N   N27       1.0  0.28970  0.87300  0.78560  1.0000
  N   N28       1.0  0.21030  0.62700  0.28560  1.0000
  N   N29       1.0  0.21030  0.37300  0.78560  1.0000
  N   N30       1.0  0.28970  0.12700  0.28560  1.0000
  N   N31       1.0  0.71030  0.12700  0.21440  1.0000
  N   N32       1.0  0.78970  0.37300  0.71440  1.0000
  O   O1        1.0  0.20980  0.22820  0.13890  1.0000
  O   O2        1.0  0.29020  0.27180  0.63890  1.0000
  O   O3        1.0  0.70980  0.27180  0.86110  1.0000
  O   O4        1.0  0.79020  0.22820  0.36110  1.0000
  O   O5        1.0  0.79020  0.77180  0.86110  1.0000
  O   O6        1.0  0.70980  0.72820  0.36110  1.0000
  O   O7        1.0  0.29020  0.72820  0.13890  1.0000
  O   O8        1.0  0.20980  0.77180  0.63890  1.0000
  O   O9        1.0  0.79480  0.23050  0.11610  1.0000
  O   O10       1.0  0.70520  0.26950  0.61610  1.0000
  O   O11       1.0  0.29480  0.26950  0.88390  1.0000
  O   O12       1.0  0.20520  0.23050  0.38390  1.0000
  O   O13       1.0  0.20520  0.76950  0.88390  1.0000
  O   O14       1.0  0.29480  0.73050  0.38390  1.0000
  O   O15       1.0  0.70520  0.73050  0.11610  1.0000
  O   O16       1.0  0.79480  0.76950  0.61610  1.0000
  O   O17       1.0  0.12110  0.29070  0.90170  1.0000
  O   O18       1.0  0.37890  0.20930  0.40170  1.0000
  O   O19       1.0  0.62110  0.20930  0.09830  1.0000
  O   O20       1.0  0.87890  0.29070  0.59830  1.0000
  O   O21       1.0  0.87890  0.70930  0.09830  1.0000
  O   O22       1.0  0.62110  0.79070  0.59830  1.0000
  O   O23       1.0  0.37890  0.79070  0.90170  1.0000
  O   O24       1.0  0.12110  0.70930  0.40170  1.0000
  O   O25       1.0  0.89590  0.29510  0.89520  1.0000
  O   O26       1.0  0.60410  0.20490  0.39520  1.0000
  O   O27       1.0  0.39590  0.20490  0.10480  1.0000
  O   O28       1.0  0.10410  0.29510  0.60480  1.0000
  O   O29       1.0  0.10410  0.70490  0.10480  1.0000
  O   O30       1.0  0.39590  0.79510  0.60480  1.0000
  O   O31       1.0  0.60410  0.79510  0.89520  1.0000
  O   O32       1.0  0.89590  0.70490  0.39520  1.0000
  O   O33       1.0  0.89000  0.23050  0.03260  1.0000
  O   O34       1.0  0.61000  0.26950  0.53260  1.0000
  O   O35       1.0  0.39000  0.26950  0.96740  1.0000
  O   O36       1.0  0.11000  0.23050  0.46740  1.0000
  O   O37       1.0  0.11000  0.76950  0.96740  1.0000
  O   O38       1.0  0.39000  0.73050  0.46740  1.0000
  O   O39       1.0  0.61000  0.73050  0.03260  1.0000
  O   O40       1.0  0.89000  0.76950  0.53260  1.0000
  O   O41       1.0  0.00130  0.07100  0.16020  1.0000
  O   O42       1.0  0.49870  0.42900  0.66020  1.0000
  O   O43       1.0  0.50130  0.42900  0.83980  1.0000
  O   O44       1.0  0.99870  0.07100  0.33980  1.0000
  O   O45       1.0  0.99870  0.92900  0.83980  1.0000
  O   O46       1.0  0.50130  0.57100  0.33980  1.0000
  O   O47       1.0  0.49870  0.57100  0.16020  1.0000
  O   O48       1.0  0.00130  0.92900  0.66020  1.0000
  O   O49       1.0  0.09980  0.01480  0.12900  1.0000
  O   O50       1.0  0.40020  0.48520  0.62900  1.0000
  O   O51       1.0  0.59980  0.48520  0.87100  1.0000
  O   O52       1.0  0.90020  0.01480  0.37100  1.0000
  O   O53       1.0  0.90020  0.98520  0.87100  1.0000
  O   O54       1.0  0.59980  0.51480  0.37100  1.0000
  O   O55       1.0  0.40020  0.51480  0.12900  1.0000
  O   O56       1.0  0.09980  0.98520  0.62900  1.0000
  O   O57       1.0  0.91480  0.08850  0.24710  1.0000
  O   O58       1.0  0.58520  0.41150  0.74710  1.0000
  O   O59       1.0  0.41480  0.41150  0.75290  1.0000
  O   O60       1.0  0.08520  0.08850  0.25290  1.0000
  O   O61       1.0  0.08520  0.91150  0.75290  1.0000
  O   O62       1.0  0.41480  0.58850  0.25290  1.0000
  O   O63       1.0  0.58520  0.58850  0.24710  1.0000
  O   O64       1.0  0.91480  0.91150  0.74710  1.0000
  O   O65       1.0  0.00800  0.29150  0.92440  1.0000
  O   O66       1.0  0.49200  0.20850  0.42440  1.0000
  O   O67       1.0  0.50800  0.20850  0.07560  1.0000
  O   O68       1.0  0.99200  0.29150  0.57560  1.0000
  O   O69       1.0  0.99200  0.70850  0.07560  1.0000
  O   O70       1.0  0.50800  0.79150  0.57560  1.0000
  O   O71       1.0  0.49200  0.79150  0.92440  1.0000
  O   O72       1.0  0.00800  0.70850  0.42440  1.0000
  O   O73       1.0  0.11730  0.29730  0.16650  1.0000
  O   O74       1.0  0.38270  0.20270  0.66650  1.0000
  O   O75       1.0  0.61730  0.20270  0.83350  1.0000
  O   O76       1.0  0.88270  0.29730  0.33350  1.0000
  O   O77       1.0  0.88270  0.70270  0.83350  1.0000
  O   O78       1.0  0.61730  0.79730  0.33350  1.0000
  O   O79       1.0  0.38270  0.79730  0.16650  1.0000
  O   O80       1.0  0.11730  0.70270  0.66650  1.0000
  O   O81       1.0  0.95180  0.10520  0.03560  1.0000
  O   O82       1.0  0.54820  0.39480  0.53560  1.0000
  O   O83       1.0  0.45180  0.39480  0.96440  1.0000
  O   O84       1.0  0.04820  0.10520  0.46440  1.0000
  O   O85       1.0  0.04820  0.89480  0.96440  1.0000
  O   O86       1.0  0.45180  0.60520  0.46440  1.0000
  O   O87       1.0  0.54820  0.60520  0.03560  1.0000
  O   O88       1.0  0.95180  0.89480  0.53560  1.0000
  O   O89       1.0  0.14310  0.20600  0.25740  1.0000
  O   O90       1.0  0.35690  0.29400  0.75740  1.0000
  O   O91       1.0  0.64310  0.29400  0.74260  1.0000
  O   O92       1.0  0.85690  0.20600  0.24260  1.0000
  O   O93       1.0  0.85690  0.79400  0.74260  1.0000
  O   O94       1.0  0.64310  0.70600  0.24260  1.0000
  O   O95       1.0  0.35690  0.70600  0.25740  1.0000
  O   O96       1.0  0.14310  0.79400  0.75740  1.0000
  O   O97       1.0  0.00300  0.40080  0.12720  1.0000
  O   O98       1.0  0.49700  0.09920  0.62720  1.0000
  O   O99       1.0  0.50300  0.09920  0.87280  1.0000
  O   O100      1.0  0.99700  0.40080  0.37280  1.0000
  O   O101      1.0  0.99700  0.59920  0.87280  1.0000
  O   O102      1.0  0.50300  0.90080  0.37280  1.0000
  O   O103      1.0  0.49700  0.90080  0.12720  1.0000
  O   O104      1.0  0.00300  0.59920  0.62720  1.0000
  O   O105      1.0  0.06080  0.18780  0.92640  1.0000
  O   O106      1.0  0.43920  0.31220  0.42640  1.0000
  O   O107      1.0  0.56080  0.31220  0.07360  1.0000
  O   O108      1.0  0.93920  0.18780  0.57360  1.0000
  O   O109      1.0  0.93920  0.81220  0.07360  1.0000
  O   O110      1.0  0.56080  0.68780  0.57360  1.0000
  O   O111      1.0  0.43920  0.68780  0.92640  1.0000
  O   O112      1.0  0.06080  0.81220  0.42640  1.0000
  O   O113      1.0  0.11280  0.41980  0.12740  1.0000
  O   O114      1.0  0.38720  0.08020  0.62740  1.0000
  O   O115      1.0  0.61280  0.08020  0.87260  1.0000
  O   O116      1.0  0.88720  0.41980  0.37260  1.0000
  O   O117      1.0  0.88720  0.58020  0.87260  1.0000
  O   O118      1.0  0.61280  0.91980  0.37260  1.0000
  O   O119      1.0  0.38720  0.91980  0.12740  1.0000
  O   O120      1.0  0.11280  0.58020  0.62740  1.0000
  O   O121      1.0  0.06950  0.32970  0.03900  1.0000
  O   O122      1.0  0.43050  0.17030  0.53900  1.0000
  O   O123      1.0  0.56950  0.17030  0.96100  1.0000
  O   O124      1.0  0.93050  0.32970  0.46100  1.0000
  O   O125      1.0  0.93050  0.67030  0.96100  1.0000
  O   O126      1.0  0.56950  0.82970  0.46100  1.0000
  O   O127      1.0  0.43050  0.82970  0.03900  1.0000
  O   O128      1.0  0.06950  0.67030  0.53900  1.0000
  O   O129      1.0  0.12080  0.22980  0.04280  1.0000
  O   O130      1.0  0.37920  0.27020  0.54280  1.0000
  O   O131      1.0  0.62080  0.27020  0.95720  1.0000
  O   O132      1.0  0.87920  0.22980  0.45720  1.0000
  O   O133      1.0  0.87920  0.77020  0.95720  1.0000
  O   O134      1.0  0.62080  0.72980  0.45720  1.0000
  O   O135      1.0  0.37920  0.72980  0.04280  1.0000
  O   O136      1.0  0.12080  0.77020  0.54280  1.0000
  O   O137      1.0  0.90240  0.01550  0.12120  1.0000
  O   O138      1.0  0.59760  0.48450  0.62120  1.0000
  O   O139      1.0  0.40240  0.48450  0.87880  1.0000
  O   O140      1.0  0.09760  0.01550  0.37880  1.0000
  O   O141      1.0  0.09760  0.98450  0.87880  1.0000
  O   O142      1.0  0.40240  0.51550  0.37880  1.0000
  O   O143      1.0  0.59760  0.51550  0.12120  1.0000
  O   O144      1.0  0.90240  0.98450  0.62120  1.0000
  O   O145      1.0  0.95320  0.18920  0.92240  1.0000
  O   O146      1.0  0.54680  0.31080  0.42240  1.0000
  O   O147      1.0  0.45320  0.31080  0.07760  1.0000
  O   O148      1.0  0.04680  0.18920  0.57760  1.0000
  O   O149      1.0  0.04680  0.81080  0.07760  1.0000
  O   O150      1.0  0.45320  0.68920  0.57760  1.0000
  O   O151      1.0  0.54680  0.68920  0.92240  1.0000
  O   O152      1.0  0.95320  0.81080  0.42240  1.0000
  O   O153      1.0  0.05260  0.18920  0.16310  1.0000
  O   O154      1.0  0.44740  0.31080  0.66310  1.0000
  O   O155      1.0  0.55260  0.31080  0.83690  1.0000
  O   O156      1.0  0.94740  0.18920  0.33690  1.0000
  O   O157      1.0  0.94740  0.81080  0.83690  1.0000
  O   O158      1.0  0.55260  0.68920  0.33690  1.0000
  O   O159      1.0  0.44740  0.68920  0.16310  1.0000
  O   O160      1.0  0.05260  0.81080  0.66310  1.0000
  O   O161      1.0  0.94140  0.33030  0.03560  1.0000
  O   O162      1.0  0.55860  0.16970  0.53560  1.0000
  O   O163      1.0  0.44140  0.16970  0.96440  1.0000
  O   O164      1.0  0.05860  0.33030  0.46440  1.0000
  O   O165      1.0  0.05860  0.66970  0.96440  1.0000
  O   O166      1.0  0.44140  0.83030  0.46440  1.0000
  O   O167      1.0  0.55860  0.83030  0.03560  1.0000
  O   O168      1.0  0.94140  0.66970  0.53560  1.0000
  O   O169      1.0  0.86400  0.13300  0.12070  1.0000
  O   O170      1.0  0.63600  0.36700  0.62070  1.0000
  O   O171      1.0  0.36400  0.36700  0.87930  1.0000
  O   O172      1.0  0.13600  0.13300  0.37930  1.0000
  O   O173      1.0  0.13600  0.86700  0.87930  1.0000
  O   O174      1.0  0.36400  0.63300  0.37930  1.0000
  O   O175      1.0  0.63600  0.63300  0.12070  1.0000
  O   O176      1.0  0.86400  0.86700  0.62070  1.0000
  O   O177      1.0  0.89230  0.41940  0.11970  1.0000
  O   O178      1.0  0.60770  0.08060  0.61970  1.0000
  O   O179      1.0  0.39230  0.08060  0.88030  1.0000
  O   O180      1.0  0.10770  0.41940  0.38030  1.0000
  O   O181      1.0  0.10770  0.58060  0.88030  1.0000
  O   O182      1.0  0.39230  0.91940  0.38030  1.0000
  O   O183      1.0  0.60770  0.91940  0.11970  1.0000
  O   O184      1.0  0.89230  0.58060  0.61970  1.0000
  O   O185      1.0  0.95110  0.18990  0.15860  1.0000
  O   O186      1.0  0.54890  0.31010  0.65860  1.0000
  O   O187      1.0  0.45110  0.31010  0.84140  1.0000
  O   O188      1.0  0.04890  0.18990  0.34140  1.0000
  O   O189      1.0  0.04890  0.81010  0.84140  1.0000
  O   O190      1.0  0.45110  0.68990  0.34140  1.0000
  O   O191      1.0  0.54890  0.68990  0.15860  1.0000
  O   O192      1.0  0.95110  0.81010  0.65860  1.0000
  O   O193      1.0  0.00540  0.07920  0.89870  1.0000
  O   O194      1.0  0.49460  0.42080  0.39870  1.0000
  O   O195      1.0  0.50540  0.42080  0.10130  1.0000
  O   O196      1.0  0.99460  0.07920  0.60130  1.0000
  O   O197      1.0  0.99460  0.92080  0.10130  1.0000
  O   O198      1.0  0.50540  0.57920  0.60130  1.0000
  O   O199      1.0  0.49460  0.57920  0.89870  1.0000
  O   O200      1.0  0.00540  0.92080  0.39870  1.0000
  O   O201      1.0  0.88690  0.29780  0.15730  1.0000
  O   O202      1.0  0.61310  0.20220  0.65730  1.0000
  O   O203      1.0  0.38690  0.20220  0.84270  1.0000
  O   O204      1.0  0.11310  0.29780  0.34270  1.0000
  O   O205      1.0  0.11310  0.70220  0.84270  1.0000
  O   O206      1.0  0.38690  0.79780  0.34270  1.0000
  O   O207      1.0  0.61310  0.79780  0.15730  1.0000
  O   O208      1.0  0.88690  0.70220  0.65730  1.0000
  O   O209      1.0  0.00160  0.28840  0.16110  1.0000
  O   O210      1.0  0.49840  0.21160  0.66110  1.0000
  O   O211      1.0  0.50160  0.21160  0.83890  1.0000
  O   O212      1.0  0.99840  0.28840  0.33890  1.0000
  O   O213      1.0  0.99840  0.71160  0.83890  1.0000
  O   O214      1.0  0.50160  0.78840  0.33890  1.0000
  O   O215      1.0  0.49840  0.78840  0.16110  1.0000
  O   O216      1.0  0.00160  0.71160  0.66110  1.0000
  O   O217      1.0  0.05610  0.10590  0.04010  1.0000
  O   O218      1.0  0.44390  0.39410  0.54010  1.0000
  O   O219      1.0  0.55610  0.39410  0.95990  1.0000
  O   O220      1.0  0.94390  0.10590  0.45990  1.0000
  O   O221      1.0  0.94390  0.89410  0.95990  1.0000
  O   O222      1.0  0.55610  0.60590  0.45990  1.0000
  O   O223      1.0  0.44390  0.60590  0.04010  1.0000
  O   O224      1.0  0.05610  0.89410  0.54010  1.0000
  O   O225      1.0  0.13960  0.13190  0.13350  1.0000
  O   O226      1.0  0.36040  0.36810  0.63350  1.0000
  O   O227      1.0  0.63960  0.36810  0.86650  1.0000
  O   O228      1.0  0.86040  0.13190  0.36650  1.0000
  O   O229      1.0  0.86040  0.86810  0.86650  1.0000
  O   O230      1.0  0.63960  0.63190  0.36650  1.0000
  O   O231      1.0  0.36040  0.63190  0.13350  1.0000
  O   O232      1.0  0.13960  0.86810  0.63350  1.0000
  O   O233      1.0  0.00480  0.22260  0.04360  1.0000
  O   O234      1.0  0.49520  0.27740  0.54360  1.0000
  O   O235      1.0  0.50480  0.27740  0.95640  1.0000
  O   O236      1.0  0.99520  0.22260  0.45640  1.0000
  O   O237      1.0  0.99520  0.77740  0.95640  1.0000
  O   O238      1.0  0.50480  0.72260  0.45640  1.0000
  O   O239      1.0  0.49520  0.72260  0.04360  1.0000
  O   O240      1.0  0.00480  0.77740  0.54360  1.0000
  O   O241      1.0  0.06010  0.37290  0.25180  1.0000
  O   O242      1.0  0.43990  0.12710  0.75180  1.0000
  O   O243      1.0  0.56010  0.12710  0.74820  1.0000
  O   O244      1.0  0.93990  0.37290  0.24820  1.0000
  O   O245      1.0  0.93990  0.62710  0.74820  1.0000
  O   O246      1.0  0.56010  0.87290  0.24820  1.0000
  O   O247      1.0  0.43990  0.87290  0.25180  1.0000
  O   O248      1.0  0.06010  0.62710  0.75180  1.0000
