data_image0
_chemical_formula_structural       C6H2C2H2C4H2C2H2C6H2C2H2C4H2C2H2C6H2C2H2C4H2C2H2C4H2C2H2C4H2C2H2C2H2C2H2C4H2C2H2Co2N4O14H2O2H4O2H4
_chemical_formula_sum              "C64 H50 Co2 N4 O18"
_cell_length_a       10.733
_cell_length_b       11.485
_cell_length_c       15.429
_cell_angle_alpha    94.778
_cell_angle_beta     91.029
_cell_angle_gamma    98.309

_space_group_name_H-M_alt    "P 1"
_space_group_IT_number       1

loop_
  _space_group_symop_operation_xyz
  'x, y, z'

loop_
  _atom_site_type_symbol
  _atom_site_label
  _atom_site_symmetry_multiplicity
  _atom_site_fract_x
  _atom_site_fract_y
  _atom_site_fract_z
  _atom_site_occupancy
  C   C1        1.0  0.24060  0.86940  0.50020  1.0000
  C   C2        1.0  0.75940  0.13060  0.49980  1.0000
  C   C3        1.0  0.24000  0.91780  0.41120  1.0000
  C   C4        1.0  0.76000  0.08220  0.58880  1.0000
  C   C5        1.0  0.23130  0.84520  0.33430  1.0000
  C   C6        1.0  0.76870  0.15480  0.66570  1.0000
  H   H1        1.0  0.24190  0.76640  0.33550  1.0000
  H   H2        1.0  0.75810  0.23360  0.66450  1.0000
  C   C7        1.0  0.20680  0.88880  0.25570  1.0000
  C   C8        1.0  0.79320  0.11120  0.74430  1.0000
  H   H3        1.0  0.20290  0.83950  0.20440  1.0000
  H   H4        1.0  0.79710  0.16050  0.79560  1.0000
  C   C9        1.0  0.18830  0.00520  0.25280  1.0000
  C   C10       1.0  0.81170  0.99480  0.74720  1.0000
  C   C11       1.0  0.19910  0.07950  0.32940  1.0000
  C   C12       1.0  0.80090  0.92050  0.67060  1.0000
  H   H5        1.0  0.18880  0.15840  0.32770  1.0000
  H   H6        1.0  0.81120  0.84160  0.67230  1.0000
  C   C13       1.0  0.22490  0.03700  0.40790  1.0000
  C   C14       1.0  0.77510  0.96300  0.59210  1.0000
  H   H7        1.0  0.23220  0.08730  0.45870  1.0000
  H   H8        1.0  0.76780  0.91270  0.54130  1.0000
  C   C15       1.0  0.14040  0.04200  0.16930  1.0000
  C   C16       1.0  0.85960  0.95800  0.83070  1.0000
  C   C17       1.0  0.12090  0.78160  0.51200  1.0000
  C   C18       1.0  0.87910  0.21840  0.48800  1.0000
  C   C19       1.0  0.01380  0.78960  0.46570  1.0000
  C   C20       1.0  0.98620  0.21040  0.53430  1.0000
  H   H9        1.0  0.01580  0.84320  0.42360  1.0000
  H   H10       1.0  0.98420  0.15680  0.57640  1.0000
  C   C21       1.0  0.90070  0.71800  0.48080  1.0000
  C   C22       1.0  0.09930  0.28200  0.51920  1.0000
  H   H11       1.0  0.82760  0.72530  0.44980  1.0000
  H   H12       1.0  0.17240  0.27470  0.55020  1.0000
  C   C23       1.0  0.89780  0.63630  0.54190  1.0000
  C   C24       1.0  0.10220  0.36370  0.45810  1.0000
  C   C25       1.0  0.01110  0.62740  0.58800  1.0000
  C   C26       1.0  0.98890  0.37260  0.41200  1.0000
  H   H13       1.0  0.01210  0.57230  0.62870  1.0000
  H   H14       1.0  0.98790  0.42770  0.37130  1.0000
  C   C27       1.0  0.11850  0.70030  0.57200  1.0000
  C   C28       1.0  0.88150  0.29970  0.42800  1.0000
  H   H15       1.0  0.19230  0.69460  0.60290  1.0000
  H   H16       1.0  0.80770  0.30540  0.39710  1.0000
  C   C29       1.0  0.77460  0.57000  0.55810  1.0000
  C   C30       1.0  0.22540  0.43000  0.44190  1.0000
  C   C31       1.0  0.27090  0.96480  0.57590  1.0000
  C   C32       1.0  0.72910  0.03520  0.42410  1.0000
  C   C33       1.0  0.17350  0.00790  0.61921  1.0000
  C   C34       1.0  0.82650  0.99210  0.38079  1.0000
  H   H17       1.0  0.09100  0.97340  0.60550  1.0000
  H   H18       1.0  0.90900  0.02660  0.39450  1.0000
  C   C35       1.0  0.19650  0.10110  0.68230  1.0000
  C   C36       1.0  0.80350  0.89890  0.31770  1.0000
  H   H19       1.0  0.12980  0.12890  0.71100  1.0000
  H   H20       1.0  0.87020  0.87110  0.28900  1.0000
  C   C37       1.0  0.31970  0.15370  0.70300  1.0000
  C   C38       1.0  0.68030  0.84630  0.29700  1.0000
  C   C39       1.0  0.41820  0.11030  0.66040  1.0000
  C   C40       1.0  0.58180  0.88970  0.33960  1.0000
  H   H21       1.0  0.50100  0.14410  0.67420  1.0000
  H   H22       1.0  0.49900  0.85590  0.32580  1.0000
  C   C41       1.0  0.39290  0.01610  0.59685  1.0000
  C   C42       1.0  0.60710  0.98390  0.40315  1.0000
  H   H23       1.0  0.45910  0.98740  0.56820  1.0000
  H   H24       1.0  0.54090  0.01260  0.43180  1.0000
  C   C43       1.0  0.34770  0.26040  0.76770  1.0000
  C   C44       1.0  0.65230  0.73960  0.23230  1.0000
  C   C45       1.0  0.87200  0.21370  0.06120  1.0000
  C   C46       1.0  0.12800  0.78630  0.93880  1.0000
  H   H25       1.0  0.92100  0.25070  0.01950  1.0000
  H   H26       1.0  0.07900  0.74930  0.98050  1.0000
  C   C47       1.0  0.79910  0.27970  0.11430  1.0000
  C   C48       1.0  0.20090  0.72030  0.88570  1.0000
  H   H27       1.0  0.79860  0.35940  0.10800  1.0000
  H   H28       1.0  0.20140  0.64060  0.89200  1.0000
  C   C49       1.0  0.72720  0.22310  0.17690  1.0000
  C   C50       1.0  0.27280  0.77690  0.82310  1.0000
  C   C51       1.0  0.72500  0.10400  0.18290  1.0000
  C   C52       1.0  0.27500  0.89600  0.81710  1.0000
  H   H29       1.0  0.67480  0.06560  0.22340  1.0000
  H   H30       1.0  0.32520  0.93440  0.77660  1.0000
  C   C53       1.0  0.79730  0.04180  0.12860  1.0000
  C   C54       1.0  0.20270  0.95820  0.87140  1.0000
  H   H31       1.0  0.79450  0.96110  0.13260  1.0000
  H   H32       1.0  0.20550  0.03890  0.86740  1.0000
  C   C55       1.0  0.51210  0.29350  0.35690  1.0000
  C   C56       1.0  0.48790  0.70650  0.64310  1.0000
  H   H33       1.0  0.44790  0.25430  0.38790  1.0000
  H   H34       1.0  0.55210  0.74570  0.61210  1.0000
  C   C57       1.0  0.55860  0.23360  0.28630  1.0000
  C   C58       1.0  0.44140  0.76640  0.71370  1.0000
  H   H35       1.0  0.52590  0.15520  0.27000  1.0000
  H   H36       1.0  0.47410  0.84480  0.73000  1.0000
  C   C59       1.0  0.65390  0.29100  0.24030  1.0000
  C   C60       1.0  0.34610  0.70900  0.75970  1.0000
  C   C61       1.0  0.70020  0.40900  0.26524  1.0000
  C   C62       1.0  0.29980  0.59100  0.73476  1.0000
  H   H37       1.0  0.76340  0.44890  0.23380  1.0000
  H   H38       1.0  0.23660  0.55110  0.76620  1.0000
  C   C63       1.0  0.65290  0.46640  0.33610  1.0000
  C   C64       1.0  0.34710  0.53360  0.66390  1.0000
  H   H39       1.0  0.68530  0.54470  0.35290  1.0000
  H   H40       1.0  0.31470  0.45530  0.64710  1.0000
  Co  Co1       1.0  0.00000  0.00000  0.00000  1.0000
  Co  Co2       1.0  0.50000  0.50000  0.50000  1.0000
  N   N1        1.0  0.87320  0.09610  0.06894  1.0000
  N   N2        1.0  0.12680  0.90390  0.93106  1.0000
  N   N3        1.0  0.55760  0.40890  0.38264  1.0000
  N   N4        1.0  0.44240  0.59110  0.61736  1.0000
  O   O1        1.0  0.07370  0.96226  0.12091  1.0000
  O   O2        1.0  0.92630  0.03774  0.87909  1.0000
  O   O3        1.0  0.18870  0.14350  0.15648  1.0000
  O   O4        1.0  0.81130  0.85650  0.84352  1.0000
  O   O5        1.0  0.67903  0.58540  0.51756  1.0000
  O   O6        1.0  0.32097  0.41460  0.48244  1.0000
  O   O7        1.0  0.76710  0.49920  0.61680  1.0000
  O   O8        1.0  0.23290  0.50080  0.38320  1.0000
  O   O9        1.0  0.30550  0.24730  0.83996  1.0000
  O   O10       1.0  0.69450  0.75270  0.16004  1.0000
  O   O11       1.0  0.42120  0.34140  0.74088  1.0000
  O   O12       1.0  0.57880  0.65860  0.25912  1.0000
  O   O13       1.0  0.35800  0.82550  0.51080  1.0000
  O   O14       1.0  0.64200  0.17450  0.48920  1.0000
  H   H41       1.0  0.40390  0.83030  0.45810  1.0000
  H   H42       1.0  0.59610  0.16970  0.54190  1.0000
  O   O15       1.0  0.87461  0.83212  0.00391  1.0000
  O   O16       1.0  0.12539  0.16788  0.99609  1.0000
  H   H43       1.0  0.91140  0.80820  0.05550  1.0000
  H   H44       1.0  0.08860  0.19180  0.94450  1.0000
  H   H45       1.0  0.88280  0.78300  0.95150  1.0000
  H   H46       1.0  0.11720  0.21700  0.04850  1.0000
  O   O17       1.0  0.55283  0.35837  0.57298  1.0000
  O   O18       1.0  0.44717  0.64163  0.42702  1.0000
  H   H47       1.0  0.64000  0.37640  0.59090  1.0000
  H   H48       1.0  0.36000  0.62360  0.40910  1.0000
  H   H49       1.0  0.50200  0.34970  0.62330  1.0000
  H   H50       1.0  0.49800  0.65030  0.37670  1.0000
