data_image0
_chemical_formula_structural       Zn16P16O80C32H16C16H16C16H16C32H16C16
_chemical_formula_sum              "Zn16 P16 O80 C112 H64"
_cell_length_a       23.986
_cell_length_b       23.986
_cell_length_c       10.481
_cell_angle_alpha    90
_cell_angle_beta     90
_cell_angle_gamma    90

_space_group_name_H-M_alt    "P 1"
_space_group_IT_number       1

loop_
  _space_group_symop_operation_xyz
  'x, y, z'

loop_
  _atom_site_type_symbol
  _atom_site_label
  _atom_site_symmetry_multiplicity
  _atom_site_fract_x
  _atom_site_fract_y
  _atom_site_fract_z
  _atom_site_occupancy
  Zn  Zn1       1.0  0.57915  0.02035  0.61049  1.0000
  Zn  Zn2       1.0  0.92085  0.47965  0.61049  1.0000
  Zn  Zn3       1.0  0.47965  0.57915  0.61049  1.0000
  Zn  Zn4       1.0  0.02035  0.92085  0.61049  1.0000
  Zn  Zn5       1.0  0.92085  0.02035  0.88951  1.0000
  Zn  Zn6       1.0  0.57915  0.47965  0.88951  1.0000
  Zn  Zn7       1.0  0.02035  0.57915  0.88951  1.0000
  Zn  Zn8       1.0  0.47965  0.92085  0.88951  1.0000
  Zn  Zn9       1.0  0.42085  0.97965  0.38951  1.0000
  Zn  Zn10      1.0  0.07915  0.52035  0.38951  1.0000
  Zn  Zn11      1.0  0.52035  0.42085  0.38951  1.0000
  Zn  Zn12      1.0  0.97965  0.07915  0.38951  1.0000
  Zn  Zn13      1.0  0.07915  0.97965  0.11049  1.0000
  Zn  Zn14      1.0  0.42085  0.52035  0.11049  1.0000
  Zn  Zn15      1.0  0.97965  0.42085  0.11049  1.0000
  Zn  Zn16      1.0  0.52035  0.07915  0.11049  1.0000
  P   P1        1.0  0.51073  0.08499  0.41100  1.0000
  P   P2        1.0  0.98927  0.41501  0.41100  1.0000
  P   P3        1.0  0.41501  0.51073  0.41100  1.0000
  P   P4        1.0  0.08499  0.98927  0.41100  1.0000
  P   P5        1.0  0.98927  0.08499  0.08900  1.0000
  P   P6        1.0  0.51073  0.41501  0.08900  1.0000
  P   P7        1.0  0.08499  0.51073  0.08900  1.0000
  P   P8        1.0  0.41501  0.98927  0.08900  1.0000
  P   P9        1.0  0.48927  0.91501  0.58900  1.0000
  P   P10       1.0  0.01073  0.58499  0.58900  1.0000
  P   P11       1.0  0.58499  0.48927  0.58900  1.0000
  P   P12       1.0  0.91501  0.01073  0.58900  1.0000
  P   P13       1.0  0.01073  0.91501  0.91100  1.0000
  P   P14       1.0  0.48927  0.58499  0.91100  1.0000
  P   P15       1.0  0.91501  0.48927  0.91100  1.0000
  P   P16       1.0  0.58499  0.01073  0.91100  1.0000
  O   O1        1.0  0.55200  0.08500  0.52060  1.0000
  O   O2        1.0  0.94800  0.41500  0.52060  1.0000
  O   O3        1.0  0.41500  0.55200  0.52060  1.0000
  O   O4        1.0  0.08500  0.94800  0.52060  1.0000
  O   O5        1.0  0.94800  0.08500  0.97940  1.0000
  O   O6        1.0  0.55200  0.41500  0.97940  1.0000
  O   O7        1.0  0.08500  0.55200  0.97940  1.0000
  O   O8        1.0  0.41500  0.94800  0.97940  1.0000
  O   O9        1.0  0.44800  0.91500  0.47940  1.0000
  O   O10       1.0  0.05200  0.58500  0.47940  1.0000
  O   O11       1.0  0.58500  0.44800  0.47940  1.0000
  O   O12       1.0  0.91500  0.05200  0.47940  1.0000
  O   O13       1.0  0.05200  0.91500  0.02060  1.0000
  O   O14       1.0  0.44800  0.58500  0.02060  1.0000
  O   O15       1.0  0.91500  0.44800  0.02060  1.0000
  O   O16       1.0  0.58500  0.05200  0.02060  1.0000
  O   O17       1.0  0.54300  0.07920  0.28750  1.0000
  O   O18       1.0  0.95700  0.42080  0.28750  1.0000
  O   O19       1.0  0.42080  0.54300  0.28750  1.0000
  O   O20       1.0  0.07920  0.95700  0.28750  1.0000
  O   O21       1.0  0.95700  0.07920  0.21250  1.0000
  O   O22       1.0  0.54300  0.42080  0.21250  1.0000
  O   O23       1.0  0.07920  0.54300  0.21250  1.0000
  O   O24       1.0  0.42080  0.95700  0.21250  1.0000
  O   O25       1.0  0.45700  0.92080  0.71250  1.0000
  O   O26       1.0  0.04300  0.57920  0.71250  1.0000
  O   O27       1.0  0.57920  0.45700  0.71250  1.0000
  O   O28       1.0  0.92080  0.04300  0.71250  1.0000
  O   O29       1.0  0.04300  0.92080  0.78750  1.0000
  O   O30       1.0  0.45700  0.57920  0.78750  1.0000
  O   O31       1.0  0.92080  0.45700  0.78750  1.0000
  O   O32       1.0  0.57920  0.04300  0.78750  1.0000
  O   O33       1.0  0.46590  0.04280  0.42600  1.0000
  O   O34       1.0  0.03410  0.45720  0.42600  1.0000
  O   O35       1.0  0.45720  0.46590  0.42600  1.0000
  O   O36       1.0  0.04280  0.03410  0.42600  1.0000
  O   O37       1.0  0.03410  0.04280  0.07400  1.0000
  O   O38       1.0  0.46590  0.45720  0.07400  1.0000
  O   O39       1.0  0.04280  0.46590  0.07400  1.0000
  O   O40       1.0  0.45720  0.03410  0.07400  1.0000
  O   O41       1.0  0.53410  0.95720  0.57400  1.0000
  O   O42       1.0  0.96590  0.54280  0.57400  1.0000
  O   O43       1.0  0.54280  0.53410  0.57400  1.0000
  O   O44       1.0  0.95720  0.96590  0.57400  1.0000
  O   O45       1.0  0.96590  0.95720  0.92600  1.0000
  O   O46       1.0  0.53410  0.54280  0.92600  1.0000
  O   O47       1.0  0.95720  0.53410  0.92600  1.0000
  O   O48       1.0  0.54280  0.96590  0.92600  1.0000
  O   O49       1.0  0.56520  0.30290  0.41510  1.0000
  O   O50       1.0  0.93480  0.19710  0.41510  1.0000
  O   O51       1.0  0.19710  0.56520  0.41510  1.0000
  O   O52       1.0  0.30290  0.93480  0.41510  1.0000
  O   O53       1.0  0.93480  0.30290  0.08490  1.0000
  O   O54       1.0  0.56520  0.19710  0.08490  1.0000
  O   O55       1.0  0.30290  0.56520  0.08490  1.0000
  O   O56       1.0  0.19710  0.93480  0.08490  1.0000
  O   O57       1.0  0.43480  0.69710  0.58490  1.0000
  O   O58       1.0  0.06520  0.80290  0.58490  1.0000
  O   O59       1.0  0.80290  0.43480  0.58490  1.0000
  O   O60       1.0  0.69710  0.06520  0.58490  1.0000
  O   O61       1.0  0.06520  0.69710  0.91510  1.0000
  O   O62       1.0  0.43480  0.80290  0.91510  1.0000
  O   O63       1.0  0.69710  0.43480  0.91510  1.0000
  O   O64       1.0  0.80290  0.06520  0.91510  1.0000
  O   O65       1.0  0.48760  0.34930  0.43600  1.0000
  O   O66       1.0  0.01240  0.15070  0.43600  1.0000
  O   O67       1.0  0.15070  0.48760  0.43600  1.0000
  O   O68       1.0  0.34930  0.01240  0.43600  1.0000
  O   O69       1.0  0.01240  0.34930  0.06400  1.0000
  O   O70       1.0  0.48760  0.15070  0.06400  1.0000
  O   O71       1.0  0.34930  0.48760  0.06400  1.0000
  O   O72       1.0  0.15070  0.01240  0.06400  1.0000
  O   O73       1.0  0.51240  0.65070  0.56400  1.0000
  O   O74       1.0  0.98760  0.84930  0.56400  1.0000
  O   O75       1.0  0.84930  0.51240  0.56400  1.0000
  O   O76       1.0  0.65070  0.98760  0.56400  1.0000
  O   O77       1.0  0.98760  0.65070  0.93600  1.0000
  O   O78       1.0  0.51240  0.84930  0.93600  1.0000
  O   O79       1.0  0.65070  0.51240  0.93600  1.0000
  O   O80       1.0  0.84930  0.98760  0.93600  1.0000
  C   C1        1.0  0.47640  0.15200  0.41140  1.0000
  C   C2        1.0  0.02360  0.34800  0.41140  1.0000
  C   C3        1.0  0.34800  0.47640  0.41140  1.0000
  C   C4        1.0  0.15200  0.02360  0.41140  1.0000
  C   C5        1.0  0.02360  0.15200  0.08860  1.0000
  C   C6        1.0  0.47640  0.34800  0.08860  1.0000
  C   C7        1.0  0.15200  0.47640  0.08860  1.0000
  C   C8        1.0  0.34800  0.02360  0.08860  1.0000
  C   C9        1.0  0.52360  0.84800  0.58860  1.0000
  C   C10       1.0  0.97640  0.65200  0.58860  1.0000
  C   C11       1.0  0.65200  0.52360  0.58860  1.0000
  C   C12       1.0  0.84800  0.97640  0.58860  1.0000
  C   C13       1.0  0.97640  0.84800  0.91140  1.0000
  C   C14       1.0  0.52360  0.65200  0.91140  1.0000
  C   C15       1.0  0.84800  0.52360  0.91140  1.0000
  C   C16       1.0  0.65200  0.97640  0.91140  1.0000
  C   C17       1.0  0.41910  0.15540  0.40900  1.0000
  C   C18       1.0  0.08090  0.34460  0.40900  1.0000
  C   C19       1.0  0.34460  0.41910  0.40900  1.0000
  C   C20       1.0  0.15540  0.08090  0.40900  1.0000
  C   C21       1.0  0.08090  0.15540  0.09100  1.0000
  C   C22       1.0  0.41910  0.34460  0.09100  1.0000
  C   C23       1.0  0.15540  0.41910  0.09100  1.0000
  C   C24       1.0  0.34460  0.08090  0.09100  1.0000
  C   C25       1.0  0.58090  0.84460  0.59100  1.0000
  C   C26       1.0  0.91910  0.65540  0.59100  1.0000
  C   C27       1.0  0.65540  0.58090  0.59100  1.0000
  C   C28       1.0  0.84460  0.91910  0.59100  1.0000
  C   C29       1.0  0.91910  0.84460  0.90900  1.0000
  C   C30       1.0  0.58090  0.65540  0.90900  1.0000
  C   C31       1.0  0.84460  0.58090  0.90900  1.0000
  C   C32       1.0  0.65540  0.91910  0.90900  1.0000
  H   H1        1.0  0.39800  0.12290  0.40520  1.0000
  H   H2        1.0  0.10200  0.37710  0.40520  1.0000
  H   H3        1.0  0.37710  0.39800  0.40520  1.0000
  H   H4        1.0  0.12290  0.10200  0.40520  1.0000
  H   H5        1.0  0.10200  0.12290  0.09480  1.0000
  H   H6        1.0  0.39800  0.37710  0.09480  1.0000
  H   H7        1.0  0.12290  0.39800  0.09480  1.0000
  H   H8        1.0  0.37710  0.10200  0.09480  1.0000
  H   H9        1.0  0.60200  0.87710  0.59480  1.0000
  H   H10       1.0  0.89800  0.62290  0.59480  1.0000
  H   H11       1.0  0.62290  0.60200  0.59480  1.0000
  H   H12       1.0  0.87710  0.89800  0.59480  1.0000
  H   H13       1.0  0.89800  0.87710  0.90520  1.0000
  H   H14       1.0  0.60200  0.62290  0.90520  1.0000
  H   H15       1.0  0.87710  0.60200  0.90520  1.0000
  H   H16       1.0  0.62290  0.89800  0.90520  1.0000
  C   C33       1.0  0.39270  0.20620  0.41210  1.0000
  C   C34       1.0  0.10730  0.29380  0.41210  1.0000
  C   C35       1.0  0.29380  0.39270  0.41210  1.0000
  C   C36       1.0  0.20620  0.10730  0.41210  1.0000
  C   C37       1.0  0.10730  0.20620  0.08790  1.0000
  C   C38       1.0  0.39270  0.29380  0.08790  1.0000
  C   C39       1.0  0.20620  0.39270  0.08790  1.0000
  C   C40       1.0  0.29380  0.10730  0.08790  1.0000
  C   C41       1.0  0.60730  0.79380  0.58790  1.0000
  C   C42       1.0  0.89270  0.70620  0.58790  1.0000
  C   C43       1.0  0.70620  0.60730  0.58790  1.0000
  C   C44       1.0  0.79380  0.89270  0.58790  1.0000
  C   C45       1.0  0.89270  0.79380  0.91210  1.0000
  C   C46       1.0  0.60730  0.70620  0.91210  1.0000
  C   C47       1.0  0.79380  0.60730  0.91210  1.0000
  C   C48       1.0  0.70620  0.89270  0.91210  1.0000
  H   H17       1.0  0.35400  0.20800  0.40820  1.0000
  H   H18       1.0  0.14600  0.29200  0.40820  1.0000
  H   H19       1.0  0.29200  0.35400  0.40820  1.0000
  H   H20       1.0  0.20800  0.14600  0.40820  1.0000
  H   H21       1.0  0.14600  0.20800  0.09180  1.0000
  H   H22       1.0  0.35400  0.29200  0.09180  1.0000
  H   H23       1.0  0.20800  0.35400  0.09180  1.0000
  H   H24       1.0  0.29200  0.14600  0.09180  1.0000
  H   H25       1.0  0.64600  0.79200  0.59180  1.0000
  H   H26       1.0  0.85400  0.70800  0.59180  1.0000
  H   H27       1.0  0.70800  0.64600  0.59180  1.0000
  H   H28       1.0  0.79200  0.85400  0.59180  1.0000
  H   H29       1.0  0.85400  0.79200  0.90820  1.0000
  H   H30       1.0  0.64600  0.70800  0.90820  1.0000
  H   H31       1.0  0.79200  0.64600  0.90820  1.0000
  H   H32       1.0  0.70800  0.85400  0.90820  1.0000
  C   C49       1.0  0.42380  0.25440  0.42110  1.0000
  C   C50       1.0  0.07620  0.24560  0.42110  1.0000
  C   C51       1.0  0.24560  0.42380  0.42110  1.0000
  C   C52       1.0  0.25440  0.07620  0.42110  1.0000
  C   C53       1.0  0.07620  0.25440  0.07890  1.0000
  C   C54       1.0  0.42380  0.24560  0.07890  1.0000
  C   C55       1.0  0.25440  0.42380  0.07890  1.0000
  C   C56       1.0  0.24560  0.07620  0.07890  1.0000
  C   C57       1.0  0.57620  0.74560  0.57890  1.0000
  C   C58       1.0  0.92380  0.75440  0.57890  1.0000
  C   C59       1.0  0.75440  0.57620  0.57890  1.0000
  C   C60       1.0  0.74560  0.92380  0.57890  1.0000
  C   C61       1.0  0.92380  0.74560  0.92110  1.0000
  C   C62       1.0  0.57620  0.75440  0.92110  1.0000
  C   C63       1.0  0.74560  0.57620  0.92110  1.0000
  C   C64       1.0  0.75440  0.92380  0.92110  1.0000
  H   H33       1.0  0.40580  0.28860  0.42770  1.0000
  H   H34       1.0  0.09420  0.21140  0.42770  1.0000
  H   H35       1.0  0.21140  0.40580  0.42770  1.0000
  H   H36       1.0  0.28860  0.09420  0.42770  1.0000
  H   H37       1.0  0.09420  0.28860  0.07230  1.0000
  H   H38       1.0  0.40580  0.21140  0.07230  1.0000
  H   H39       1.0  0.28860  0.40580  0.07230  1.0000
  H   H40       1.0  0.21140  0.09420  0.07230  1.0000
  H   H41       1.0  0.59420  0.71140  0.57230  1.0000
  H   H42       1.0  0.90580  0.78860  0.57230  1.0000
  H   H43       1.0  0.78860  0.59420  0.57230  1.0000
  H   H44       1.0  0.71140  0.90580  0.57230  1.0000
  H   H45       1.0  0.90580  0.71140  0.92770  1.0000
  H   H46       1.0  0.59420  0.78860  0.92770  1.0000
  H   H47       1.0  0.71140  0.59420  0.92770  1.0000
  H   H48       1.0  0.78860  0.90580  0.92770  1.0000
  C   C65       1.0  0.48050  0.25260  0.42030  1.0000
  C   C66       1.0  0.01950  0.24740  0.42030  1.0000
  C   C67       1.0  0.24740  0.48050  0.42030  1.0000
  C   C68       1.0  0.25260  0.01950  0.42030  1.0000
  C   C69       1.0  0.01950  0.25260  0.07970  1.0000
  C   C70       1.0  0.48050  0.24740  0.07970  1.0000
  C   C71       1.0  0.25260  0.48050  0.07970  1.0000
  C   C72       1.0  0.24740  0.01950  0.07970  1.0000
  C   C73       1.0  0.51950  0.74740  0.57970  1.0000
  C   C74       1.0  0.98050  0.75260  0.57970  1.0000
  C   C75       1.0  0.75260  0.51950  0.57970  1.0000
  C   C76       1.0  0.74740  0.98050  0.57970  1.0000
  C   C77       1.0  0.98050  0.74740  0.92030  1.0000
  C   C78       1.0  0.51950  0.75260  0.92030  1.0000
  C   C79       1.0  0.74740  0.51950  0.92030  1.0000
  C   C80       1.0  0.75260  0.98050  0.92030  1.0000
  C   C81       1.0  0.50660  0.20020  0.41610  1.0000
  C   C82       1.0  0.99340  0.29980  0.41610  1.0000
  C   C83       1.0  0.29980  0.50660  0.41610  1.0000
  C   C84       1.0  0.20020  0.99340  0.41610  1.0000
  C   C85       1.0  0.99340  0.20020  0.08390  1.0000
  C   C86       1.0  0.50660  0.29980  0.08390  1.0000
  C   C87       1.0  0.20020  0.50660  0.08390  1.0000
  C   C88       1.0  0.29980  0.99340  0.08390  1.0000
  C   C89       1.0  0.49340  0.79980  0.58390  1.0000
  C   C90       1.0  0.00660  0.70020  0.58390  1.0000
  C   C91       1.0  0.70020  0.49340  0.58390  1.0000
  C   C92       1.0  0.79980  0.00660  0.58390  1.0000
  C   C93       1.0  0.00660  0.79980  0.91610  1.0000
  C   C94       1.0  0.49340  0.70020  0.91610  1.0000
  C   C95       1.0  0.79980  0.49340  0.91610  1.0000
  C   C96       1.0  0.70020  0.00660  0.91610  1.0000
  H   H49       1.0  0.54540  0.19830  0.41650  1.0000
  H   H50       1.0  0.95460  0.30170  0.41650  1.0000
  H   H51       1.0  0.30170  0.54540  0.41650  1.0000
  H   H52       1.0  0.19830  0.95460  0.41650  1.0000
  H   H53       1.0  0.95460  0.19830  0.08350  1.0000
  H   H54       1.0  0.54540  0.30170  0.08350  1.0000
  H   H55       1.0  0.19830  0.54540  0.08350  1.0000
  H   H56       1.0  0.30170  0.95460  0.08350  1.0000
  H   H57       1.0  0.45460  0.80170  0.58350  1.0000
  H   H58       1.0  0.04540  0.69830  0.58350  1.0000
  H   H59       1.0  0.69830  0.45460  0.58350  1.0000
  H   H60       1.0  0.80170  0.04540  0.58350  1.0000
  H   H61       1.0  0.04540  0.80170  0.91650  1.0000
  H   H62       1.0  0.45460  0.69830  0.91650  1.0000
  H   H63       1.0  0.80170  0.45460  0.91650  1.0000
  H   H64       1.0  0.69830  0.04540  0.91650  1.0000
  C   C97       1.0  0.51420  0.30540  0.42290  1.0000
  C   C98       1.0  0.98580  0.19460  0.42290  1.0000
  C   C99       1.0  0.19460  0.51420  0.42290  1.0000
  C   C100      1.0  0.30540  0.98580  0.42290  1.0000
  C   C101      1.0  0.98580  0.30540  0.07710  1.0000
  C   C102      1.0  0.51420  0.19460  0.07710  1.0000
  C   C103      1.0  0.30540  0.51420  0.07710  1.0000
  C   C104      1.0  0.19460  0.98580  0.07710  1.0000
  C   C105      1.0  0.48580  0.69460  0.57710  1.0000
  C   C106      1.0  0.01420  0.80540  0.57710  1.0000
  C   C107      1.0  0.80540  0.48580  0.57710  1.0000
  C   C108      1.0  0.69460  0.01420  0.57710  1.0000
  C   C109      1.0  0.01420  0.69460  0.92290  1.0000
  C   C110      1.0  0.48580  0.80540  0.92290  1.0000
  C   C111      1.0  0.69460  0.48580  0.92290  1.0000
  C   C112      1.0  0.80540  0.01420  0.92290  1.0000
