data_image0
_chemical_formula_structural       Zn2C2H2C6H2C2H2C14H2C2H2C6H2C4H4O24
_chemical_formula_sum              "Zn2 C36 H16 O24"
_cell_length_a       9.0085
_cell_length_b       10.1303
_cell_length_c       19.5199
_cell_angle_alpha    99.891
_cell_angle_beta     98.868
_cell_angle_gamma    101.765

_space_group_name_H-M_alt    "P 1"
_space_group_IT_number       1

loop_
  _space_group_symop_operation_xyz
  'x, y, z'

loop_
  _atom_site_type_symbol
  _atom_site_label
  _atom_site_symmetry_multiplicity
  _atom_site_fract_x
  _atom_site_fract_y
  _atom_site_fract_z
  _atom_site_occupancy
  Zn  Zn1       1.0  0.06565  0.36142  0.44181  1.0000
  Zn  Zn2       1.0  0.93435  0.63858  0.55819  1.0000
  C   C1        1.0  0.62030  0.97150  0.58828  1.0000
  C   C2        1.0  0.37970  0.02850  0.41172  1.0000
  H   H1        1.0  0.56890  0.88750  0.59590  1.0000
  H   H2        1.0  0.43110  0.11250  0.40410  1.0000
  C   C3        1.0  0.77190  0.98910  0.57632  1.0000
  C   C4        1.0  0.22810  0.01090  0.42368  1.0000
  C   C5        1.0  0.54700  0.07950  0.58883  1.0000
  C   C6        1.0  0.45300  0.92050  0.41117  1.0000
  C   C7        1.0  0.84660  0.11570  0.56407  1.0000
  C   C8        1.0  0.15340  0.88430  0.43593  1.0000
  H   H3        1.0  0.94790  0.12870  0.55700  1.0000
  H   H4        1.0  0.05210  0.87130  0.44300  1.0000
  C   C9        1.0  0.62230  0.20540  0.57581  1.0000
  C   C10       1.0  0.37770  0.79460  0.42419  1.0000
  H   H5        1.0  0.57280  0.27750  0.57610  1.0000
  H   H6        1.0  0.42720  0.72250  0.42390  1.0000
  C   C11       1.0  0.85670  0.87620  0.57475  1.0000
  C   C12       1.0  0.14330  0.12380  0.42525  1.0000
  C   C13       1.0  0.38560  0.06670  0.60253  1.0000
  C   C14       1.0  0.61440  0.93330  0.39747  1.0000
  C   C15       1.0  0.77170  0.22190  0.56239  1.0000
  C   C16       1.0  0.22830  0.77810  0.43761  1.0000
  C   C17       1.0  0.85390  0.35410  0.54554  1.0000
  C   C18       1.0  0.14610  0.64590  0.45446  1.0000
  C   C19       1.0  0.93140  0.29390  0.30467  1.0000
  C   C20       1.0  0.06860  0.70610  0.69533  1.0000
  C   C21       1.0  0.80920  0.23690  0.23929  1.0000
  C   C22       1.0  0.19080  0.76310  0.76071  1.0000
  C   C23       1.0  0.85180  0.22730  0.17298  1.0000
  C   C24       1.0  0.14820  0.77270  0.82702  1.0000
  H   H7        1.0  0.95520  0.25490  0.17010  1.0000
  H   H8        1.0  0.04480  0.74510  0.82990  1.0000
  C   C25       1.0  0.65510  0.19000  0.24340  1.0000
  C   C26       1.0  0.34490  0.81000  0.75660  1.0000
  H   H9        1.0  0.62680  0.19590  0.28750  1.0000
  H   H10       1.0  0.37320  0.80410  0.71250  1.0000
  C   C27       1.0  0.54280  0.13420  0.18165  1.0000
  C   C28       1.0  0.45720  0.86580  0.81835  1.0000
  C   C29       1.0  0.73970  0.17650  0.11165  1.0000
  C   C30       1.0  0.26030  0.82350  0.88835  1.0000
  C   C31       1.0  0.58490  0.13110  0.11600  1.0000
  C   C32       1.0  0.41510  0.86890  0.88400  1.0000
  H   H11       1.0  0.50980  0.09860  0.07470  1.0000
  H   H12       1.0  0.49020  0.90140  0.92530  1.0000
  C   C33       1.0  0.37690  0.07830  0.18750  1.0000
  C   C34       1.0  0.62310  0.92170  0.81250  1.0000
  C   C35       1.0  0.78760  0.15920  0.04120  1.0000
  C   C36       1.0  0.21240  0.84080  0.95880  1.0000
  H   H13       1.0  0.22400  0.94000  0.60100  1.0000
  H   H14       1.0  0.77600  0.06000  0.39900  1.0000
  H   H15       1.0  0.69500  0.08600  0.95140  1.0000
  H   H16       1.0  0.30500  0.91400  0.04860  1.0000
  O   O1        1.0  0.77600  0.75120  0.56078  1.0000
  O   O2        1.0  0.22400  0.24880  0.43922  1.0000
  O   O3        1.0  0.00020  0.90670  0.58558  1.0000
  O   O4        1.0  0.99980  0.09330  0.41442  1.0000
  O   O5        1.0  0.31410  0.93700  0.60081  1.0000
  O   O6        1.0  0.68590  0.06300  0.39919  1.0000
  O   O7        1.0  0.32740  0.16240  0.61450  1.0000
  O   O8        1.0  0.67260  0.83760  0.38550  1.0000
  O   O9        1.0  0.98840  0.36060  0.53184  1.0000
  O   O10       1.0  0.01160  0.63940  0.46816  1.0000
  O   O11       1.0  0.79030  0.45370  0.54946  1.0000
  O   O12       1.0  0.20970  0.54630  0.45054  1.0000
  O   O13       1.0  0.88800  0.32530  0.36360  1.0000
  O   O14       1.0  0.11200  0.67470  0.63640  1.0000
  O   O15       1.0  0.06890  0.30720  0.29943  1.0000
  O   O16       1.0  0.93110  0.69280  0.70057  1.0000
  O   O17       1.0  0.92170  0.18030  0.03444  1.0000
  O   O18       1.0  0.07830  0.81970  0.96556  1.0000
  O   O19       1.0  0.67070  0.11790  0.98765  1.0000
  O   O20       1.0  0.32930  0.88210  0.01235  1.0000
  O   O21       1.0  0.34100  0.09020  0.24579  1.0000
  O   O22       1.0  0.65900  0.90980  0.75421  1.0000
  O   O23       1.0  0.28130  0.01740  0.12902  1.0000
  O   O24       1.0  0.71870  0.98260  0.87098  1.0000
