data_image0
_chemical_formula_structural       Tb96O32H32O96H96O192C288H96C192S96O192C288H96C96H96C192H96C96H96C192H96C96H96C192H96C96H96C192H96O96C96H96N96C96H288C96H288
_chemical_formula_sum              "Tb96 O608 H1760 C2208 S96 N96"
_cell_length_a       45.6614
_cell_length_b       45.6614
_cell_length_c       45.6614
_cell_angle_alpha    90
_cell_angle_beta     90
_cell_angle_gamma    90

_space_group_name_H-M_alt    "P 1"
_space_group_IT_number       1

loop_
  _space_group_symop_operation_xyz
  'x, y, z'

loop_
  _atom_site_type_symbol
  _atom_site_label
  _atom_site_symmetry_multiplicity
  _atom_site_fract_x
  _atom_site_fract_y
  _atom_site_fract_z
  _atom_site_occupancy
  Tb  Tb1       1.0  0.45392  0.22762  0.28352  1.0000
  Tb  Tb2       1.0  0.28352  0.45392  0.22762  1.0000
  Tb  Tb3       1.0  0.22762  0.28352  0.45392  1.0000
  Tb  Tb4       1.0  0.02238  0.96648  0.45392  1.0000
  Tb  Tb5       1.0  0.28352  0.79608  0.02238  1.0000
  Tb  Tb6       1.0  0.02238  0.28352  0.79608  1.0000
  Tb  Tb7       1.0  0.96648  0.79608  0.22762  1.0000
  Tb  Tb8       1.0  0.96648  0.45392  0.02238  1.0000
  Tb  Tb9       1.0  0.22762  0.96648  0.79608  1.0000
  Tb  Tb10      1.0  0.79608  0.02238  0.28352  1.0000
  Tb  Tb11      1.0  0.45392  0.02238  0.96648  1.0000
  Tb  Tb12      1.0  0.79608  0.22762  0.96648  1.0000
  Tb  Tb13      1.0  0.45392  0.72762  0.78352  1.0000
  Tb  Tb14      1.0  0.28352  0.95392  0.72762  1.0000
  Tb  Tb15      1.0  0.22762  0.78352  0.95392  1.0000
  Tb  Tb16      1.0  0.02238  0.46648  0.95392  1.0000
  Tb  Tb17      1.0  0.28352  0.29608  0.52238  1.0000
  Tb  Tb18      1.0  0.02238  0.78352  0.29608  1.0000
  Tb  Tb19      1.0  0.96648  0.29608  0.72762  1.0000
  Tb  Tb20      1.0  0.96648  0.95392  0.52238  1.0000
  Tb  Tb21      1.0  0.22762  0.46648  0.29608  1.0000
  Tb  Tb22      1.0  0.79608  0.52238  0.78352  1.0000
  Tb  Tb23      1.0  0.45392  0.52238  0.46648  1.0000
  Tb  Tb24      1.0  0.79608  0.72762  0.46648  1.0000
  Tb  Tb25      1.0  0.95392  0.22762  0.78352  1.0000
  Tb  Tb26      1.0  0.78352  0.45392  0.72762  1.0000
  Tb  Tb27      1.0  0.72762  0.28352  0.95392  1.0000
  Tb  Tb28      1.0  0.52238  0.96648  0.95392  1.0000
  Tb  Tb29      1.0  0.78352  0.79608  0.52238  1.0000
  Tb  Tb30      1.0  0.52238  0.28352  0.29608  1.0000
  Tb  Tb31      1.0  0.46648  0.79608  0.72762  1.0000
  Tb  Tb32      1.0  0.46648  0.45392  0.52238  1.0000
  Tb  Tb33      1.0  0.72762  0.96648  0.29608  1.0000
  Tb  Tb34      1.0  0.29608  0.02238  0.78352  1.0000
  Tb  Tb35      1.0  0.95392  0.02238  0.46648  1.0000
  Tb  Tb36      1.0  0.29608  0.22762  0.46648  1.0000
  Tb  Tb37      1.0  0.95392  0.72762  0.28352  1.0000
  Tb  Tb38      1.0  0.78352  0.95392  0.22762  1.0000
  Tb  Tb39      1.0  0.72762  0.78352  0.45392  1.0000
  Tb  Tb40      1.0  0.52238  0.46648  0.45392  1.0000
  Tb  Tb41      1.0  0.78352  0.29608  0.02238  1.0000
  Tb  Tb42      1.0  0.52238  0.78352  0.79608  1.0000
  Tb  Tb43      1.0  0.46648  0.29608  0.22762  1.0000
  Tb  Tb44      1.0  0.46648  0.95392  0.02238  1.0000
  Tb  Tb45      1.0  0.72762  0.46648  0.79608  1.0000
  Tb  Tb46      1.0  0.29608  0.52238  0.28352  1.0000
  Tb  Tb47      1.0  0.95392  0.52238  0.96648  1.0000
  Tb  Tb48      1.0  0.29608  0.72762  0.96648  1.0000
  Tb  Tb49      1.0  0.54608  0.77238  0.71648  1.0000
  Tb  Tb50      1.0  0.71648  0.54608  0.77238  1.0000
  Tb  Tb51      1.0  0.77238  0.71648  0.54608  1.0000
  Tb  Tb52      1.0  0.97762  0.03352  0.54608  1.0000
  Tb  Tb53      1.0  0.71648  0.20392  0.97762  1.0000
  Tb  Tb54      1.0  0.97762  0.71648  0.20392  1.0000
  Tb  Tb55      1.0  0.03352  0.20392  0.77238  1.0000
  Tb  Tb56      1.0  0.03352  0.54608  0.97762  1.0000
  Tb  Tb57      1.0  0.77238  0.03352  0.20392  1.0000
  Tb  Tb58      1.0  0.20392  0.97762  0.71648  1.0000
  Tb  Tb59      1.0  0.54608  0.97762  0.03352  1.0000
  Tb  Tb60      1.0  0.20392  0.77238  0.03352  1.0000
  Tb  Tb61      1.0  0.54608  0.27238  0.21648  1.0000
  Tb  Tb62      1.0  0.71648  0.04608  0.27238  1.0000
  Tb  Tb63      1.0  0.77238  0.21648  0.04608  1.0000
  Tb  Tb64      1.0  0.97762  0.53352  0.04608  1.0000
  Tb  Tb65      1.0  0.71648  0.70392  0.47762  1.0000
  Tb  Tb66      1.0  0.97762  0.21648  0.70392  1.0000
  Tb  Tb67      1.0  0.03352  0.70392  0.27238  1.0000
  Tb  Tb68      1.0  0.03352  0.04608  0.47762  1.0000
  Tb  Tb69      1.0  0.77238  0.53352  0.70392  1.0000
  Tb  Tb70      1.0  0.20392  0.47762  0.21648  1.0000
  Tb  Tb71      1.0  0.54608  0.47762  0.53352  1.0000
  Tb  Tb72      1.0  0.20392  0.27238  0.53352  1.0000
  Tb  Tb73      1.0  0.04608  0.77238  0.21648  1.0000
  Tb  Tb74      1.0  0.21648  0.54608  0.27238  1.0000
  Tb  Tb75      1.0  0.27238  0.71648  0.04608  1.0000
  Tb  Tb76      1.0  0.47762  0.03352  0.04608  1.0000
  Tb  Tb77      1.0  0.21648  0.20392  0.47762  1.0000
  Tb  Tb78      1.0  0.47762  0.71648  0.70392  1.0000
  Tb  Tb79      1.0  0.53352  0.20392  0.27238  1.0000
  Tb  Tb80      1.0  0.53352  0.54608  0.47762  1.0000
  Tb  Tb81      1.0  0.27238  0.03352  0.70392  1.0000
  Tb  Tb82      1.0  0.70392  0.97762  0.21648  1.0000
  Tb  Tb83      1.0  0.04608  0.97762  0.53352  1.0000
  Tb  Tb84      1.0  0.70392  0.77238  0.53352  1.0000
  Tb  Tb85      1.0  0.04608  0.27238  0.71648  1.0000
  Tb  Tb86      1.0  0.21648  0.04608  0.77238  1.0000
  Tb  Tb87      1.0  0.27238  0.21648  0.54608  1.0000
  Tb  Tb88      1.0  0.47762  0.53352  0.54608  1.0000
  Tb  Tb89      1.0  0.21648  0.70392  0.97762  1.0000
  Tb  Tb90      1.0  0.47762  0.21648  0.20392  1.0000
  Tb  Tb91      1.0  0.53352  0.70392  0.77238  1.0000
  Tb  Tb92      1.0  0.53352  0.04608  0.97762  1.0000
  Tb  Tb93      1.0  0.27238  0.53352  0.20392  1.0000
  Tb  Tb94      1.0  0.70392  0.47762  0.71648  1.0000
  Tb  Tb95      1.0  0.04608  0.47762  0.03352  1.0000
  Tb  Tb96      1.0  0.70392  0.27238  0.03352  1.0000
  O   O1        1.0  0.47574  0.27426  0.27426  1.0000
  O   O2        1.0  0.27426  0.47574  0.27426  1.0000
  O   O3        1.0  0.27426  0.27426  0.47574  1.0000
  O   O4        1.0  0.97574  0.97574  0.47574  1.0000
  O   O5        1.0  0.27426  0.77426  0.97574  1.0000
  O   O6        1.0  0.97574  0.27426  0.77426  1.0000
  O   O7        1.0  0.97574  0.77426  0.27426  1.0000
  O   O8        1.0  0.97574  0.47574  0.97574  1.0000
  O   O9        1.0  0.27426  0.97574  0.77426  1.0000
  O   O10       1.0  0.77426  0.97574  0.27426  1.0000
  O   O11       1.0  0.47574  0.97574  0.97574  1.0000
  O   O12       1.0  0.77426  0.27426  0.97574  1.0000
  O   O13       1.0  0.47574  0.77426  0.77426  1.0000
  O   O14       1.0  0.77426  0.47574  0.77426  1.0000
  O   O15       1.0  0.47574  0.47574  0.47574  1.0000
  O   O16       1.0  0.77426  0.77426  0.47574  1.0000
  O   O17       1.0  0.52426  0.72574  0.72574  1.0000
  O   O18       1.0  0.72574  0.52426  0.72574  1.0000
  O   O19       1.0  0.72574  0.72574  0.52426  1.0000
  O   O20       1.0  0.02426  0.02426  0.52426  1.0000
  O   O21       1.0  0.72574  0.22574  0.02426  1.0000
  O   O22       1.0  0.02426  0.72574  0.22574  1.0000
  O   O23       1.0  0.02426  0.22574  0.72574  1.0000
  O   O24       1.0  0.02426  0.52426  0.02426  1.0000
  O   O25       1.0  0.72574  0.02426  0.22574  1.0000
  O   O26       1.0  0.22574  0.02426  0.72574  1.0000
  O   O27       1.0  0.52426  0.02426  0.02426  1.0000
  O   O28       1.0  0.22574  0.72574  0.02426  1.0000
  O   O29       1.0  0.52426  0.22574  0.22574  1.0000
  O   O30       1.0  0.22574  0.52426  0.22574  1.0000
  O   O31       1.0  0.52426  0.52426  0.52426  1.0000
  O   O32       1.0  0.22574  0.22574  0.52426  1.0000
  H   H1        1.0  0.46470  0.28530  0.28530  1.0000
  H   H2        1.0  0.28530  0.46470  0.28530  1.0000
  H   H3        1.0  0.28530  0.28530  0.46470  1.0000
  H   H4        1.0  0.96470  0.96470  0.46470  1.0000
  H   H5        1.0  0.28530  0.78530  0.96470  1.0000
  H   H6        1.0  0.96470  0.28530  0.78530  1.0000
  H   H7        1.0  0.96470  0.78530  0.28530  1.0000
  H   H8        1.0  0.96470  0.46470  0.96470  1.0000
  H   H9        1.0  0.28530  0.96470  0.78530  1.0000
  H   H10       1.0  0.78530  0.96470  0.28530  1.0000
  H   H11       1.0  0.46470  0.96470  0.96470  1.0000
  H   H12       1.0  0.78530  0.28530  0.96470  1.0000
  H   H13       1.0  0.46470  0.78530  0.78530  1.0000
  H   H14       1.0  0.78530  0.46470  0.78530  1.0000
  H   H15       1.0  0.46470  0.46470  0.46470  1.0000
  H   H16       1.0  0.78530  0.78530  0.46470  1.0000
  H   H17       1.0  0.53530  0.71470  0.71470  1.0000
  H   H18       1.0  0.71470  0.53530  0.71470  1.0000
  H   H19       1.0  0.71470  0.71470  0.53530  1.0000
  H   H20       1.0  0.03530  0.03530  0.53530  1.0000
  H   H21       1.0  0.71470  0.21470  0.03530  1.0000
  H   H22       1.0  0.03530  0.71470  0.21470  1.0000
  H   H23       1.0  0.03530  0.21470  0.71470  1.0000
  H   H24       1.0  0.03530  0.53530  0.03530  1.0000
  H   H25       1.0  0.71470  0.03530  0.21470  1.0000
  H   H26       1.0  0.21470  0.03530  0.71470  1.0000
  H   H27       1.0  0.53530  0.03530  0.03530  1.0000
  H   H28       1.0  0.21470  0.71470  0.03530  1.0000
  H   H29       1.0  0.53530  0.21470  0.21470  1.0000
  H   H30       1.0  0.21470  0.53530  0.21470  1.0000
  H   H31       1.0  0.53530  0.53530  0.53530  1.0000
  H   H32       1.0  0.21470  0.21470  0.53530  1.0000
  O   O33       1.0  0.45483  0.24731  0.23574  1.0000
  O   O34       1.0  0.23574  0.45483  0.24731  1.0000
  O   O35       1.0  0.24731  0.23574  0.45483  1.0000
  O   O36       1.0  0.00269  0.01426  0.45483  1.0000
  O   O37       1.0  0.23574  0.79517  0.00269  1.0000
  O   O38       1.0  0.00269  0.23574  0.79517  1.0000
  O   O39       1.0  0.01426  0.79517  0.24731  1.0000
  O   O40       1.0  0.01426  0.45483  0.00269  1.0000
  O   O41       1.0  0.24731  0.01426  0.79517  1.0000
  O   O42       1.0  0.79517  0.00269  0.23574  1.0000
  O   O43       1.0  0.45483  0.00269  0.01426  1.0000
  O   O44       1.0  0.79517  0.24731  0.01426  1.0000
  O   O45       1.0  0.45483  0.74731  0.73574  1.0000
  O   O46       1.0  0.23574  0.95483  0.74731  1.0000
  O   O47       1.0  0.24731  0.73574  0.95483  1.0000
  O   O48       1.0  0.00269  0.51426  0.95483  1.0000
  O   O49       1.0  0.23574  0.29517  0.50269  1.0000
  O   O50       1.0  0.00269  0.73574  0.29517  1.0000
  O   O51       1.0  0.01426  0.29517  0.74731  1.0000
  O   O52       1.0  0.01426  0.95483  0.50269  1.0000
  O   O53       1.0  0.24731  0.51426  0.29517  1.0000
  O   O54       1.0  0.79517  0.50269  0.73574  1.0000
  O   O55       1.0  0.45483  0.50269  0.51426  1.0000
  O   O56       1.0  0.79517  0.74731  0.51426  1.0000
  O   O57       1.0  0.95483  0.24731  0.73574  1.0000
  O   O58       1.0  0.73574  0.45483  0.74731  1.0000
  O   O59       1.0  0.74731  0.23574  0.95483  1.0000
  O   O60       1.0  0.50269  0.01426  0.95483  1.0000
  O   O61       1.0  0.73574  0.79517  0.50269  1.0000
  O   O62       1.0  0.50269  0.23574  0.29517  1.0000
  O   O63       1.0  0.51426  0.79517  0.74731  1.0000
  O   O64       1.0  0.51426  0.45483  0.50269  1.0000
  O   O65       1.0  0.74731  0.01426  0.29517  1.0000
  O   O66       1.0  0.29517  0.00269  0.73574  1.0000
  O   O67       1.0  0.95483  0.00269  0.51426  1.0000
  O   O68       1.0  0.29517  0.24731  0.51426  1.0000
  O   O69       1.0  0.95483  0.74731  0.23574  1.0000
  O   O70       1.0  0.73574  0.95483  0.24731  1.0000
  O   O71       1.0  0.74731  0.73574  0.45483  1.0000
  O   O72       1.0  0.50269  0.51426  0.45483  1.0000
  O   O73       1.0  0.73574  0.29517  0.00269  1.0000
  O   O74       1.0  0.50269  0.73574  0.79517  1.0000
  O   O75       1.0  0.51426  0.29517  0.24731  1.0000
  O   O76       1.0  0.51426  0.95483  0.00269  1.0000
  O   O77       1.0  0.74731  0.51426  0.79517  1.0000
  O   O78       1.0  0.29517  0.50269  0.23574  1.0000
  O   O79       1.0  0.95483  0.50269  0.01426  1.0000
  O   O80       1.0  0.29517  0.74731  0.01426  1.0000
  O   O81       1.0  0.54517  0.75269  0.76426  1.0000
  O   O82       1.0  0.76426  0.54517  0.75269  1.0000
  O   O83       1.0  0.75269  0.76426  0.54517  1.0000
  O   O84       1.0  0.99731  0.98574  0.54517  1.0000
  O   O85       1.0  0.76426  0.20483  0.99731  1.0000
  O   O86       1.0  0.99731  0.76426  0.20483  1.0000
  O   O87       1.0  0.98574  0.20483  0.75269  1.0000
  O   O88       1.0  0.98574  0.54517  0.99731  1.0000
  O   O89       1.0  0.75269  0.98574  0.20483  1.0000
  O   O90       1.0  0.20483  0.99731  0.76426  1.0000
  O   O91       1.0  0.54517  0.99731  0.98574  1.0000
  O   O92       1.0  0.20483  0.75269  0.98574  1.0000
  O   O93       1.0  0.54517  0.25269  0.26426  1.0000
  O   O94       1.0  0.76426  0.04517  0.25269  1.0000
  O   O95       1.0  0.75269  0.26426  0.04517  1.0000
  O   O96       1.0  0.99731  0.48574  0.04517  1.0000
  O   O97       1.0  0.76426  0.70483  0.49731  1.0000
  O   O98       1.0  0.99731  0.26426  0.70483  1.0000
  O   O99       1.0  0.98574  0.70483  0.25269  1.0000
  O   O100      1.0  0.98574  0.04517  0.49731  1.0000
  O   O101      1.0  0.75269  0.48574  0.70483  1.0000
  O   O102      1.0  0.20483  0.49731  0.26426  1.0000
  O   O103      1.0  0.54517  0.49731  0.48574  1.0000
  O   O104      1.0  0.20483  0.25269  0.48574  1.0000
  O   O105      1.0  0.04517  0.75269  0.26426  1.0000
  O   O106      1.0  0.26426  0.54517  0.25269  1.0000
  O   O107      1.0  0.25269  0.76426  0.04517  1.0000
  O   O108      1.0  0.49731  0.98574  0.04517  1.0000
  O   O109      1.0  0.26426  0.20483  0.49731  1.0000
  O   O110      1.0  0.49731  0.76426  0.70483  1.0000
  O   O111      1.0  0.48574  0.20483  0.25269  1.0000
  O   O112      1.0  0.48574  0.54517  0.49731  1.0000
  O   O113      1.0  0.25269  0.98574  0.70483  1.0000
  O   O114      1.0  0.70483  0.99731  0.26426  1.0000
  O   O115      1.0  0.04517  0.99731  0.48574  1.0000
  O   O116      1.0  0.70483  0.75269  0.48574  1.0000
  O   O117      1.0  0.04517  0.25269  0.76426  1.0000
  O   O118      1.0  0.26426  0.04517  0.75269  1.0000
  O   O119      1.0  0.25269  0.26426  0.54517  1.0000
  O   O120      1.0  0.49731  0.48574  0.54517  1.0000
  O   O121      1.0  0.26426  0.70483  0.99731  1.0000
  O   O122      1.0  0.49731  0.26426  0.20483  1.0000
  O   O123      1.0  0.48574  0.70483  0.75269  1.0000
  O   O124      1.0  0.48574  0.04517  0.99731  1.0000
  O   O125      1.0  0.25269  0.48574  0.20483  1.0000
  O   O126      1.0  0.70483  0.49731  0.76426  1.0000
  O   O127      1.0  0.04517  0.49731  0.98574  1.0000
  O   O128      1.0  0.70483  0.25269  0.98574  1.0000
  H   H33       1.0  0.43660  0.24630  0.23040  1.0000
  H   H34       1.0  0.23040  0.43660  0.24630  1.0000
  H   H35       1.0  0.24630  0.23040  0.43660  1.0000
  H   H36       1.0  0.00370  0.01960  0.43660  1.0000
  H   H37       1.0  0.23040  0.81340  0.00370  1.0000
  H   H38       1.0  0.00370  0.23040  0.81340  1.0000
  H   H39       1.0  0.01960  0.81340  0.24630  1.0000
  H   H40       1.0  0.01960  0.43660  0.00370  1.0000
  H   H41       1.0  0.24630  0.01960  0.81340  1.0000
  H   H42       1.0  0.81340  0.00370  0.23040  1.0000
  H   H43       1.0  0.43660  0.00370  0.01960  1.0000
  H   H44       1.0  0.81340  0.24630  0.01960  1.0000
  H   H45       1.0  0.43660  0.74630  0.73040  1.0000
  H   H46       1.0  0.23040  0.93660  0.74630  1.0000
  H   H47       1.0  0.24630  0.73040  0.93660  1.0000
  H   H48       1.0  0.00370  0.51960  0.93660  1.0000
  H   H49       1.0  0.23040  0.31340  0.50370  1.0000
  H   H50       1.0  0.00370  0.73040  0.31340  1.0000
  H   H51       1.0  0.01960  0.31340  0.74630  1.0000
  H   H52       1.0  0.01960  0.93660  0.50370  1.0000
  H   H53       1.0  0.24630  0.51960  0.31340  1.0000
  H   H54       1.0  0.81340  0.50370  0.73040  1.0000
  H   H55       1.0  0.43660  0.50370  0.51960  1.0000
  H   H56       1.0  0.81340  0.74630  0.51960  1.0000
  H   H57       1.0  0.93660  0.24630  0.73040  1.0000
  H   H58       1.0  0.73040  0.43660  0.74630  1.0000
  H   H59       1.0  0.74630  0.23040  0.93660  1.0000
  H   H60       1.0  0.50370  0.01960  0.93660  1.0000
  H   H61       1.0  0.73040  0.81340  0.50370  1.0000
  H   H62       1.0  0.50370  0.23040  0.31340  1.0000
  H   H63       1.0  0.51960  0.81340  0.74630  1.0000
  H   H64       1.0  0.51960  0.43660  0.50370  1.0000
  H   H65       1.0  0.74630  0.01960  0.31340  1.0000
  H   H66       1.0  0.31340  0.00370  0.73040  1.0000
  H   H67       1.0  0.93660  0.00370  0.51960  1.0000
  H   H68       1.0  0.31340  0.24630  0.51960  1.0000
  H   H69       1.0  0.93660  0.74630  0.23040  1.0000
  H   H70       1.0  0.73040  0.93660  0.24630  1.0000
  H   H71       1.0  0.74630  0.73040  0.43660  1.0000
  H   H72       1.0  0.50370  0.51960  0.43660  1.0000
  H   H73       1.0  0.73040  0.31340  0.00370  1.0000
  H   H74       1.0  0.50370  0.73040  0.81340  1.0000
  H   H75       1.0  0.51960  0.31340  0.24630  1.0000
  H   H76       1.0  0.51960  0.93660  0.00370  1.0000
  H   H77       1.0  0.74630  0.51960  0.81340  1.0000
  H   H78       1.0  0.31340  0.50370  0.23040  1.0000
  H   H79       1.0  0.93660  0.50370  0.01960  1.0000
  H   H80       1.0  0.31340  0.74630  0.01960  1.0000
  H   H81       1.0  0.56340  0.75370  0.76960  1.0000
  H   H82       1.0  0.76960  0.56340  0.75370  1.0000
  H   H83       1.0  0.75370  0.76960  0.56340  1.0000
  H   H84       1.0  0.99630  0.98040  0.56340  1.0000
  H   H85       1.0  0.76960  0.18660  0.99630  1.0000
  H   H86       1.0  0.99630  0.76960  0.18660  1.0000
  H   H87       1.0  0.98040  0.18660  0.75370  1.0000
  H   H88       1.0  0.98040  0.56340  0.99630  1.0000
  H   H89       1.0  0.75370  0.98040  0.18660  1.0000
  H   H90       1.0  0.18660  0.99630  0.76960  1.0000
  H   H91       1.0  0.56340  0.99630  0.98040  1.0000
  H   H92       1.0  0.18660  0.75370  0.98040  1.0000
  H   H93       1.0  0.56340  0.25370  0.26960  1.0000
  H   H94       1.0  0.76960  0.06340  0.25370  1.0000
  H   H95       1.0  0.75370  0.26960  0.06340  1.0000
  H   H96       1.0  0.99630  0.48040  0.06340  1.0000
  H   H97       1.0  0.76960  0.68660  0.49630  1.0000
  H   H98       1.0  0.99630  0.26960  0.68660  1.0000
  H   H99       1.0  0.98040  0.68660  0.25370  1.0000
  H   H100      1.0  0.98040  0.06340  0.49630  1.0000
  H   H101      1.0  0.75370  0.48040  0.68660  1.0000
  H   H102      1.0  0.18660  0.49630  0.26960  1.0000
  H   H103      1.0  0.56340  0.49630  0.48040  1.0000
  H   H104      1.0  0.18660  0.25370  0.48040  1.0000
  H   H105      1.0  0.06340  0.75370  0.26960  1.0000
  H   H106      1.0  0.26960  0.56340  0.25370  1.0000
  H   H107      1.0  0.25370  0.76960  0.06340  1.0000
  H   H108      1.0  0.49630  0.98040  0.06340  1.0000
  H   H109      1.0  0.26960  0.18660  0.49630  1.0000
  H   H110      1.0  0.49630  0.76960  0.68660  1.0000
  H   H111      1.0  0.48040  0.18660  0.25370  1.0000
  H   H112      1.0  0.48040  0.56340  0.49630  1.0000
  H   H113      1.0  0.25370  0.98040  0.68660  1.0000
  H   H114      1.0  0.68660  0.99630  0.26960  1.0000
  H   H115      1.0  0.06340  0.99630  0.48040  1.0000
  H   H116      1.0  0.68660  0.75370  0.48040  1.0000
  H   H117      1.0  0.06340  0.25370  0.76960  1.0000
  H   H118      1.0  0.26960  0.06340  0.75370  1.0000
  H   H119      1.0  0.25370  0.26960  0.56340  1.0000
  H   H120      1.0  0.49630  0.48040  0.56340  1.0000
  H   H121      1.0  0.26960  0.68660  0.99630  1.0000
  H   H122      1.0  0.49630  0.26960  0.18660  1.0000
  H   H123      1.0  0.48040  0.68660  0.75370  1.0000
  H   H124      1.0  0.48040  0.06340  0.99630  1.0000
  H   H125      1.0  0.25370  0.48040  0.18660  1.0000
  H   H126      1.0  0.68660  0.49630  0.76960  1.0000
  H   H127      1.0  0.06340  0.49630  0.98040  1.0000
  H   H128      1.0  0.68660  0.25370  0.98040  1.0000
  O   O129      1.0  0.41710  0.25930  0.27991  1.0000
  O   O130      1.0  0.27991  0.41710  0.25930  1.0000
  O   O131      1.0  0.25930  0.27991  0.41710  1.0000
  O   O132      1.0  0.99070  0.97009  0.41710  1.0000
  O   O133      1.0  0.27991  0.83290  0.99070  1.0000
  O   O134      1.0  0.99070  0.27991  0.83290  1.0000
  O   O135      1.0  0.97009  0.83290  0.25930  1.0000
  O   O136      1.0  0.97009  0.41710  0.99070  1.0000
  O   O137      1.0  0.25930  0.97009  0.83290  1.0000
  O   O138      1.0  0.83290  0.99070  0.27991  1.0000
  O   O139      1.0  0.41710  0.99070  0.97009  1.0000
  O   O140      1.0  0.83290  0.25930  0.97009  1.0000
  O   O141      1.0  0.41710  0.75930  0.77991  1.0000
  O   O142      1.0  0.27991  0.91710  0.75930  1.0000
  O   O143      1.0  0.25930  0.77991  0.91710  1.0000
  O   O144      1.0  0.99070  0.47009  0.91710  1.0000
  O   O145      1.0  0.27991  0.33290  0.49070  1.0000
  O   O146      1.0  0.99070  0.77991  0.33290  1.0000
  O   O147      1.0  0.97009  0.33290  0.75930  1.0000
  O   O148      1.0  0.97009  0.91710  0.49070  1.0000
  O   O149      1.0  0.25930  0.47009  0.33290  1.0000
  O   O150      1.0  0.83290  0.49070  0.77991  1.0000
  O   O151      1.0  0.41710  0.49070  0.47009  1.0000
  O   O152      1.0  0.83290  0.75930  0.47009  1.0000
  O   O153      1.0  0.91710  0.25930  0.77991  1.0000
  O   O154      1.0  0.77991  0.41710  0.75930  1.0000
  O   O155      1.0  0.75930  0.27991  0.91710  1.0000
  O   O156      1.0  0.49070  0.97009  0.91710  1.0000
  O   O157      1.0  0.77991  0.83290  0.49070  1.0000
  O   O158      1.0  0.49070  0.27991  0.33290  1.0000
  O   O159      1.0  0.47009  0.83290  0.75930  1.0000
  O   O160      1.0  0.47009  0.41710  0.49070  1.0000
  O   O161      1.0  0.75930  0.97009  0.33290  1.0000
  O   O162      1.0  0.33290  0.99070  0.77991  1.0000
  O   O163      1.0  0.91710  0.99070  0.47009  1.0000
  O   O164      1.0  0.33290  0.25930  0.47009  1.0000
  O   O165      1.0  0.91710  0.75930  0.27991  1.0000
  O   O166      1.0  0.77991  0.91710  0.25930  1.0000
  O   O167      1.0  0.75930  0.77991  0.41710  1.0000
  O   O168      1.0  0.49070  0.47009  0.41710  1.0000
  O   O169      1.0  0.77991  0.33290  0.99070  1.0000
  O   O170      1.0  0.49070  0.77991  0.83290  1.0000
  O   O171      1.0  0.47009  0.33290  0.25930  1.0000
  O   O172      1.0  0.47009  0.91710  0.99070  1.0000
  O   O173      1.0  0.75930  0.47009  0.83290  1.0000
  O   O174      1.0  0.33290  0.49070  0.27991  1.0000
  O   O175      1.0  0.91710  0.49070  0.97009  1.0000
  O   O176      1.0  0.33290  0.75930  0.97009  1.0000
  O   O177      1.0  0.58290  0.74070  0.72009  1.0000
  O   O178      1.0  0.72009  0.58290  0.74070  1.0000
  O   O179      1.0  0.74070  0.72009  0.58290  1.0000
  O   O180      1.0  0.00930  0.02991  0.58290  1.0000
  O   O181      1.0  0.72009  0.16710  0.00930  1.0000
  O   O182      1.0  0.00930  0.72009  0.16710  1.0000
  O   O183      1.0  0.02991  0.16710  0.74070  1.0000
  O   O184      1.0  0.02991  0.58290  0.00930  1.0000
  O   O185      1.0  0.74070  0.02991  0.16710  1.0000
  O   O186      1.0  0.16710  0.00930  0.72009  1.0000
  O   O187      1.0  0.58290  0.00930  0.02991  1.0000
  O   O188      1.0  0.16710  0.74070  0.02991  1.0000
  O   O189      1.0  0.58290  0.24070  0.22009  1.0000
  O   O190      1.0  0.72009  0.08290  0.24070  1.0000
  O   O191      1.0  0.74070  0.22009  0.08290  1.0000
  O   O192      1.0  0.00930  0.52991  0.08290  1.0000
  O   O193      1.0  0.72009  0.66710  0.50930  1.0000
  O   O194      1.0  0.00930  0.22009  0.66710  1.0000
  O   O195      1.0  0.02991  0.66710  0.24070  1.0000
  O   O196      1.0  0.02991  0.08290  0.50930  1.0000
  O   O197      1.0  0.74070  0.52991  0.66710  1.0000
  O   O198      1.0  0.16710  0.50930  0.22009  1.0000
  O   O199      1.0  0.58290  0.50930  0.52991  1.0000
  O   O200      1.0  0.16710  0.24070  0.52991  1.0000
  O   O201      1.0  0.08290  0.74070  0.22009  1.0000
  O   O202      1.0  0.22009  0.58290  0.24070  1.0000
  O   O203      1.0  0.24070  0.72009  0.08290  1.0000
  O   O204      1.0  0.50930  0.02991  0.08290  1.0000
  O   O205      1.0  0.22009  0.16710  0.50930  1.0000
  O   O206      1.0  0.50930  0.72009  0.66710  1.0000
  O   O207      1.0  0.52991  0.16710  0.24070  1.0000
  O   O208      1.0  0.52991  0.58290  0.50930  1.0000
  O   O209      1.0  0.24070  0.02991  0.66710  1.0000
  O   O210      1.0  0.66710  0.00930  0.22009  1.0000
  O   O211      1.0  0.08290  0.00930  0.52991  1.0000
  O   O212      1.0  0.66710  0.74070  0.52991  1.0000
  O   O213      1.0  0.08290  0.24070  0.72009  1.0000
  O   O214      1.0  0.22009  0.08290  0.74070  1.0000
  O   O215      1.0  0.24070  0.22009  0.58290  1.0000
  O   O216      1.0  0.50930  0.52991  0.58290  1.0000
  O   O217      1.0  0.22009  0.66710  0.00930  1.0000
  O   O218      1.0  0.50930  0.22009  0.16710  1.0000
  O   O219      1.0  0.52991  0.66710  0.74070  1.0000
  O   O220      1.0  0.52991  0.08290  0.00930  1.0000
  O   O221      1.0  0.24070  0.52991  0.16710  1.0000
  O   O222      1.0  0.66710  0.50930  0.72009  1.0000
  O   O223      1.0  0.08290  0.50930  0.02991  1.0000
  O   O224      1.0  0.66710  0.24070  0.02991  1.0000
  O   O225      1.0  0.41945  0.29733  0.24823  1.0000
  O   O226      1.0  0.24823  0.41945  0.29733  1.0000
  O   O227      1.0  0.29733  0.24823  0.41945  1.0000
  O   O228      1.0  0.95267  0.00177  0.41945  1.0000
  O   O229      1.0  0.24823  0.83055  0.95267  1.0000
  O   O230      1.0  0.95267  0.24823  0.83055  1.0000
  O   O231      1.0  0.00177  0.83055  0.29733  1.0000
  O   O232      1.0  0.00177  0.41945  0.95267  1.0000
  O   O233      1.0  0.29733  0.00177  0.83055  1.0000
  O   O234      1.0  0.83055  0.95267  0.24823  1.0000
  O   O235      1.0  0.41945  0.95267  0.00177  1.0000
  O   O236      1.0  0.83055  0.29733  0.00177  1.0000
  O   O237      1.0  0.41945  0.79733  0.74823  1.0000
  O   O238      1.0  0.24823  0.91945  0.79733  1.0000
  O   O239      1.0  0.29733  0.74823  0.91945  1.0000
  O   O240      1.0  0.95267  0.50177  0.91945  1.0000
  O   O241      1.0  0.24823  0.33055  0.45267  1.0000
  O   O242      1.0  0.95267  0.74823  0.33055  1.0000
  O   O243      1.0  0.00177  0.33055  0.79733  1.0000
  O   O244      1.0  0.00177  0.91945  0.45267  1.0000
  O   O245      1.0  0.29733  0.50177  0.33055  1.0000
  O   O246      1.0  0.83055  0.45267  0.74823  1.0000
  O   O247      1.0  0.41945  0.45267  0.50177  1.0000
  O   O248      1.0  0.83055  0.79733  0.50177  1.0000
  O   O249      1.0  0.91945  0.29733  0.74823  1.0000
  O   O250      1.0  0.74823  0.41945  0.79733  1.0000
  O   O251      1.0  0.79733  0.24823  0.91945  1.0000
  O   O252      1.0  0.45267  0.00177  0.91945  1.0000
  O   O253      1.0  0.74823  0.83055  0.45267  1.0000
  O   O254      1.0  0.45267  0.24823  0.33055  1.0000
  O   O255      1.0  0.50177  0.83055  0.79733  1.0000
  O   O256      1.0  0.50177  0.41945  0.45267  1.0000
  O   O257      1.0  0.79733  0.00177  0.33055  1.0000
  O   O258      1.0  0.33055  0.95267  0.74823  1.0000
  O   O259      1.0  0.91945  0.95267  0.50177  1.0000
  O   O260      1.0  0.33055  0.29733  0.50177  1.0000
  O   O261      1.0  0.91945  0.79733  0.24823  1.0000
  O   O262      1.0  0.74823  0.91945  0.29733  1.0000
  O   O263      1.0  0.79733  0.74823  0.41945  1.0000
  O   O264      1.0  0.45267  0.50177  0.41945  1.0000
  O   O265      1.0  0.74823  0.33055  0.95267  1.0000
  O   O266      1.0  0.45267  0.74823  0.83055  1.0000
  O   O267      1.0  0.50177  0.33055  0.29733  1.0000
  O   O268      1.0  0.50177  0.91945  0.95267  1.0000
  O   O269      1.0  0.79733  0.50177  0.83055  1.0000
  O   O270      1.0  0.33055  0.45267  0.24823  1.0000
  O   O271      1.0  0.91945  0.45267  0.00177  1.0000
  O   O272      1.0  0.33055  0.79733  0.00177  1.0000
  O   O273      1.0  0.58055  0.70267  0.75177  1.0000
  O   O274      1.0  0.75177  0.58055  0.70267  1.0000
  O   O275      1.0  0.70267  0.75177  0.58055  1.0000
  O   O276      1.0  0.04733  0.99823  0.58055  1.0000
  O   O277      1.0  0.75177  0.16945  0.04733  1.0000
  O   O278      1.0  0.04733  0.75177  0.16945  1.0000
  O   O279      1.0  0.99823  0.16945  0.70267  1.0000
  O   O280      1.0  0.99823  0.58055  0.04733  1.0000
  O   O281      1.0  0.70267  0.99823  0.16945  1.0000
  O   O282      1.0  0.16945  0.04733  0.75177  1.0000
  O   O283      1.0  0.58055  0.04733  0.99823  1.0000
  O   O284      1.0  0.16945  0.70267  0.99823  1.0000
  O   O285      1.0  0.58055  0.20267  0.25177  1.0000
  O   O286      1.0  0.75177  0.08055  0.20267  1.0000
  O   O287      1.0  0.70267  0.25177  0.08055  1.0000
  O   O288      1.0  0.04733  0.49823  0.08055  1.0000
  O   O289      1.0  0.75177  0.66945  0.54733  1.0000
  O   O290      1.0  0.04733  0.25177  0.66945  1.0000
  O   O291      1.0  0.99823  0.66945  0.20267  1.0000
  O   O292      1.0  0.99823  0.08055  0.54733  1.0000
  O   O293      1.0  0.70267  0.49823  0.66945  1.0000
  O   O294      1.0  0.16945  0.54733  0.25177  1.0000
  O   O295      1.0  0.58055  0.54733  0.49823  1.0000
  O   O296      1.0  0.16945  0.20267  0.49823  1.0000
  O   O297      1.0  0.08055  0.70267  0.25177  1.0000
  O   O298      1.0  0.25177  0.58055  0.20267  1.0000
  O   O299      1.0  0.20267  0.75177  0.08055  1.0000
  O   O300      1.0  0.54733  0.99823  0.08055  1.0000
  O   O301      1.0  0.25177  0.16945  0.54733  1.0000
  O   O302      1.0  0.54733  0.75177  0.66945  1.0000
  O   O303      1.0  0.49823  0.16945  0.20267  1.0000
  O   O304      1.0  0.49823  0.58055  0.54733  1.0000
  O   O305      1.0  0.20267  0.99823  0.66945  1.0000
  O   O306      1.0  0.66945  0.04733  0.25177  1.0000
  O   O307      1.0  0.08055  0.04733  0.49823  1.0000
  O   O308      1.0  0.66945  0.70267  0.49823  1.0000
  O   O309      1.0  0.08055  0.20267  0.75177  1.0000
  O   O310      1.0  0.25177  0.08055  0.70267  1.0000
  O   O311      1.0  0.20267  0.25177  0.58055  1.0000
  O   O312      1.0  0.54733  0.49823  0.58055  1.0000
  O   O313      1.0  0.25177  0.66945  0.04733  1.0000
  O   O314      1.0  0.54733  0.25177  0.16945  1.0000
  O   O315      1.0  0.49823  0.66945  0.70267  1.0000
  O   O316      1.0  0.49823  0.08055  0.04733  1.0000
  O   O317      1.0  0.20267  0.49823  0.16945  1.0000
  O   O318      1.0  0.66945  0.54733  0.75177  1.0000
  O   O319      1.0  0.08055  0.54733  0.99823  1.0000
  O   O320      1.0  0.66945  0.20267  0.99823  1.0000
  C   C1        1.0  0.40916  0.28450  0.26966  1.0000
  C   C2        1.0  0.26966  0.40916  0.28450  1.0000
  C   C3        1.0  0.28450  0.26966  0.40916  1.0000
  C   C4        1.0  0.96550  0.98034  0.40916  1.0000
  C   C5        1.0  0.26966  0.84084  0.96550  1.0000
  C   C6        1.0  0.96550  0.26966  0.84084  1.0000
  C   C7        1.0  0.98034  0.84084  0.28450  1.0000
  C   C8        1.0  0.98034  0.40916  0.96550  1.0000
  C   C9        1.0  0.28450  0.98034  0.84084  1.0000
  C   C10       1.0  0.84084  0.96550  0.26966  1.0000
  C   C11       1.0  0.40916  0.96550  0.98034  1.0000
  C   C12       1.0  0.84084  0.28450  0.98034  1.0000
  C   C13       1.0  0.40916  0.78450  0.76966  1.0000
  C   C14       1.0  0.26966  0.90916  0.78450  1.0000
  C   C15       1.0  0.28450  0.76966  0.90916  1.0000
  C   C16       1.0  0.96550  0.48034  0.90916  1.0000
  C   C17       1.0  0.26966  0.34084  0.46550  1.0000
  C   C18       1.0  0.96550  0.76966  0.34084  1.0000
  C   C19       1.0  0.98034  0.34084  0.78450  1.0000
  C   C20       1.0  0.98034  0.90916  0.46550  1.0000
  C   C21       1.0  0.28450  0.48034  0.34084  1.0000
  C   C22       1.0  0.84084  0.46550  0.76966  1.0000
  C   C23       1.0  0.40916  0.46550  0.48034  1.0000
  C   C24       1.0  0.84084  0.78450  0.48034  1.0000
  C   C25       1.0  0.90916  0.28450  0.76966  1.0000
  C   C26       1.0  0.76966  0.40916  0.78450  1.0000
  C   C27       1.0  0.78450  0.26966  0.90916  1.0000
  C   C28       1.0  0.46550  0.98034  0.90916  1.0000
  C   C29       1.0  0.76966  0.84084  0.46550  1.0000
  C   C30       1.0  0.46550  0.26966  0.34084  1.0000
  C   C31       1.0  0.48034  0.84084  0.78450  1.0000
  C   C32       1.0  0.48034  0.40916  0.46550  1.0000
  C   C33       1.0  0.78450  0.98034  0.34084  1.0000
  C   C34       1.0  0.34084  0.96550  0.76966  1.0000
  C   C35       1.0  0.90916  0.96550  0.48034  1.0000
  C   C36       1.0  0.34084  0.28450  0.48034  1.0000
  C   C37       1.0  0.90916  0.78450  0.26966  1.0000
  C   C38       1.0  0.76966  0.90916  0.28450  1.0000
  C   C39       1.0  0.78450  0.76966  0.40916  1.0000
  C   C40       1.0  0.46550  0.48034  0.40916  1.0000
  C   C41       1.0  0.76966  0.34084  0.96550  1.0000
  C   C42       1.0  0.46550  0.76966  0.84084  1.0000
  C   C43       1.0  0.48034  0.34084  0.28450  1.0000
  C   C44       1.0  0.48034  0.90916  0.96550  1.0000
  C   C45       1.0  0.78450  0.48034  0.84084  1.0000
  C   C46       1.0  0.34084  0.46550  0.26966  1.0000
  C   C47       1.0  0.90916  0.46550  0.98034  1.0000
  C   C48       1.0  0.34084  0.78450  0.98034  1.0000
  C   C49       1.0  0.59084  0.71550  0.73034  1.0000
  C   C50       1.0  0.73034  0.59084  0.71550  1.0000
  C   C51       1.0  0.71550  0.73034  0.59084  1.0000
  C   C52       1.0  0.03450  0.01966  0.59084  1.0000
  C   C53       1.0  0.73034  0.15916  0.03450  1.0000
  C   C54       1.0  0.03450  0.73034  0.15916  1.0000
  C   C55       1.0  0.01966  0.15916  0.71550  1.0000
  C   C56       1.0  0.01966  0.59084  0.03450  1.0000
  C   C57       1.0  0.71550  0.01966  0.15916  1.0000
  C   C58       1.0  0.15916  0.03450  0.73034  1.0000
  C   C59       1.0  0.59084  0.03450  0.01966  1.0000
  C   C60       1.0  0.15916  0.71550  0.01966  1.0000
  C   C61       1.0  0.59084  0.21550  0.23034  1.0000
  C   C62       1.0  0.73034  0.09084  0.21550  1.0000
  C   C63       1.0  0.71550  0.23034  0.09084  1.0000
  C   C64       1.0  0.03450  0.51966  0.09084  1.0000
  C   C65       1.0  0.73034  0.65916  0.53450  1.0000
  C   C66       1.0  0.03450  0.23034  0.65916  1.0000
  C   C67       1.0  0.01966  0.65916  0.21550  1.0000
  C   C68       1.0  0.01966  0.09084  0.53450  1.0000
  C   C69       1.0  0.71550  0.51966  0.65916  1.0000
  C   C70       1.0  0.15916  0.53450  0.23034  1.0000
  C   C71       1.0  0.59084  0.53450  0.51966  1.0000
  C   C72       1.0  0.15916  0.21550  0.51966  1.0000
  C   C73       1.0  0.09084  0.71550  0.23034  1.0000
  C   C74       1.0  0.23034  0.59084  0.21550  1.0000
  C   C75       1.0  0.21550  0.73034  0.09084  1.0000
  C   C76       1.0  0.53450  0.01966  0.09084  1.0000
  C   C77       1.0  0.23034  0.15916  0.53450  1.0000
  C   C78       1.0  0.53450  0.73034  0.65916  1.0000
  C   C79       1.0  0.51966  0.15916  0.21550  1.0000
  C   C80       1.0  0.51966  0.59084  0.53450  1.0000
  C   C81       1.0  0.21550  0.01966  0.65916  1.0000
  C   C82       1.0  0.65916  0.03450  0.23034  1.0000
  C   C83       1.0  0.09084  0.03450  0.51966  1.0000
  C   C84       1.0  0.65916  0.71550  0.51966  1.0000
  C   C85       1.0  0.09084  0.21550  0.73034  1.0000
  C   C86       1.0  0.23034  0.09084  0.71550  1.0000
  C   C87       1.0  0.21550  0.23034  0.59084  1.0000
  C   C88       1.0  0.53450  0.51966  0.59084  1.0000
  C   C89       1.0  0.23034  0.65916  0.03450  1.0000
  C   C90       1.0  0.53450  0.23034  0.15916  1.0000
  C   C91       1.0  0.51966  0.65916  0.71550  1.0000
  C   C92       1.0  0.51966  0.09084  0.03450  1.0000
  C   C93       1.0  0.21550  0.51966  0.15916  1.0000
  C   C94       1.0  0.65916  0.53450  0.73034  1.0000
  C   C95       1.0  0.09084  0.53450  0.01966  1.0000
  C   C96       1.0  0.65916  0.21550  0.01966  1.0000
  C   C97       1.0  0.38420  0.29690  0.28500  1.0000
  C   C98       1.0  0.28500  0.38420  0.29690  1.0000
  C   C99       1.0  0.29690  0.28500  0.38420  1.0000
  C   C100      1.0  0.95310  0.96500  0.38420  1.0000
  C   C101      1.0  0.28500  0.86580  0.95310  1.0000
  C   C102      1.0  0.95310  0.28500  0.86580  1.0000
  C   C103      1.0  0.96500  0.86580  0.29690  1.0000
  C   C104      1.0  0.96500  0.38420  0.95310  1.0000
  C   C105      1.0  0.29690  0.96500  0.86580  1.0000
  C   C106      1.0  0.86580  0.95310  0.28500  1.0000
  C   C107      1.0  0.38420  0.95310  0.96500  1.0000
  C   C108      1.0  0.86580  0.29690  0.96500  1.0000
  C   C109      1.0  0.38420  0.79690  0.78500  1.0000
  C   C110      1.0  0.28500  0.88420  0.79690  1.0000
  C   C111      1.0  0.29690  0.78500  0.88420  1.0000
  C   C112      1.0  0.95310  0.46500  0.88420  1.0000
  C   C113      1.0  0.28500  0.36580  0.45310  1.0000
  C   C114      1.0  0.95310  0.78500  0.36580  1.0000
  C   C115      1.0  0.96500  0.36580  0.79690  1.0000
  C   C116      1.0  0.96500  0.88420  0.45310  1.0000
  C   C117      1.0  0.29690  0.46500  0.36580  1.0000
  C   C118      1.0  0.86580  0.45310  0.78500  1.0000
  C   C119      1.0  0.38420  0.45310  0.46500  1.0000
  C   C120      1.0  0.86580  0.79690  0.46500  1.0000
  C   C121      1.0  0.88420  0.29690  0.78500  1.0000
  C   C122      1.0  0.78500  0.38420  0.79690  1.0000
  C   C123      1.0  0.79690  0.28500  0.88420  1.0000
  C   C124      1.0  0.45310  0.96500  0.88420  1.0000
  C   C125      1.0  0.78500  0.86580  0.45310  1.0000
  C   C126      1.0  0.45310  0.28500  0.36580  1.0000
  C   C127      1.0  0.46500  0.86580  0.79690  1.0000
  C   C128      1.0  0.46500  0.38420  0.45310  1.0000
  C   C129      1.0  0.79690  0.96500  0.36580  1.0000
  C   C130      1.0  0.36580  0.95310  0.78500  1.0000
  C   C131      1.0  0.88420  0.95310  0.46500  1.0000
  C   C132      1.0  0.36580  0.29690  0.46500  1.0000
  C   C133      1.0  0.88420  0.79690  0.28500  1.0000
  C   C134      1.0  0.78500  0.88420  0.29690  1.0000
  C   C135      1.0  0.79690  0.78500  0.38420  1.0000
  C   C136      1.0  0.45310  0.46500  0.38420  1.0000
  C   C137      1.0  0.78500  0.36580  0.95310  1.0000
  C   C138      1.0  0.45310  0.78500  0.86580  1.0000
  C   C139      1.0  0.46500  0.36580  0.29690  1.0000
  C   C140      1.0  0.46500  0.88420  0.95310  1.0000
  C   C141      1.0  0.79690  0.46500  0.86580  1.0000
  C   C142      1.0  0.36580  0.45310  0.28500  1.0000
  C   C143      1.0  0.88420  0.45310  0.96500  1.0000
  C   C144      1.0  0.36580  0.79690  0.96500  1.0000
  C   C145      1.0  0.61580  0.70310  0.71500  1.0000
  C   C146      1.0  0.71500  0.61580  0.70310  1.0000
  C   C147      1.0  0.70310  0.71500  0.61580  1.0000
  C   C148      1.0  0.04690  0.03500  0.61580  1.0000
  C   C149      1.0  0.71500  0.13420  0.04690  1.0000
  C   C150      1.0  0.04690  0.71500  0.13420  1.0000
  C   C151      1.0  0.03500  0.13420  0.70310  1.0000
  C   C152      1.0  0.03500  0.61580  0.04690  1.0000
  C   C153      1.0  0.70310  0.03500  0.13420  1.0000
  C   C154      1.0  0.13420  0.04690  0.71500  1.0000
  C   C155      1.0  0.61580  0.04690  0.03500  1.0000
  C   C156      1.0  0.13420  0.70310  0.03500  1.0000
  C   C157      1.0  0.61580  0.20310  0.21500  1.0000
  C   C158      1.0  0.71500  0.11580  0.20310  1.0000
  C   C159      1.0  0.70310  0.21500  0.11580  1.0000
  C   C160      1.0  0.04690  0.53500  0.11580  1.0000
  C   C161      1.0  0.71500  0.63420  0.54690  1.0000
  C   C162      1.0  0.04690  0.21500  0.63420  1.0000
  C   C163      1.0  0.03500  0.63420  0.20310  1.0000
  C   C164      1.0  0.03500  0.11580  0.54690  1.0000
  C   C165      1.0  0.70310  0.53500  0.63420  1.0000
  C   C166      1.0  0.13420  0.54690  0.21500  1.0000
  C   C167      1.0  0.61580  0.54690  0.53500  1.0000
  C   C168      1.0  0.13420  0.20310  0.53500  1.0000
  C   C169      1.0  0.11580  0.70310  0.21500  1.0000
  C   C170      1.0  0.21500  0.61580  0.20310  1.0000
  C   C171      1.0  0.20310  0.71500  0.11580  1.0000
  C   C172      1.0  0.54690  0.03500  0.11580  1.0000
  C   C173      1.0  0.21500  0.13420  0.54690  1.0000
  C   C174      1.0  0.54690  0.71500  0.63420  1.0000
  C   C175      1.0  0.53500  0.13420  0.20310  1.0000
  C   C176      1.0  0.53500  0.61580  0.54690  1.0000
  C   C177      1.0  0.20310  0.03500  0.63420  1.0000
  C   C178      1.0  0.63420  0.04690  0.21500  1.0000
  C   C179      1.0  0.11580  0.04690  0.53500  1.0000
  C   C180      1.0  0.63420  0.70310  0.53500  1.0000
  C   C181      1.0  0.11580  0.20310  0.71500  1.0000
  C   C182      1.0  0.21500  0.11580  0.70310  1.0000
  C   C183      1.0  0.20310  0.21500  0.61580  1.0000
  C   C184      1.0  0.54690  0.53500  0.61580  1.0000
  C   C185      1.0  0.21500  0.63420  0.04690  1.0000
  C   C186      1.0  0.54690  0.21500  0.13420  1.0000
  C   C187      1.0  0.53500  0.63420  0.70310  1.0000
  C   C188      1.0  0.53500  0.11580  0.04690  1.0000
  C   C189      1.0  0.20310  0.53500  0.13420  1.0000
  C   C190      1.0  0.63420  0.54690  0.71500  1.0000
  C   C191      1.0  0.11580  0.54690  0.03500  1.0000
  C   C192      1.0  0.63420  0.20310  0.03500  1.0000
  C   C193      1.0  0.37160  0.28710  0.31000  1.0000
  C   C194      1.0  0.31000  0.37160  0.28710  1.0000
  C   C195      1.0  0.28710  0.31000  0.37160  1.0000
  C   C196      1.0  0.96290  0.94000  0.37160  1.0000
  C   C197      1.0  0.31000  0.87840  0.96290  1.0000
  C   C198      1.0  0.96290  0.31000  0.87840  1.0000
  C   C199      1.0  0.94000  0.87840  0.28710  1.0000
  C   C200      1.0  0.94000  0.37160  0.96290  1.0000
  C   C201      1.0  0.28710  0.94000  0.87840  1.0000
  C   C202      1.0  0.87840  0.96290  0.31000  1.0000
  C   C203      1.0  0.37160  0.96290  0.94000  1.0000
  C   C204      1.0  0.87840  0.28710  0.94000  1.0000
  C   C205      1.0  0.37160  0.78710  0.81000  1.0000
  C   C206      1.0  0.31000  0.87160  0.78710  1.0000
  C   C207      1.0  0.28710  0.81000  0.87160  1.0000
  C   C208      1.0  0.96290  0.44000  0.87160  1.0000
  C   C209      1.0  0.31000  0.37840  0.46290  1.0000
  C   C210      1.0  0.96290  0.81000  0.37840  1.0000
  C   C211      1.0  0.94000  0.37840  0.78710  1.0000
  C   C212      1.0  0.94000  0.87160  0.46290  1.0000
  C   C213      1.0  0.28710  0.44000  0.37840  1.0000
  C   C214      1.0  0.87840  0.46290  0.81000  1.0000
  C   C215      1.0  0.37160  0.46290  0.44000  1.0000
  C   C216      1.0  0.87840  0.78710  0.44000  1.0000
  C   C217      1.0  0.87160  0.28710  0.81000  1.0000
  C   C218      1.0  0.81000  0.37160  0.78710  1.0000
  C   C219      1.0  0.78710  0.31000  0.87160  1.0000
  C   C220      1.0  0.46290  0.94000  0.87160  1.0000
  C   C221      1.0  0.81000  0.87840  0.46290  1.0000
  C   C222      1.0  0.46290  0.31000  0.37840  1.0000
  C   C223      1.0  0.44000  0.87840  0.78710  1.0000
  C   C224      1.0  0.44000  0.37160  0.46290  1.0000
  C   C225      1.0  0.78710  0.94000  0.37840  1.0000
  C   C226      1.0  0.37840  0.96290  0.81000  1.0000
  C   C227      1.0  0.87160  0.96290  0.44000  1.0000
  C   C228      1.0  0.37840  0.28710  0.44000  1.0000
  C   C229      1.0  0.87160  0.78710  0.31000  1.0000
  C   C230      1.0  0.81000  0.87160  0.28710  1.0000
  C   C231      1.0  0.78710  0.81000  0.37160  1.0000
  C   C232      1.0  0.46290  0.44000  0.37160  1.0000
  C   C233      1.0  0.81000  0.37840  0.96290  1.0000
  C   C234      1.0  0.46290  0.81000  0.87840  1.0000
  C   C235      1.0  0.44000  0.37840  0.28710  1.0000
  C   C236      1.0  0.44000  0.87160  0.96290  1.0000
  C   C237      1.0  0.78710  0.44000  0.87840  1.0000
  C   C238      1.0  0.37840  0.46290  0.31000  1.0000
  C   C239      1.0  0.87160  0.46290  0.94000  1.0000
  C   C240      1.0  0.37840  0.78710  0.94000  1.0000
  C   C241      1.0  0.62840  0.71290  0.69000  1.0000
  C   C242      1.0  0.69000  0.62840  0.71290  1.0000
  C   C243      1.0  0.71290  0.69000  0.62840  1.0000
  C   C244      1.0  0.03710  0.06000  0.62840  1.0000
  C   C245      1.0  0.69000  0.12160  0.03710  1.0000
  C   C246      1.0  0.03710  0.69000  0.12160  1.0000
  C   C247      1.0  0.06000  0.12160  0.71290  1.0000
  C   C248      1.0  0.06000  0.62840  0.03710  1.0000
  C   C249      1.0  0.71290  0.06000  0.12160  1.0000
  C   C250      1.0  0.12160  0.03710  0.69000  1.0000
  C   C251      1.0  0.62840  0.03710  0.06000  1.0000
  C   C252      1.0  0.12160  0.71290  0.06000  1.0000
  C   C253      1.0  0.62840  0.21290  0.19000  1.0000
  C   C254      1.0  0.69000  0.12840  0.21290  1.0000
  C   C255      1.0  0.71290  0.19000  0.12840  1.0000
  C   C256      1.0  0.03710  0.56000  0.12840  1.0000
  C   C257      1.0  0.69000  0.62160  0.53710  1.0000
  C   C258      1.0  0.03710  0.19000  0.62160  1.0000
  C   C259      1.0  0.06000  0.62160  0.21290  1.0000
  C   C260      1.0  0.06000  0.12840  0.53710  1.0000
  C   C261      1.0  0.71290  0.56000  0.62160  1.0000
  C   C262      1.0  0.12160  0.53710  0.19000  1.0000
  C   C263      1.0  0.62840  0.53710  0.56000  1.0000
  C   C264      1.0  0.12160  0.21290  0.56000  1.0000
  C   C265      1.0  0.12840  0.71290  0.19000  1.0000
  C   C266      1.0  0.19000  0.62840  0.21290  1.0000
  C   C267      1.0  0.21290  0.69000  0.12840  1.0000
  C   C268      1.0  0.53710  0.06000  0.12840  1.0000
  C   C269      1.0  0.19000  0.12160  0.53710  1.0000
  C   C270      1.0  0.53710  0.69000  0.62160  1.0000
  C   C271      1.0  0.56000  0.12160  0.21290  1.0000
  C   C272      1.0  0.56000  0.62840  0.53710  1.0000
  C   C273      1.0  0.21290  0.06000  0.62160  1.0000
  C   C274      1.0  0.62160  0.03710  0.19000  1.0000
  C   C275      1.0  0.12840  0.03710  0.56000  1.0000
  C   C276      1.0  0.62160  0.71290  0.56000  1.0000
  C   C277      1.0  0.12840  0.21290  0.69000  1.0000
  C   C278      1.0  0.19000  0.12840  0.71290  1.0000
  C   C279      1.0  0.21290  0.19000  0.62840  1.0000
  C   C280      1.0  0.53710  0.56000  0.62840  1.0000
  C   C281      1.0  0.19000  0.62160  0.03710  1.0000
  C   C282      1.0  0.53710  0.19000  0.12160  1.0000
  C   C283      1.0  0.56000  0.62160  0.71290  1.0000
  C   C284      1.0  0.56000  0.12840  0.03710  1.0000
  C   C285      1.0  0.21290  0.56000  0.12160  1.0000
  C   C286      1.0  0.62160  0.53710  0.69000  1.0000
  C   C287      1.0  0.12840  0.53710  0.06000  1.0000
  C   C288      1.0  0.62160  0.21290  0.06000  1.0000
  H   H129      1.0  0.37830  0.27050  0.32050  1.0000
  H   H130      1.0  0.32050  0.37830  0.27050  1.0000
  H   H131      1.0  0.27050  0.32050  0.37830  1.0000
  H   H132      1.0  0.97950  0.92950  0.37830  1.0000
  H   H133      1.0  0.32050  0.87170  0.97950  1.0000
  H   H134      1.0  0.97950  0.32050  0.87170  1.0000
  H   H135      1.0  0.92950  0.87170  0.27050  1.0000
  H   H136      1.0  0.92950  0.37830  0.97950  1.0000
  H   H137      1.0  0.27050  0.92950  0.87170  1.0000
  H   H138      1.0  0.87170  0.97950  0.32050  1.0000
  H   H139      1.0  0.37830  0.97950  0.92950  1.0000
  H   H140      1.0  0.87170  0.27050  0.92950  1.0000
  H   H141      1.0  0.37830  0.77050  0.82050  1.0000
  H   H142      1.0  0.32050  0.87830  0.77050  1.0000
  H   H143      1.0  0.27050  0.82050  0.87830  1.0000
  H   H144      1.0  0.97950  0.42950  0.87830  1.0000
  H   H145      1.0  0.32050  0.37170  0.47950  1.0000
  H   H146      1.0  0.97950  0.82050  0.37170  1.0000
  H   H147      1.0  0.92950  0.37170  0.77050  1.0000
  H   H148      1.0  0.92950  0.87830  0.47950  1.0000
  H   H149      1.0  0.27050  0.42950  0.37170  1.0000
  H   H150      1.0  0.87170  0.47950  0.82050  1.0000
  H   H151      1.0  0.37830  0.47950  0.42950  1.0000
  H   H152      1.0  0.87170  0.77050  0.42950  1.0000
  H   H153      1.0  0.87830  0.27050  0.82050  1.0000
  H   H154      1.0  0.82050  0.37830  0.77050  1.0000
  H   H155      1.0  0.77050  0.32050  0.87830  1.0000
  H   H156      1.0  0.47950  0.92950  0.87830  1.0000
  H   H157      1.0  0.82050  0.87170  0.47950  1.0000
  H   H158      1.0  0.47950  0.32050  0.37170  1.0000
  H   H159      1.0  0.42950  0.87170  0.77050  1.0000
  H   H160      1.0  0.42950  0.37830  0.47950  1.0000
  H   H161      1.0  0.77050  0.92950  0.37170  1.0000
  H   H162      1.0  0.37170  0.97950  0.82050  1.0000
  H   H163      1.0  0.87830  0.97950  0.42950  1.0000
  H   H164      1.0  0.37170  0.27050  0.42950  1.0000
  H   H165      1.0  0.87830  0.77050  0.32050  1.0000
  H   H166      1.0  0.82050  0.87830  0.27050  1.0000
  H   H167      1.0  0.77050  0.82050  0.37830  1.0000
  H   H168      1.0  0.47950  0.42950  0.37830  1.0000
  H   H169      1.0  0.82050  0.37170  0.97950  1.0000
  H   H170      1.0  0.47950  0.82050  0.87170  1.0000
  H   H171      1.0  0.42950  0.37170  0.27050  1.0000
  H   H172      1.0  0.42950  0.87830  0.97950  1.0000
  H   H173      1.0  0.77050  0.42950  0.87170  1.0000
  H   H174      1.0  0.37170  0.47950  0.32050  1.0000
  H   H175      1.0  0.87830  0.47950  0.92950  1.0000
  H   H176      1.0  0.37170  0.77050  0.92950  1.0000
  H   H177      1.0  0.62170  0.72950  0.67950  1.0000
  H   H178      1.0  0.67950  0.62170  0.72950  1.0000
  H   H179      1.0  0.72950  0.67950  0.62170  1.0000
  H   H180      1.0  0.02050  0.07050  0.62170  1.0000
  H   H181      1.0  0.67950  0.12830  0.02050  1.0000
  H   H182      1.0  0.02050  0.67950  0.12830  1.0000
  H   H183      1.0  0.07050  0.12830  0.72950  1.0000
  H   H184      1.0  0.07050  0.62170  0.02050  1.0000
  H   H185      1.0  0.72950  0.07050  0.12830  1.0000
  H   H186      1.0  0.12830  0.02050  0.67950  1.0000
  H   H187      1.0  0.62170  0.02050  0.07050  1.0000
  H   H188      1.0  0.12830  0.72950  0.07050  1.0000
  H   H189      1.0  0.62170  0.22950  0.17950  1.0000
  H   H190      1.0  0.67950  0.12170  0.22950  1.0000
  H   H191      1.0  0.72950  0.17950  0.12170  1.0000
  H   H192      1.0  0.02050  0.57050  0.12170  1.0000
  H   H193      1.0  0.67950  0.62830  0.52050  1.0000
  H   H194      1.0  0.02050  0.17950  0.62830  1.0000
  H   H195      1.0  0.07050  0.62830  0.22950  1.0000
  H   H196      1.0  0.07050  0.12170  0.52050  1.0000
  H   H197      1.0  0.72950  0.57050  0.62830  1.0000
  H   H198      1.0  0.12830  0.52050  0.17950  1.0000
  H   H199      1.0  0.62170  0.52050  0.57050  1.0000
  H   H200      1.0  0.12830  0.22950  0.57050  1.0000
  H   H201      1.0  0.12170  0.72950  0.17950  1.0000
  H   H202      1.0  0.17950  0.62170  0.22950  1.0000
  H   H203      1.0  0.22950  0.67950  0.12170  1.0000
  H   H204      1.0  0.52050  0.07050  0.12170  1.0000
  H   H205      1.0  0.17950  0.12830  0.52050  1.0000
  H   H206      1.0  0.52050  0.67950  0.62830  1.0000
  H   H207      1.0  0.57050  0.12830  0.22950  1.0000
  H   H208      1.0  0.57050  0.62170  0.52050  1.0000
  H   H209      1.0  0.22950  0.07050  0.62830  1.0000
  H   H210      1.0  0.62830  0.02050  0.17950  1.0000
  H   H211      1.0  0.12170  0.02050  0.57050  1.0000
  H   H212      1.0  0.62830  0.72950  0.57050  1.0000
  H   H213      1.0  0.12170  0.22950  0.67950  1.0000
  H   H214      1.0  0.17950  0.12170  0.72950  1.0000
  H   H215      1.0  0.22950  0.17950  0.62170  1.0000
  H   H216      1.0  0.52050  0.57050  0.62170  1.0000
  H   H217      1.0  0.17950  0.62830  0.02050  1.0000
  H   H218      1.0  0.52050  0.17950  0.12830  1.0000
  H   H219      1.0  0.57050  0.62830  0.72950  1.0000
  H   H220      1.0  0.57050  0.12170  0.02050  1.0000
  H   H221      1.0  0.22950  0.57050  0.12830  1.0000
  H   H222      1.0  0.62830  0.52050  0.67950  1.0000
  H   H223      1.0  0.12170  0.52050  0.07050  1.0000
  H   H224      1.0  0.62830  0.22950  0.07050  1.0000
  C   C289      1.0  0.34760  0.30430  0.31880  1.0000
  C   C290      1.0  0.31880  0.34760  0.30430  1.0000
  C   C291      1.0  0.30430  0.31880  0.34760  1.0000
  C   C292      1.0  0.94570  0.93120  0.34760  1.0000
  C   C293      1.0  0.31880  0.90240  0.94570  1.0000
  C   C294      1.0  0.94570  0.31880  0.90240  1.0000
  C   C295      1.0  0.93120  0.90240  0.30430  1.0000
  C   C296      1.0  0.93120  0.34760  0.94570  1.0000
  C   C297      1.0  0.30430  0.93120  0.90240  1.0000
  C   C298      1.0  0.90240  0.94570  0.31880  1.0000
  C   C299      1.0  0.34760  0.94570  0.93120  1.0000
  C   C300      1.0  0.90240  0.30430  0.93120  1.0000
  C   C301      1.0  0.34760  0.80430  0.81880  1.0000
  C   C302      1.0  0.31880  0.84760  0.80430  1.0000
  C   C303      1.0  0.30430  0.81880  0.84760  1.0000
  C   C304      1.0  0.94570  0.43120  0.84760  1.0000
  C   C305      1.0  0.31880  0.40240  0.44570  1.0000
  C   C306      1.0  0.94570  0.81880  0.40240  1.0000
  C   C307      1.0  0.93120  0.40240  0.80430  1.0000
  C   C308      1.0  0.93120  0.84760  0.44570  1.0000
  C   C309      1.0  0.30430  0.43120  0.40240  1.0000
  C   C310      1.0  0.90240  0.44570  0.81880  1.0000
  C   C311      1.0  0.34760  0.44570  0.43120  1.0000
  C   C312      1.0  0.90240  0.80430  0.43120  1.0000
  C   C313      1.0  0.84760  0.30430  0.81880  1.0000
  C   C314      1.0  0.81880  0.34760  0.80430  1.0000
  C   C315      1.0  0.80430  0.31880  0.84760  1.0000
  C   C316      1.0  0.44570  0.93120  0.84760  1.0000
  C   C317      1.0  0.81880  0.90240  0.44570  1.0000
  C   C318      1.0  0.44570  0.31880  0.40240  1.0000
  C   C319      1.0  0.43120  0.90240  0.80430  1.0000
  C   C320      1.0  0.43120  0.34760  0.44570  1.0000
  C   C321      1.0  0.80430  0.93120  0.40240  1.0000
  C   C322      1.0  0.40240  0.94570  0.81880  1.0000
  C   C323      1.0  0.84760  0.94570  0.43120  1.0000
  C   C324      1.0  0.40240  0.30430  0.43120  1.0000
  C   C325      1.0  0.84760  0.80430  0.31880  1.0000
  C   C326      1.0  0.81880  0.84760  0.30430  1.0000
  C   C327      1.0  0.80430  0.81880  0.34760  1.0000
  C   C328      1.0  0.44570  0.43120  0.34760  1.0000
  C   C329      1.0  0.81880  0.40240  0.94570  1.0000
  C   C330      1.0  0.44570  0.81880  0.90240  1.0000
  C   C331      1.0  0.43120  0.40240  0.30430  1.0000
  C   C332      1.0  0.43120  0.84760  0.94570  1.0000
  C   C333      1.0  0.80430  0.43120  0.90240  1.0000
  C   C334      1.0  0.40240  0.44570  0.31880  1.0000
  C   C335      1.0  0.84760  0.44570  0.93120  1.0000
  C   C336      1.0  0.40240  0.80430  0.93120  1.0000
  C   C337      1.0  0.65240  0.69570  0.68120  1.0000
  C   C338      1.0  0.68120  0.65240  0.69570  1.0000
  C   C339      1.0  0.69570  0.68120  0.65240  1.0000
  C   C340      1.0  0.05430  0.06880  0.65240  1.0000
  C   C341      1.0  0.68120  0.09760  0.05430  1.0000
  C   C342      1.0  0.05430  0.68120  0.09760  1.0000
  C   C343      1.0  0.06880  0.09760  0.69570  1.0000
  C   C344      1.0  0.06880  0.65240  0.05430  1.0000
  C   C345      1.0  0.69570  0.06880  0.09760  1.0000
  C   C346      1.0  0.09760  0.05430  0.68120  1.0000
  C   C347      1.0  0.65240  0.05430  0.06880  1.0000
  C   C348      1.0  0.09760  0.69570  0.06880  1.0000
  C   C349      1.0  0.65240  0.19570  0.18120  1.0000
  C   C350      1.0  0.68120  0.15240  0.19570  1.0000
  C   C351      1.0  0.69570  0.18120  0.15240  1.0000
  C   C352      1.0  0.05430  0.56880  0.15240  1.0000
  C   C353      1.0  0.68120  0.59760  0.55430  1.0000
  C   C354      1.0  0.05430  0.18120  0.59760  1.0000
  C   C355      1.0  0.06880  0.59760  0.19570  1.0000
  C   C356      1.0  0.06880  0.15240  0.55430  1.0000
  C   C357      1.0  0.69570  0.56880  0.59760  1.0000
  C   C358      1.0  0.09760  0.55430  0.18120  1.0000
  C   C359      1.0  0.65240  0.55430  0.56880  1.0000
  C   C360      1.0  0.09760  0.19570  0.56880  1.0000
  C   C361      1.0  0.15240  0.69570  0.18120  1.0000
  C   C362      1.0  0.18120  0.65240  0.19570  1.0000
  C   C363      1.0  0.19570  0.68120  0.15240  1.0000
  C   C364      1.0  0.55430  0.06880  0.15240  1.0000
  C   C365      1.0  0.18120  0.09760  0.55430  1.0000
  C   C366      1.0  0.55430  0.68120  0.59760  1.0000
  C   C367      1.0  0.56880  0.09760  0.19570  1.0000
  C   C368      1.0  0.56880  0.65240  0.55430  1.0000
  C   C369      1.0  0.19570  0.06880  0.59760  1.0000
  C   C370      1.0  0.59760  0.05430  0.18120  1.0000
  C   C371      1.0  0.15240  0.05430  0.56880  1.0000
  C   C372      1.0  0.59760  0.69570  0.56880  1.0000
  C   C373      1.0  0.15240  0.19570  0.68120  1.0000
  C   C374      1.0  0.18120  0.15240  0.69570  1.0000
  C   C375      1.0  0.19570  0.18120  0.65240  1.0000
  C   C376      1.0  0.55430  0.56880  0.65240  1.0000
  C   C377      1.0  0.18120  0.59760  0.05430  1.0000
  C   C378      1.0  0.55430  0.18120  0.09760  1.0000
  C   C379      1.0  0.56880  0.59760  0.69570  1.0000
  C   C380      1.0  0.56880  0.15240  0.05430  1.0000
  C   C381      1.0  0.19570  0.56880  0.09760  1.0000
  C   C382      1.0  0.59760  0.55430  0.68120  1.0000
  C   C383      1.0  0.15240  0.55430  0.06880  1.0000
  C   C384      1.0  0.59760  0.19570  0.06880  1.0000
  C   C385      1.0  0.34220  0.32780  0.30030  1.0000
  C   C386      1.0  0.30030  0.34220  0.32780  1.0000
  C   C387      1.0  0.32780  0.30030  0.34220  1.0000
  C   C388      1.0  0.92220  0.94970  0.34220  1.0000
  C   C389      1.0  0.30030  0.90780  0.92220  1.0000
  C   C390      1.0  0.92220  0.30030  0.90780  1.0000
  C   C391      1.0  0.94970  0.90780  0.32780  1.0000
  C   C392      1.0  0.94970  0.34220  0.92220  1.0000
  C   C393      1.0  0.32780  0.94970  0.90780  1.0000
  C   C394      1.0  0.90780  0.92220  0.30030  1.0000
  C   C395      1.0  0.34220  0.92220  0.94970  1.0000
  C   C396      1.0  0.90780  0.32780  0.94970  1.0000
  C   C397      1.0  0.34220  0.82780  0.80030  1.0000
  C   C398      1.0  0.30030  0.84220  0.82780  1.0000
  C   C399      1.0  0.32780  0.80030  0.84220  1.0000
  C   C400      1.0  0.92220  0.44970  0.84220  1.0000
  C   C401      1.0  0.30030  0.40780  0.42220  1.0000
  C   C402      1.0  0.92220  0.80030  0.40780  1.0000
  C   C403      1.0  0.94970  0.40780  0.82780  1.0000
  C   C404      1.0  0.94970  0.84220  0.42220  1.0000
  C   C405      1.0  0.32780  0.44970  0.40780  1.0000
  C   C406      1.0  0.90780  0.42220  0.80030  1.0000
  C   C407      1.0  0.34220  0.42220  0.44970  1.0000
  C   C408      1.0  0.90780  0.82780  0.44970  1.0000
  C   C409      1.0  0.84220  0.32780  0.80030  1.0000
  C   C410      1.0  0.80030  0.34220  0.82780  1.0000
  C   C411      1.0  0.82780  0.30030  0.84220  1.0000
  C   C412      1.0  0.42220  0.94970  0.84220  1.0000
  C   C413      1.0  0.80030  0.90780  0.42220  1.0000
  C   C414      1.0  0.42220  0.30030  0.40780  1.0000
  C   C415      1.0  0.44970  0.90780  0.82780  1.0000
  C   C416      1.0  0.44970  0.34220  0.42220  1.0000
  C   C417      1.0  0.82780  0.94970  0.40780  1.0000
  C   C418      1.0  0.40780  0.92220  0.80030  1.0000
  C   C419      1.0  0.84220  0.92220  0.44970  1.0000
  C   C420      1.0  0.40780  0.32780  0.44970  1.0000
  C   C421      1.0  0.84220  0.82780  0.30030  1.0000
  C   C422      1.0  0.80030  0.84220  0.32780  1.0000
  C   C423      1.0  0.82780  0.80030  0.34220  1.0000
  C   C424      1.0  0.42220  0.44970  0.34220  1.0000
  C   C425      1.0  0.80030  0.40780  0.92220  1.0000
  C   C426      1.0  0.42220  0.80030  0.90780  1.0000
  C   C427      1.0  0.44970  0.40780  0.32780  1.0000
  C   C428      1.0  0.44970  0.84220  0.92220  1.0000
  C   C429      1.0  0.82780  0.44970  0.90780  1.0000
  C   C430      1.0  0.40780  0.42220  0.30030  1.0000
  C   C431      1.0  0.84220  0.42220  0.94970  1.0000
  C   C432      1.0  0.40780  0.82780  0.94970  1.0000
  C   C433      1.0  0.65780  0.67220  0.69970  1.0000
  C   C434      1.0  0.69970  0.65780  0.67220  1.0000
  C   C435      1.0  0.67220  0.69970  0.65780  1.0000
  C   C436      1.0  0.07780  0.05030  0.65780  1.0000
  C   C437      1.0  0.69970  0.09220  0.07780  1.0000
  C   C438      1.0  0.07780  0.69970  0.09220  1.0000
  C   C439      1.0  0.05030  0.09220  0.67220  1.0000
  C   C440      1.0  0.05030  0.65780  0.07780  1.0000
  C   C441      1.0  0.67220  0.05030  0.09220  1.0000
  C   C442      1.0  0.09220  0.07780  0.69970  1.0000
  C   C443      1.0  0.65780  0.07780  0.05030  1.0000
  C   C444      1.0  0.09220  0.67220  0.05030  1.0000
  C   C445      1.0  0.65780  0.17220  0.19970  1.0000
  C   C446      1.0  0.69970  0.15780  0.17220  1.0000
  C   C447      1.0  0.67220  0.19970  0.15780  1.0000
  C   C448      1.0  0.07780  0.55030  0.15780  1.0000
  C   C449      1.0  0.69970  0.59220  0.57780  1.0000
  C   C450      1.0  0.07780  0.19970  0.59220  1.0000
  C   C451      1.0  0.05030  0.59220  0.17220  1.0000
  C   C452      1.0  0.05030  0.15780  0.57780  1.0000
  C   C453      1.0  0.67220  0.55030  0.59220  1.0000
  C   C454      1.0  0.09220  0.57780  0.19970  1.0000
  C   C455      1.0  0.65780  0.57780  0.55030  1.0000
  C   C456      1.0  0.09220  0.17220  0.55030  1.0000
  C   C457      1.0  0.15780  0.67220  0.19970  1.0000
  C   C458      1.0  0.19970  0.65780  0.17220  1.0000
  C   C459      1.0  0.17220  0.69970  0.15780  1.0000
  C   C460      1.0  0.57780  0.05030  0.15780  1.0000
  C   C461      1.0  0.19970  0.09220  0.57780  1.0000
  C   C462      1.0  0.57780  0.69970  0.59220  1.0000
  C   C463      1.0  0.55030  0.09220  0.17220  1.0000
  C   C464      1.0  0.55030  0.65780  0.57780  1.0000
  C   C465      1.0  0.17220  0.05030  0.59220  1.0000
  C   C466      1.0  0.59220  0.07780  0.19970  1.0000
  C   C467      1.0  0.15780  0.07780  0.55030  1.0000
  C   C468      1.0  0.59220  0.67220  0.55030  1.0000
  C   C469      1.0  0.15780  0.17220  0.69970  1.0000
  C   C470      1.0  0.19970  0.15780  0.67220  1.0000
  C   C471      1.0  0.17220  0.19970  0.65780  1.0000
  C   C472      1.0  0.57780  0.55030  0.65780  1.0000
  C   C473      1.0  0.19970  0.59220  0.07780  1.0000
  C   C474      1.0  0.57780  0.19970  0.09220  1.0000
  C   C475      1.0  0.55030  0.59220  0.67220  1.0000
  C   C476      1.0  0.55030  0.15780  0.07780  1.0000
  C   C477      1.0  0.17220  0.55030  0.09220  1.0000
  C   C478      1.0  0.59220  0.57780  0.69970  1.0000
  C   C479      1.0  0.15780  0.57780  0.05030  1.0000
  C   C480      1.0  0.59220  0.17220  0.05030  1.0000
  S   S1        1.0  0.36774  0.32891  0.27180  1.0000
  S   S2        1.0  0.27180  0.36774  0.32891  1.0000
  S   S3        1.0  0.32891  0.27180  0.36774  1.0000
  S   S4        1.0  0.92109  0.97820  0.36774  1.0000
  S   S5        1.0  0.27180  0.88226  0.92109  1.0000
  S   S6        1.0  0.92109  0.27180  0.88226  1.0000
  S   S7        1.0  0.97820  0.88226  0.32891  1.0000
  S   S8        1.0  0.97820  0.36774  0.92109  1.0000
  S   S9        1.0  0.32891  0.97820  0.88226  1.0000
  S   S10       1.0  0.88226  0.92109  0.27180  1.0000
  S   S11       1.0  0.36774  0.92109  0.97820  1.0000
  S   S12       1.0  0.88226  0.32891  0.97820  1.0000
  S   S13       1.0  0.36774  0.82891  0.77180  1.0000
  S   S14       1.0  0.27180  0.86774  0.82891  1.0000
  S   S15       1.0  0.32891  0.77180  0.86774  1.0000
  S   S16       1.0  0.92109  0.47820  0.86774  1.0000
  S   S17       1.0  0.27180  0.38226  0.42109  1.0000
  S   S18       1.0  0.92109  0.77180  0.38226  1.0000
  S   S19       1.0  0.97820  0.38226  0.82891  1.0000
  S   S20       1.0  0.97820  0.86774  0.42109  1.0000
  S   S21       1.0  0.32891  0.47820  0.38226  1.0000
  S   S22       1.0  0.88226  0.42109  0.77180  1.0000
  S   S23       1.0  0.36774  0.42109  0.47820  1.0000
  S   S24       1.0  0.88226  0.82891  0.47820  1.0000
  S   S25       1.0  0.86774  0.32891  0.77180  1.0000
  S   S26       1.0  0.77180  0.36774  0.82891  1.0000
  S   S27       1.0  0.82891  0.27180  0.86774  1.0000
  S   S28       1.0  0.42109  0.97820  0.86774  1.0000
  S   S29       1.0  0.77180  0.88226  0.42109  1.0000
  S   S30       1.0  0.42109  0.27180  0.38226  1.0000
  S   S31       1.0  0.47820  0.88226  0.82891  1.0000
  S   S32       1.0  0.47820  0.36774  0.42109  1.0000
  S   S33       1.0  0.82891  0.97820  0.38226  1.0000
  S   S34       1.0  0.38226  0.92109  0.77180  1.0000
  S   S35       1.0  0.86774  0.92109  0.47820  1.0000
  S   S36       1.0  0.38226  0.32891  0.47820  1.0000
  S   S37       1.0  0.86774  0.82891  0.27180  1.0000
  S   S38       1.0  0.77180  0.86774  0.32891  1.0000
  S   S39       1.0  0.82891  0.77180  0.36774  1.0000
  S   S40       1.0  0.42109  0.47820  0.36774  1.0000
  S   S41       1.0  0.77180  0.38226  0.92109  1.0000
  S   S42       1.0  0.42109  0.77180  0.88226  1.0000
  S   S43       1.0  0.47820  0.38226  0.32891  1.0000
  S   S44       1.0  0.47820  0.86774  0.92109  1.0000
  S   S45       1.0  0.82891  0.47820  0.88226  1.0000
  S   S46       1.0  0.38226  0.42109  0.27180  1.0000
  S   S47       1.0  0.86774  0.42109  0.97820  1.0000
  S   S48       1.0  0.38226  0.82891  0.97820  1.0000
  S   S49       1.0  0.63226  0.67109  0.72820  1.0000
  S   S50       1.0  0.72820  0.63226  0.67109  1.0000
  S   S51       1.0  0.67109  0.72820  0.63226  1.0000
  S   S52       1.0  0.07891  0.02180  0.63226  1.0000
  S   S53       1.0  0.72820  0.11774  0.07891  1.0000
  S   S54       1.0  0.07891  0.72820  0.11774  1.0000
  S   S55       1.0  0.02180  0.11774  0.67109  1.0000
  S   S56       1.0  0.02180  0.63226  0.07891  1.0000
  S   S57       1.0  0.67109  0.02180  0.11774  1.0000
  S   S58       1.0  0.11774  0.07891  0.72820  1.0000
  S   S59       1.0  0.63226  0.07891  0.02180  1.0000
  S   S60       1.0  0.11774  0.67109  0.02180  1.0000
  S   S61       1.0  0.63226  0.17109  0.22820  1.0000
  S   S62       1.0  0.72820  0.13226  0.17109  1.0000
  S   S63       1.0  0.67109  0.22820  0.13226  1.0000
  S   S64       1.0  0.07891  0.52180  0.13226  1.0000
  S   S65       1.0  0.72820  0.61774  0.57891  1.0000
  S   S66       1.0  0.07891  0.22820  0.61774  1.0000
  S   S67       1.0  0.02180  0.61774  0.17109  1.0000
  S   S68       1.0  0.02180  0.13226  0.57891  1.0000
  S   S69       1.0  0.67109  0.52180  0.61774  1.0000
  S   S70       1.0  0.11774  0.57891  0.22820  1.0000
  S   S71       1.0  0.63226  0.57891  0.52180  1.0000
  S   S72       1.0  0.11774  0.17109  0.52180  1.0000
  S   S73       1.0  0.13226  0.67109  0.22820  1.0000
  S   S74       1.0  0.22820  0.63226  0.17109  1.0000
  S   S75       1.0  0.17109  0.72820  0.13226  1.0000
  S   S76       1.0  0.57891  0.02180  0.13226  1.0000
  S   S77       1.0  0.22820  0.11774  0.57891  1.0000
  S   S78       1.0  0.57891  0.72820  0.61774  1.0000
  S   S79       1.0  0.52180  0.11774  0.17109  1.0000
  S   S80       1.0  0.52180  0.63226  0.57891  1.0000
  S   S81       1.0  0.17109  0.02180  0.61774  1.0000
  S   S82       1.0  0.61774  0.07891  0.22820  1.0000
  S   S83       1.0  0.13226  0.07891  0.52180  1.0000
  S   S84       1.0  0.61774  0.67109  0.52180  1.0000
  S   S85       1.0  0.13226  0.17109  0.72820  1.0000
  S   S86       1.0  0.22820  0.13226  0.67109  1.0000
  S   S87       1.0  0.17109  0.22820  0.63226  1.0000
  S   S88       1.0  0.57891  0.52180  0.63226  1.0000
  S   S89       1.0  0.22820  0.61774  0.07891  1.0000
  S   S90       1.0  0.57891  0.22820  0.11774  1.0000
  S   S91       1.0  0.52180  0.61774  0.67109  1.0000
  S   S92       1.0  0.52180  0.13226  0.07891  1.0000
  S   S93       1.0  0.17109  0.52180  0.11774  1.0000
  S   S94       1.0  0.61774  0.57891  0.72820  1.0000
  S   S95       1.0  0.13226  0.57891  0.02180  1.0000
  S   S96       1.0  0.61774  0.17109  0.02180  1.0000
  O   O321      1.0  0.42284  0.19752  0.25874  1.0000
  O   O322      1.0  0.25874  0.42284  0.19752  1.0000
  O   O323      1.0  0.19752  0.25874  0.42284  1.0000
  O   O324      1.0  0.05248  0.99126  0.42284  1.0000
  O   O325      1.0  0.25874  0.82716  0.05248  1.0000
  O   O326      1.0  0.05248  0.25874  0.82716  1.0000
  O   O327      1.0  0.99126  0.82716  0.19752  1.0000
  O   O328      1.0  0.99126  0.42284  0.05248  1.0000
  O   O329      1.0  0.19752  0.99126  0.82716  1.0000
  O   O330      1.0  0.82716  0.05248  0.25874  1.0000
  O   O331      1.0  0.42284  0.05248  0.99126  1.0000
  O   O332      1.0  0.82716  0.19752  0.99126  1.0000
  O   O333      1.0  0.42284  0.69752  0.75874  1.0000
  O   O334      1.0  0.25874  0.92284  0.69752  1.0000
  O   O335      1.0  0.19752  0.75874  0.92284  1.0000
  O   O336      1.0  0.05248  0.49126  0.92284  1.0000
  O   O337      1.0  0.25874  0.32716  0.55248  1.0000
  O   O338      1.0  0.05248  0.75874  0.32716  1.0000
  O   O339      1.0  0.99126  0.32716  0.69752  1.0000
  O   O340      1.0  0.99126  0.92284  0.55248  1.0000
  O   O341      1.0  0.19752  0.49126  0.32716  1.0000
  O   O342      1.0  0.82716  0.55248  0.75874  1.0000
  O   O343      1.0  0.42284  0.55248  0.49126  1.0000
  O   O344      1.0  0.82716  0.69752  0.49126  1.0000
  O   O345      1.0  0.92284  0.19752  0.75874  1.0000
  O   O346      1.0  0.75874  0.42284  0.69752  1.0000
  O   O347      1.0  0.69752  0.25874  0.92284  1.0000
  O   O348      1.0  0.55248  0.99126  0.92284  1.0000
  O   O349      1.0  0.75874  0.82716  0.55248  1.0000
  O   O350      1.0  0.55248  0.25874  0.32716  1.0000
  O   O351      1.0  0.49126  0.82716  0.69752  1.0000
  O   O352      1.0  0.49126  0.42284  0.55248  1.0000
  O   O353      1.0  0.69752  0.99126  0.32716  1.0000
  O   O354      1.0  0.32716  0.05248  0.75874  1.0000
  O   O355      1.0  0.92284  0.05248  0.49126  1.0000
  O   O356      1.0  0.32716  0.19752  0.49126  1.0000
  O   O357      1.0  0.92284  0.69752  0.25874  1.0000
  O   O358      1.0  0.75874  0.92284  0.19752  1.0000
  O   O359      1.0  0.69752  0.75874  0.42284  1.0000
  O   O360      1.0  0.55248  0.49126  0.42284  1.0000
  O   O361      1.0  0.75874  0.32716  0.05248  1.0000
  O   O362      1.0  0.55248  0.75874  0.82716  1.0000
  O   O363      1.0  0.49126  0.32716  0.19752  1.0000
  O   O364      1.0  0.49126  0.92284  0.05248  1.0000
  O   O365      1.0  0.69752  0.49126  0.82716  1.0000
  O   O366      1.0  0.32716  0.55248  0.25874  1.0000
  O   O367      1.0  0.92284  0.55248  0.99126  1.0000
  O   O368      1.0  0.32716  0.69752  0.99126  1.0000
  O   O369      1.0  0.57716  0.80248  0.74126  1.0000
  O   O370      1.0  0.74126  0.57716  0.80248  1.0000
  O   O371      1.0  0.80248  0.74126  0.57716  1.0000
  O   O372      1.0  0.94752  0.00874  0.57716  1.0000
  O   O373      1.0  0.74126  0.17284  0.94752  1.0000
  O   O374      1.0  0.94752  0.74126  0.17284  1.0000
  O   O375      1.0  0.00874  0.17284  0.80248  1.0000
  O   O376      1.0  0.00874  0.57716  0.94752  1.0000
  O   O377      1.0  0.80248  0.00874  0.17284  1.0000
  O   O378      1.0  0.17284  0.94752  0.74126  1.0000
  O   O379      1.0  0.57716  0.94752  0.00874  1.0000
  O   O380      1.0  0.17284  0.80248  0.00874  1.0000
  O   O381      1.0  0.57716  0.30248  0.24126  1.0000
  O   O382      1.0  0.74126  0.07716  0.30248  1.0000
  O   O383      1.0  0.80248  0.24126  0.07716  1.0000
  O   O384      1.0  0.94752  0.50874  0.07716  1.0000
  O   O385      1.0  0.74126  0.67284  0.44752  1.0000
  O   O386      1.0  0.94752  0.24126  0.67284  1.0000
  O   O387      1.0  0.00874  0.67284  0.30248  1.0000
  O   O388      1.0  0.00874  0.07716  0.44752  1.0000
  O   O389      1.0  0.80248  0.50874  0.67284  1.0000
  O   O390      1.0  0.17284  0.44752  0.24126  1.0000
  O   O391      1.0  0.57716  0.44752  0.50874  1.0000
  O   O392      1.0  0.17284  0.30248  0.50874  1.0000
  O   O393      1.0  0.07716  0.80248  0.24126  1.0000
  O   O394      1.0  0.24126  0.57716  0.30248  1.0000
  O   O395      1.0  0.30248  0.74126  0.07716  1.0000
  O   O396      1.0  0.44752  0.00874  0.07716  1.0000
  O   O397      1.0  0.24126  0.17284  0.44752  1.0000
  O   O398      1.0  0.44752  0.74126  0.67284  1.0000
  O   O399      1.0  0.50874  0.17284  0.30248  1.0000
  O   O400      1.0  0.50874  0.57716  0.44752  1.0000
  O   O401      1.0  0.30248  0.00874  0.67284  1.0000
  O   O402      1.0  0.67284  0.94752  0.24126  1.0000
  O   O403      1.0  0.07716  0.94752  0.50874  1.0000
  O   O404      1.0  0.67284  0.80248  0.50874  1.0000
  O   O405      1.0  0.07716  0.30248  0.74126  1.0000
  O   O406      1.0  0.24126  0.07716  0.80248  1.0000
  O   O407      1.0  0.30248  0.24126  0.57716  1.0000
  O   O408      1.0  0.44752  0.50874  0.57716  1.0000
  O   O409      1.0  0.24126  0.67284  0.94752  1.0000
  O   O410      1.0  0.44752  0.24126  0.17284  1.0000
  O   O411      1.0  0.50874  0.67284  0.80248  1.0000
  O   O412      1.0  0.50874  0.07716  0.94752  1.0000
  O   O413      1.0  0.30248  0.50874  0.17284  1.0000
  O   O414      1.0  0.67284  0.44752  0.74126  1.0000
  O   O415      1.0  0.07716  0.44752  0.00874  1.0000
  O   O416      1.0  0.67284  0.30248  0.00874  1.0000
  O   O417      1.0  0.43565  0.18739  0.21150  1.0000
  O   O418      1.0  0.21150  0.43565  0.18739  1.0000
  O   O419      1.0  0.18739  0.21150  0.43565  1.0000
  O   O420      1.0  0.06261  0.03850  0.43565  1.0000
  O   O421      1.0  0.21150  0.81435  0.06261  1.0000
  O   O422      1.0  0.06261  0.21150  0.81435  1.0000
  O   O423      1.0  0.03850  0.81435  0.18739  1.0000
  O   O424      1.0  0.03850  0.43565  0.06261  1.0000
  O   O425      1.0  0.18739  0.03850  0.81435  1.0000
  O   O426      1.0  0.81435  0.06261  0.21150  1.0000
  O   O427      1.0  0.43565  0.06261  0.03850  1.0000
  O   O428      1.0  0.81435  0.18739  0.03850  1.0000
  O   O429      1.0  0.43565  0.68739  0.71150  1.0000
  O   O430      1.0  0.21150  0.93565  0.68739  1.0000
  O   O431      1.0  0.18739  0.71150  0.93565  1.0000
  O   O432      1.0  0.06261  0.53850  0.93565  1.0000
  O   O433      1.0  0.21150  0.31435  0.56261  1.0000
  O   O434      1.0  0.06261  0.71150  0.31435  1.0000
  O   O435      1.0  0.03850  0.31435  0.68739  1.0000
  O   O436      1.0  0.03850  0.93565  0.56261  1.0000
  O   O437      1.0  0.18739  0.53850  0.31435  1.0000
  O   O438      1.0  0.81435  0.56261  0.71150  1.0000
  O   O439      1.0  0.43565  0.56261  0.53850  1.0000
  O   O440      1.0  0.81435  0.68739  0.53850  1.0000
  O   O441      1.0  0.93565  0.18739  0.71150  1.0000
  O   O442      1.0  0.71150  0.43565  0.68739  1.0000
  O   O443      1.0  0.68739  0.21150  0.93565  1.0000
  O   O444      1.0  0.56261  0.03850  0.93565  1.0000
  O   O445      1.0  0.71150  0.81435  0.56261  1.0000
  O   O446      1.0  0.56261  0.21150  0.31435  1.0000
  O   O447      1.0  0.53850  0.81435  0.68739  1.0000
  O   O448      1.0  0.53850  0.43565  0.56261  1.0000
  O   O449      1.0  0.68739  0.03850  0.31435  1.0000
  O   O450      1.0  0.31435  0.06261  0.71150  1.0000
  O   O451      1.0  0.93565  0.06261  0.53850  1.0000
  O   O452      1.0  0.31435  0.18739  0.53850  1.0000
  O   O453      1.0  0.93565  0.68739  0.21150  1.0000
  O   O454      1.0  0.71150  0.93565  0.18739  1.0000
  O   O455      1.0  0.68739  0.71150  0.43565  1.0000
  O   O456      1.0  0.56261  0.53850  0.43565  1.0000
  O   O457      1.0  0.71150  0.31435  0.06261  1.0000
  O   O458      1.0  0.56261  0.71150  0.81435  1.0000
  O   O459      1.0  0.53850  0.31435  0.18739  1.0000
  O   O460      1.0  0.53850  0.93565  0.06261  1.0000
  O   O461      1.0  0.68739  0.53850  0.81435  1.0000
  O   O462      1.0  0.31435  0.56261  0.21150  1.0000
  O   O463      1.0  0.93565  0.56261  0.03850  1.0000
  O   O464      1.0  0.31435  0.68739  0.03850  1.0000
  O   O465      1.0  0.56435  0.81261  0.78850  1.0000
  O   O466      1.0  0.78850  0.56435  0.81261  1.0000
  O   O467      1.0  0.81261  0.78850  0.56435  1.0000
  O   O468      1.0  0.93739  0.96150  0.56435  1.0000
  O   O469      1.0  0.78850  0.18565  0.93739  1.0000
  O   O470      1.0  0.93739  0.78850  0.18565  1.0000
  O   O471      1.0  0.96150  0.18565  0.81261  1.0000
  O   O472      1.0  0.96150  0.56435  0.93739  1.0000
  O   O473      1.0  0.81261  0.96150  0.18565  1.0000
  O   O474      1.0  0.18565  0.93739  0.78850  1.0000
  O   O475      1.0  0.56435  0.93739  0.96150  1.0000
  O   O476      1.0  0.18565  0.81261  0.96150  1.0000
  O   O477      1.0  0.56435  0.31261  0.28850  1.0000
  O   O478      1.0  0.78850  0.06435  0.31261  1.0000
  O   O479      1.0  0.81261  0.28850  0.06435  1.0000
  O   O480      1.0  0.93739  0.46150  0.06435  1.0000
  O   O481      1.0  0.78850  0.68565  0.43739  1.0000
  O   O482      1.0  0.93739  0.28850  0.68565  1.0000
  O   O483      1.0  0.96150  0.68565  0.31261  1.0000
  O   O484      1.0  0.96150  0.06435  0.43739  1.0000
  O   O485      1.0  0.81261  0.46150  0.68565  1.0000
  O   O486      1.0  0.18565  0.43739  0.28850  1.0000
  O   O487      1.0  0.56435  0.43739  0.46150  1.0000
  O   O488      1.0  0.18565  0.31261  0.46150  1.0000
  O   O489      1.0  0.06435  0.81261  0.28850  1.0000
  O   O490      1.0  0.28850  0.56435  0.31261  1.0000
  O   O491      1.0  0.31261  0.78850  0.06435  1.0000
  O   O492      1.0  0.43739  0.96150  0.06435  1.0000
  O   O493      1.0  0.28850  0.18565  0.43739  1.0000
  O   O494      1.0  0.43739  0.78850  0.68565  1.0000
  O   O495      1.0  0.46150  0.18565  0.31261  1.0000
  O   O496      1.0  0.46150  0.56435  0.43739  1.0000
  O   O497      1.0  0.31261  0.96150  0.68565  1.0000
  O   O498      1.0  0.68565  0.93739  0.28850  1.0000
  O   O499      1.0  0.06435  0.93739  0.46150  1.0000
  O   O500      1.0  0.68565  0.81261  0.46150  1.0000
  O   O501      1.0  0.06435  0.31261  0.78850  1.0000
  O   O502      1.0  0.28850  0.06435  0.81261  1.0000
  O   O503      1.0  0.31261  0.28850  0.56435  1.0000
  O   O504      1.0  0.43739  0.46150  0.56435  1.0000
  O   O505      1.0  0.28850  0.68565  0.93739  1.0000
  O   O506      1.0  0.43739  0.28850  0.18565  1.0000
  O   O507      1.0  0.46150  0.68565  0.81261  1.0000
  O   O508      1.0  0.46150  0.06435  0.93739  1.0000
  O   O509      1.0  0.31261  0.46150  0.18565  1.0000
  O   O510      1.0  0.68565  0.43739  0.78850  1.0000
  O   O511      1.0  0.06435  0.43739  0.96150  1.0000
  O   O512      1.0  0.68565  0.31261  0.96150  1.0000
  C   C481      1.0  0.41925  0.18470  0.23330  1.0000
  C   C482      1.0  0.23330  0.41925  0.18470  1.0000
  C   C483      1.0  0.18470  0.23330  0.41925  1.0000
  C   C484      1.0  0.06530  0.01670  0.41925  1.0000
  C   C485      1.0  0.23330  0.83075  0.06530  1.0000
  C   C486      1.0  0.06530  0.23330  0.83075  1.0000
  C   C487      1.0  0.01670  0.83075  0.18470  1.0000
  C   C488      1.0  0.01670  0.41925  0.06530  1.0000
  C   C489      1.0  0.18470  0.01670  0.83075  1.0000
  C   C490      1.0  0.83075  0.06530  0.23330  1.0000
  C   C491      1.0  0.41925  0.06530  0.01670  1.0000
  C   C492      1.0  0.83075  0.18470  0.01670  1.0000
  C   C493      1.0  0.41925  0.68470  0.73330  1.0000
  C   C494      1.0  0.23330  0.91925  0.68470  1.0000
  C   C495      1.0  0.18470  0.73330  0.91925  1.0000
  C   C496      1.0  0.06530  0.51670  0.91925  1.0000
  C   C497      1.0  0.23330  0.33075  0.56530  1.0000
  C   C498      1.0  0.06530  0.73330  0.33075  1.0000
  C   C499      1.0  0.01670  0.33075  0.68470  1.0000
  C   C500      1.0  0.01670  0.91925  0.56530  1.0000
  C   C501      1.0  0.18470  0.51670  0.33075  1.0000
  C   C502      1.0  0.83075  0.56530  0.73330  1.0000
  C   C503      1.0  0.41925  0.56530  0.51670  1.0000
  C   C504      1.0  0.83075  0.68470  0.51670  1.0000
  C   C505      1.0  0.91925  0.18470  0.73330  1.0000
  C   C506      1.0  0.73330  0.41925  0.68470  1.0000
  C   C507      1.0  0.68470  0.23330  0.91925  1.0000
  C   C508      1.0  0.56530  0.01670  0.91925  1.0000
  C   C509      1.0  0.73330  0.83075  0.56530  1.0000
  C   C510      1.0  0.56530  0.23330  0.33075  1.0000
  C   C511      1.0  0.51670  0.83075  0.68470  1.0000
  C   C512      1.0  0.51670  0.41925  0.56530  1.0000
  C   C513      1.0  0.68470  0.01670  0.33075  1.0000
  C   C514      1.0  0.33075  0.06530  0.73330  1.0000
  C   C515      1.0  0.91925  0.06530  0.51670  1.0000
  C   C516      1.0  0.33075  0.18470  0.51670  1.0000
  C   C517      1.0  0.91925  0.68470  0.23330  1.0000
  C   C518      1.0  0.73330  0.91925  0.18470  1.0000
  C   C519      1.0  0.68470  0.73330  0.41925  1.0000
  C   C520      1.0  0.56530  0.51670  0.41925  1.0000
  C   C521      1.0  0.73330  0.33075  0.06530  1.0000
  C   C522      1.0  0.56530  0.73330  0.83075  1.0000
  C   C523      1.0  0.51670  0.33075  0.18470  1.0000
  C   C524      1.0  0.51670  0.91925  0.06530  1.0000
  C   C525      1.0  0.68470  0.51670  0.83075  1.0000
  C   C526      1.0  0.33075  0.56530  0.23330  1.0000
  C   C527      1.0  0.91925  0.56530  0.01670  1.0000
  C   C528      1.0  0.33075  0.68470  0.01670  1.0000
  C   C529      1.0  0.58075  0.81530  0.76670  1.0000
  C   C530      1.0  0.76670  0.58075  0.81530  1.0000
  C   C531      1.0  0.81530  0.76670  0.58075  1.0000
  C   C532      1.0  0.93470  0.98330  0.58075  1.0000
  C   C533      1.0  0.76670  0.16925  0.93470  1.0000
  C   C534      1.0  0.93470  0.76670  0.16925  1.0000
  C   C535      1.0  0.98330  0.16925  0.81530  1.0000
  C   C536      1.0  0.98330  0.58075  0.93470  1.0000
  C   C537      1.0  0.81530  0.98330  0.16925  1.0000
  C   C538      1.0  0.16925  0.93470  0.76670  1.0000
  C   C539      1.0  0.58075  0.93470  0.98330  1.0000
  C   C540      1.0  0.16925  0.81530  0.98330  1.0000
  C   C541      1.0  0.58075  0.31530  0.26670  1.0000
  C   C542      1.0  0.76670  0.08075  0.31530  1.0000
  C   C543      1.0  0.81530  0.26670  0.08075  1.0000
  C   C544      1.0  0.93470  0.48330  0.08075  1.0000
  C   C545      1.0  0.76670  0.66925  0.43470  1.0000
  C   C546      1.0  0.93470  0.26670  0.66925  1.0000
  C   C547      1.0  0.98330  0.66925  0.31530  1.0000
  C   C548      1.0  0.98330  0.08075  0.43470  1.0000
  C   C549      1.0  0.81530  0.48330  0.66925  1.0000
  C   C550      1.0  0.16925  0.43470  0.26670  1.0000
  C   C551      1.0  0.58075  0.43470  0.48330  1.0000
  C   C552      1.0  0.16925  0.31530  0.48330  1.0000
  C   C553      1.0  0.08075  0.81530  0.26670  1.0000
  C   C554      1.0  0.26670  0.58075  0.31530  1.0000
  C   C555      1.0  0.31530  0.76670  0.08075  1.0000
  C   C556      1.0  0.43470  0.98330  0.08075  1.0000
  C   C557      1.0  0.26670  0.16925  0.43470  1.0000
  C   C558      1.0  0.43470  0.76670  0.66925  1.0000
  C   C559      1.0  0.48330  0.16925  0.31530  1.0000
  C   C560      1.0  0.48330  0.58075  0.43470  1.0000
  C   C561      1.0  0.31530  0.98330  0.66925  1.0000
  C   C562      1.0  0.66925  0.93470  0.26670  1.0000
  C   C563      1.0  0.08075  0.93470  0.48330  1.0000
  C   C564      1.0  0.66925  0.81530  0.48330  1.0000
  C   C565      1.0  0.08075  0.31530  0.76670  1.0000
  C   C566      1.0  0.26670  0.08075  0.81530  1.0000
  C   C567      1.0  0.31530  0.26670  0.58075  1.0000
  C   C568      1.0  0.43470  0.48330  0.58075  1.0000
  C   C569      1.0  0.26670  0.66925  0.93470  1.0000
  C   C570      1.0  0.43470  0.26670  0.16925  1.0000
  C   C571      1.0  0.48330  0.66925  0.81530  1.0000
  C   C572      1.0  0.48330  0.08075  0.93470  1.0000
  C   C573      1.0  0.31530  0.48330  0.16925  1.0000
  C   C574      1.0  0.66925  0.43470  0.76670  1.0000
  C   C575      1.0  0.08075  0.43470  0.98330  1.0000
  C   C576      1.0  0.66925  0.31530  0.98330  1.0000
  C   C577      1.0  0.39309  0.16491  0.23104  1.0000
  C   C578      1.0  0.23104  0.39309  0.16491  1.0000
  C   C579      1.0  0.16491  0.23104  0.39309  1.0000
  C   C580      1.0  0.08509  0.01896  0.39309  1.0000
  C   C581      1.0  0.23104  0.85691  0.08509  1.0000
  C   C582      1.0  0.08509  0.23104  0.85691  1.0000
  C   C583      1.0  0.01896  0.85691  0.16491  1.0000
  C   C584      1.0  0.01896  0.39309  0.08509  1.0000
  C   C585      1.0  0.16491  0.01896  0.85691  1.0000
  C   C586      1.0  0.85691  0.08509  0.23104  1.0000
  C   C587      1.0  0.39309  0.08509  0.01896  1.0000
  C   C588      1.0  0.85691  0.16491  0.01896  1.0000
  C   C589      1.0  0.39309  0.66491  0.73104  1.0000
  C   C590      1.0  0.23104  0.89309  0.66491  1.0000
  C   C591      1.0  0.16491  0.73104  0.89309  1.0000
  C   C592      1.0  0.08509  0.51896  0.89309  1.0000
  C   C593      1.0  0.23104  0.35691  0.58509  1.0000
  C   C594      1.0  0.08509  0.73104  0.35691  1.0000
  C   C595      1.0  0.01896  0.35691  0.66491  1.0000
  C   C596      1.0  0.01896  0.89309  0.58509  1.0000
  C   C597      1.0  0.16491  0.51896  0.35691  1.0000
  C   C598      1.0  0.85691  0.58509  0.73104  1.0000
  C   C599      1.0  0.39309  0.58509  0.51896  1.0000
  C   C600      1.0  0.85691  0.66491  0.51896  1.0000
  C   C601      1.0  0.89309  0.16491  0.73104  1.0000
  C   C602      1.0  0.73104  0.39309  0.66491  1.0000
  C   C603      1.0  0.66491  0.23104  0.89309  1.0000
  C   C604      1.0  0.58509  0.01896  0.89309  1.0000
  C   C605      1.0  0.73104  0.85691  0.58509  1.0000
  C   C606      1.0  0.58509  0.23104  0.35691  1.0000
  C   C607      1.0  0.51896  0.85691  0.66491  1.0000
  C   C608      1.0  0.51896  0.39309  0.58509  1.0000
  C   C609      1.0  0.66491  0.01896  0.35691  1.0000
  C   C610      1.0  0.35691  0.08509  0.73104  1.0000
  C   C611      1.0  0.89309  0.08509  0.51896  1.0000
  C   C612      1.0  0.35691  0.16491  0.51896  1.0000
  C   C613      1.0  0.89309  0.66491  0.23104  1.0000
  C   C614      1.0  0.73104  0.89309  0.16491  1.0000
  C   C615      1.0  0.66491  0.73104  0.39309  1.0000
  C   C616      1.0  0.58509  0.51896  0.39309  1.0000
  C   C617      1.0  0.73104  0.35691  0.08509  1.0000
  C   C618      1.0  0.58509  0.73104  0.85691  1.0000
  C   C619      1.0  0.51896  0.35691  0.16491  1.0000
  C   C620      1.0  0.51896  0.89309  0.08509  1.0000
  C   C621      1.0  0.66491  0.51896  0.85691  1.0000
  C   C622      1.0  0.35691  0.58509  0.23104  1.0000
  C   C623      1.0  0.89309  0.58509  0.01896  1.0000
  C   C624      1.0  0.35691  0.66491  0.01896  1.0000
  C   C625      1.0  0.60691  0.83509  0.76896  1.0000
  C   C626      1.0  0.76896  0.60691  0.83509  1.0000
  C   C627      1.0  0.83509  0.76896  0.60691  1.0000
  C   C628      1.0  0.91491  0.98104  0.60691  1.0000
  C   C629      1.0  0.76896  0.14309  0.91491  1.0000
  C   C630      1.0  0.91491  0.76896  0.14309  1.0000
  C   C631      1.0  0.98104  0.14309  0.83509  1.0000
  C   C632      1.0  0.98104  0.60691  0.91491  1.0000
  C   C633      1.0  0.83509  0.98104  0.14309  1.0000
  C   C634      1.0  0.14309  0.91491  0.76896  1.0000
  C   C635      1.0  0.60691  0.91491  0.98104  1.0000
  C   C636      1.0  0.14309  0.83509  0.98104  1.0000
  C   C637      1.0  0.60691  0.33509  0.26896  1.0000
  C   C638      1.0  0.76896  0.10691  0.33509  1.0000
  C   C639      1.0  0.83509  0.26896  0.10691  1.0000
  C   C640      1.0  0.91491  0.48104  0.10691  1.0000
  C   C641      1.0  0.76896  0.64309  0.41491  1.0000
  C   C642      1.0  0.91491  0.26896  0.64309  1.0000
  C   C643      1.0  0.98104  0.64309  0.33509  1.0000
  C   C644      1.0  0.98104  0.10691  0.41491  1.0000
  C   C645      1.0  0.83509  0.48104  0.64309  1.0000
  C   C646      1.0  0.14309  0.41491  0.26896  1.0000
  C   C647      1.0  0.60691  0.41491  0.48104  1.0000
  C   C648      1.0  0.14309  0.33509  0.48104  1.0000
  C   C649      1.0  0.10691  0.83509  0.26896  1.0000
  C   C650      1.0  0.26896  0.60691  0.33509  1.0000
  C   C651      1.0  0.33509  0.76896  0.10691  1.0000
  C   C652      1.0  0.41491  0.98104  0.10691  1.0000
  C   C653      1.0  0.26896  0.14309  0.41491  1.0000
  C   C654      1.0  0.41491  0.76896  0.64309  1.0000
  C   C655      1.0  0.48104  0.14309  0.33509  1.0000
  C   C656      1.0  0.48104  0.60691  0.41491  1.0000
  C   C657      1.0  0.33509  0.98104  0.64309  1.0000
  C   C658      1.0  0.64309  0.91491  0.26896  1.0000
  C   C659      1.0  0.10691  0.91491  0.48104  1.0000
  C   C660      1.0  0.64309  0.83509  0.48104  1.0000
  C   C661      1.0  0.10691  0.33509  0.76896  1.0000
  C   C662      1.0  0.26896  0.10691  0.83509  1.0000
  C   C663      1.0  0.33509  0.26896  0.60691  1.0000
  C   C664      1.0  0.41491  0.48104  0.60691  1.0000
  C   C665      1.0  0.26896  0.64309  0.91491  1.0000
  C   C666      1.0  0.41491  0.26896  0.14309  1.0000
  C   C667      1.0  0.48104  0.64309  0.83509  1.0000
  C   C668      1.0  0.48104  0.10691  0.91491  1.0000
  C   C669      1.0  0.33509  0.48104  0.14309  1.0000
  C   C670      1.0  0.64309  0.41491  0.76896  1.0000
  C   C671      1.0  0.10691  0.41491  0.98104  1.0000
  C   C672      1.0  0.64309  0.33509  0.98104  1.0000
  C   C673      1.0  0.37208  0.16522  0.25307  1.0000
  C   C674      1.0  0.25307  0.37208  0.16522  1.0000
  C   C675      1.0  0.16522  0.25307  0.37208  1.0000
  C   C676      1.0  0.08478  0.99693  0.37208  1.0000
  C   C677      1.0  0.25307  0.87792  0.08478  1.0000
  C   C678      1.0  0.08478  0.25307  0.87792  1.0000
  C   C679      1.0  0.99693  0.87792  0.16522  1.0000
  C   C680      1.0  0.99693  0.37208  0.08478  1.0000
  C   C681      1.0  0.16522  0.99693  0.87792  1.0000
  C   C682      1.0  0.87792  0.08478  0.25307  1.0000
  C   C683      1.0  0.37208  0.08478  0.99693  1.0000
  C   C684      1.0  0.87792  0.16522  0.99693  1.0000
  C   C685      1.0  0.37208  0.66522  0.75307  1.0000
  C   C686      1.0  0.25307  0.87208  0.66522  1.0000
  C   C687      1.0  0.16522  0.75307  0.87208  1.0000
  C   C688      1.0  0.08478  0.49693  0.87208  1.0000
  C   C689      1.0  0.25307  0.37792  0.58478  1.0000
  C   C690      1.0  0.08478  0.75307  0.37792  1.0000
  C   C691      1.0  0.99693  0.37792  0.66522  1.0000
  C   C692      1.0  0.99693  0.87208  0.58478  1.0000
  C   C693      1.0  0.16522  0.49693  0.37792  1.0000
  C   C694      1.0  0.87792  0.58478  0.75307  1.0000
  C   C695      1.0  0.37208  0.58478  0.49693  1.0000
  C   C696      1.0  0.87792  0.66522  0.49693  1.0000
  C   C697      1.0  0.87208  0.16522  0.75307  1.0000
  C   C698      1.0  0.75307  0.37208  0.66522  1.0000
  C   C699      1.0  0.66522  0.25307  0.87208  1.0000
  C   C700      1.0  0.58478  0.99693  0.87208  1.0000
  C   C701      1.0  0.75307  0.87792  0.58478  1.0000
  C   C702      1.0  0.58478  0.25307  0.37792  1.0000
  C   C703      1.0  0.49693  0.87792  0.66522  1.0000
  C   C704      1.0  0.49693  0.37208  0.58478  1.0000
  C   C705      1.0  0.66522  0.99693  0.37792  1.0000
  C   C706      1.0  0.37792  0.08478  0.75307  1.0000
  C   C707      1.0  0.87208  0.08478  0.49693  1.0000
  C   C708      1.0  0.37792  0.16522  0.49693  1.0000
  C   C709      1.0  0.87208  0.66522  0.25307  1.0000
  C   C710      1.0  0.75307  0.87208  0.16522  1.0000
  C   C711      1.0  0.66522  0.75307  0.37208  1.0000
  C   C712      1.0  0.58478  0.49693  0.37208  1.0000
  C   C713      1.0  0.75307  0.37792  0.08478  1.0000
  C   C714      1.0  0.58478  0.75307  0.87792  1.0000
  C   C715      1.0  0.49693  0.37792  0.16522  1.0000
  C   C716      1.0  0.49693  0.87208  0.08478  1.0000
  C   C717      1.0  0.66522  0.49693  0.87792  1.0000
  C   C718      1.0  0.37792  0.58478  0.25307  1.0000
  C   C719      1.0  0.87208  0.58478  0.99693  1.0000
  C   C720      1.0  0.37792  0.66522  0.99693  1.0000
  C   C721      1.0  0.62792  0.83478  0.74693  1.0000
  C   C722      1.0  0.74693  0.62792  0.83478  1.0000
  C   C723      1.0  0.83478  0.74693  0.62792  1.0000
  C   C724      1.0  0.91522  0.00307  0.62792  1.0000
  C   C725      1.0  0.74693  0.12208  0.91522  1.0000
  C   C726      1.0  0.91522  0.74693  0.12208  1.0000
  C   C727      1.0  0.00307  0.12208  0.83478  1.0000
  C   C728      1.0  0.00307  0.62792  0.91522  1.0000
  C   C729      1.0  0.83478  0.00307  0.12208  1.0000
  C   C730      1.0  0.12208  0.91522  0.74693  1.0000
  C   C731      1.0  0.62792  0.91522  0.00307  1.0000
  C   C732      1.0  0.12208  0.83478  0.00307  1.0000
  C   C733      1.0  0.62792  0.33478  0.24693  1.0000
  C   C734      1.0  0.74693  0.12792  0.33478  1.0000
  C   C735      1.0  0.83478  0.24693  0.12792  1.0000
  C   C736      1.0  0.91522  0.50307  0.12792  1.0000
  C   C737      1.0  0.74693  0.62208  0.41522  1.0000
  C   C738      1.0  0.91522  0.24693  0.62208  1.0000
  C   C739      1.0  0.00307  0.62208  0.33478  1.0000
  C   C740      1.0  0.00307  0.12792  0.41522  1.0000
  C   C741      1.0  0.83478  0.50307  0.62208  1.0000
  C   C742      1.0  0.12208  0.41522  0.24693  1.0000
  C   C743      1.0  0.62792  0.41522  0.50307  1.0000
  C   C744      1.0  0.12208  0.33478  0.50307  1.0000
  C   C745      1.0  0.12792  0.83478  0.24693  1.0000
  C   C746      1.0  0.24693  0.62792  0.33478  1.0000
  C   C747      1.0  0.33478  0.74693  0.12792  1.0000
  C   C748      1.0  0.41522  0.00307  0.12792  1.0000
  C   C749      1.0  0.24693  0.12208  0.41522  1.0000
  C   C750      1.0  0.41522  0.74693  0.62208  1.0000
  C   C751      1.0  0.50307  0.12208  0.33478  1.0000
  C   C752      1.0  0.50307  0.62792  0.41522  1.0000
  C   C753      1.0  0.33478  0.00307  0.62208  1.0000
  C   C754      1.0  0.62208  0.91522  0.24693  1.0000
  C   C755      1.0  0.12792  0.91522  0.50307  1.0000
  C   C756      1.0  0.62208  0.83478  0.50307  1.0000
  C   C757      1.0  0.12792  0.33478  0.74693  1.0000
  C   C758      1.0  0.24693  0.12792  0.83478  1.0000
  C   C759      1.0  0.33478  0.24693  0.62792  1.0000
  C   C760      1.0  0.41522  0.50307  0.62792  1.0000
  C   C761      1.0  0.24693  0.62208  0.91522  1.0000
  C   C762      1.0  0.41522  0.24693  0.12208  1.0000
  C   C763      1.0  0.50307  0.62208  0.83478  1.0000
  C   C764      1.0  0.50307  0.12792  0.91522  1.0000
  C   C765      1.0  0.33478  0.50307  0.12208  1.0000
  C   C766      1.0  0.62208  0.41522  0.74693  1.0000
  C   C767      1.0  0.12792  0.41522  0.00307  1.0000
  C   C768      1.0  0.62208  0.33478  0.00307  1.0000
  H   H225      1.0  0.37370  0.17870  0.26880  1.0000
  H   H226      1.0  0.26880  0.37370  0.17870  1.0000
  H   H227      1.0  0.17870  0.26880  0.37370  1.0000
  H   H228      1.0  0.07130  0.98120  0.37370  1.0000
  H   H229      1.0  0.26880  0.87630  0.07130  1.0000
  H   H230      1.0  0.07130  0.26880  0.87630  1.0000
  H   H231      1.0  0.98120  0.87630  0.17870  1.0000
  H   H232      1.0  0.98120  0.37370  0.07130  1.0000
  H   H233      1.0  0.17870  0.98120  0.87630  1.0000
  H   H234      1.0  0.87630  0.07130  0.26880  1.0000
  H   H235      1.0  0.37370  0.07130  0.98120  1.0000
  H   H236      1.0  0.87630  0.17870  0.98120  1.0000
  H   H237      1.0  0.37370  0.67870  0.76880  1.0000
  H   H238      1.0  0.26880  0.87370  0.67870  1.0000
  H   H239      1.0  0.17870  0.76880  0.87370  1.0000
  H   H240      1.0  0.07130  0.48120  0.87370  1.0000
  H   H241      1.0  0.26880  0.37630  0.57130  1.0000
  H   H242      1.0  0.07130  0.76880  0.37630  1.0000
  H   H243      1.0  0.98120  0.37630  0.67870  1.0000
  H   H244      1.0  0.98120  0.87370  0.57130  1.0000
  H   H245      1.0  0.17870  0.48120  0.37630  1.0000
  H   H246      1.0  0.87630  0.57130  0.76880  1.0000
  H   H247      1.0  0.37370  0.57130  0.48120  1.0000
  H   H248      1.0  0.87630  0.67870  0.48120  1.0000
  H   H249      1.0  0.87370  0.17870  0.76880  1.0000
  H   H250      1.0  0.76880  0.37370  0.67870  1.0000
  H   H251      1.0  0.67870  0.26880  0.87370  1.0000
  H   H252      1.0  0.57130  0.98120  0.87370  1.0000
  H   H253      1.0  0.76880  0.87630  0.57130  1.0000
  H   H254      1.0  0.57130  0.26880  0.37630  1.0000
  H   H255      1.0  0.48120  0.87630  0.67870  1.0000
  H   H256      1.0  0.48120  0.37370  0.57130  1.0000
  H   H257      1.0  0.67870  0.98120  0.37630  1.0000
  H   H258      1.0  0.37630  0.07130  0.76880  1.0000
  H   H259      1.0  0.87370  0.07130  0.48120  1.0000
  H   H260      1.0  0.37630  0.17870  0.48120  1.0000
  H   H261      1.0  0.87370  0.67870  0.26880  1.0000
  H   H262      1.0  0.76880  0.87370  0.17870  1.0000
  H   H263      1.0  0.67870  0.76880  0.37370  1.0000
  H   H264      1.0  0.57130  0.48120  0.37370  1.0000
  H   H265      1.0  0.76880  0.37630  0.07130  1.0000
  H   H266      1.0  0.57130  0.76880  0.87630  1.0000
  H   H267      1.0  0.48120  0.37630  0.17870  1.0000
  H   H268      1.0  0.48120  0.87370  0.07130  1.0000
  H   H269      1.0  0.67870  0.48120  0.87630  1.0000
  H   H270      1.0  0.37630  0.57130  0.26880  1.0000
  H   H271      1.0  0.87370  0.57130  0.98120  1.0000
  H   H272      1.0  0.37630  0.67870  0.98120  1.0000
  H   H273      1.0  0.62630  0.82130  0.73120  1.0000
  H   H274      1.0  0.73120  0.62630  0.82130  1.0000
  H   H275      1.0  0.82130  0.73120  0.62630  1.0000
  H   H276      1.0  0.92870  0.01880  0.62630  1.0000
  H   H277      1.0  0.73120  0.12370  0.92870  1.0000
  H   H278      1.0  0.92870  0.73120  0.12370  1.0000
  H   H279      1.0  0.01880  0.12370  0.82130  1.0000
  H   H280      1.0  0.01880  0.62630  0.92870  1.0000
  H   H281      1.0  0.82130  0.01880  0.12370  1.0000
  H   H282      1.0  0.12370  0.92870  0.73120  1.0000
  H   H283      1.0  0.62630  0.92870  0.01880  1.0000
  H   H284      1.0  0.12370  0.82130  0.01880  1.0000
  H   H285      1.0  0.62630  0.32130  0.23120  1.0000
  H   H286      1.0  0.73120  0.12630  0.32130  1.0000
  H   H287      1.0  0.82130  0.23120  0.12630  1.0000
  H   H288      1.0  0.92870  0.51880  0.12630  1.0000
  H   H289      1.0  0.73120  0.62370  0.42870  1.0000
  H   H290      1.0  0.92870  0.23120  0.62370  1.0000
  H   H291      1.0  0.01880  0.62370  0.32130  1.0000
  H   H292      1.0  0.01880  0.12630  0.42870  1.0000
  H   H293      1.0  0.82130  0.51880  0.62370  1.0000
  H   H294      1.0  0.12370  0.42870  0.23120  1.0000
  H   H295      1.0  0.62630  0.42870  0.51880  1.0000
  H   H296      1.0  0.12370  0.32130  0.51880  1.0000
  H   H297      1.0  0.12630  0.82130  0.23120  1.0000
  H   H298      1.0  0.23120  0.62630  0.32130  1.0000
  H   H299      1.0  0.32130  0.73120  0.12630  1.0000
  H   H300      1.0  0.42870  0.01880  0.12630  1.0000
  H   H301      1.0  0.23120  0.12370  0.42870  1.0000
  H   H302      1.0  0.42870  0.73120  0.62370  1.0000
  H   H303      1.0  0.51880  0.12370  0.32130  1.0000
  H   H304      1.0  0.51880  0.62630  0.42870  1.0000
  H   H305      1.0  0.32130  0.01880  0.62370  1.0000
  H   H306      1.0  0.62370  0.92870  0.23120  1.0000
  H   H307      1.0  0.12630  0.92870  0.51880  1.0000
  H   H308      1.0  0.62370  0.82130  0.51880  1.0000
  H   H309      1.0  0.12630  0.32130  0.73120  1.0000
  H   H310      1.0  0.23120  0.12630  0.82130  1.0000
  H   H311      1.0  0.32130  0.23120  0.62630  1.0000
  H   H312      1.0  0.42870  0.51880  0.62630  1.0000
  H   H313      1.0  0.23120  0.62370  0.92870  1.0000
  H   H314      1.0  0.42870  0.23120  0.12370  1.0000
  H   H315      1.0  0.51880  0.62370  0.82130  1.0000
  H   H316      1.0  0.51880  0.12630  0.92870  1.0000
  H   H317      1.0  0.32130  0.51880  0.12370  1.0000
  H   H318      1.0  0.62370  0.42870  0.73120  1.0000
  H   H319      1.0  0.12630  0.42870  0.01880  1.0000
  H   H320      1.0  0.62370  0.32130  0.01880  1.0000
  C   C769      1.0  0.34866  0.14580  0.25204  1.0000
  C   C770      1.0  0.25204  0.34866  0.14580  1.0000
  C   C771      1.0  0.14580  0.25204  0.34866  1.0000
  C   C772      1.0  0.10420  0.99796  0.34866  1.0000
  C   C773      1.0  0.25204  0.90134  0.10420  1.0000
  C   C774      1.0  0.10420  0.25204  0.90134  1.0000
  C   C775      1.0  0.99796  0.90134  0.14580  1.0000
  C   C776      1.0  0.99796  0.34866  0.10420  1.0000
  C   C777      1.0  0.14580  0.99796  0.90134  1.0000
  C   C778      1.0  0.90134  0.10420  0.25204  1.0000
  C   C779      1.0  0.34866  0.10420  0.99796  1.0000
  C   C780      1.0  0.90134  0.14580  0.99796  1.0000
  C   C781      1.0  0.34866  0.64580  0.75204  1.0000
  C   C782      1.0  0.25204  0.84866  0.64580  1.0000
  C   C783      1.0  0.14580  0.75204  0.84866  1.0000
  C   C784      1.0  0.10420  0.49796  0.84866  1.0000
  C   C785      1.0  0.25204  0.40134  0.60420  1.0000
  C   C786      1.0  0.10420  0.75204  0.40134  1.0000
  C   C787      1.0  0.99796  0.40134  0.64580  1.0000
  C   C788      1.0  0.99796  0.84866  0.60420  1.0000
  C   C789      1.0  0.14580  0.49796  0.40134  1.0000
  C   C790      1.0  0.90134  0.60420  0.75204  1.0000
  C   C791      1.0  0.34866  0.60420  0.49796  1.0000
  C   C792      1.0  0.90134  0.64580  0.49796  1.0000
  C   C793      1.0  0.84866  0.14580  0.75204  1.0000
  C   C794      1.0  0.75204  0.34866  0.64580  1.0000
  C   C795      1.0  0.64580  0.25204  0.84866  1.0000
  C   C796      1.0  0.60420  0.99796  0.84866  1.0000
  C   C797      1.0  0.75204  0.90134  0.60420  1.0000
  C   C798      1.0  0.60420  0.25204  0.40134  1.0000
  C   C799      1.0  0.49796  0.90134  0.64580  1.0000
  C   C800      1.0  0.49796  0.34866  0.60420  1.0000
  C   C801      1.0  0.64580  0.99796  0.40134  1.0000
  C   C802      1.0  0.40134  0.10420  0.75204  1.0000
  C   C803      1.0  0.84866  0.10420  0.49796  1.0000
  C   C804      1.0  0.40134  0.14580  0.49796  1.0000
  C   C805      1.0  0.84866  0.64580  0.25204  1.0000
  C   C806      1.0  0.75204  0.84866  0.14580  1.0000
  C   C807      1.0  0.64580  0.75204  0.34866  1.0000
  C   C808      1.0  0.60420  0.49796  0.34866  1.0000
  C   C809      1.0  0.75204  0.40134  0.10420  1.0000
  C   C810      1.0  0.60420  0.75204  0.90134  1.0000
  C   C811      1.0  0.49796  0.40134  0.14580  1.0000
  C   C812      1.0  0.49796  0.84866  0.10420  1.0000
  C   C813      1.0  0.64580  0.49796  0.90134  1.0000
  C   C814      1.0  0.40134  0.60420  0.25204  1.0000
  C   C815      1.0  0.84866  0.60420  0.99796  1.0000
  C   C816      1.0  0.40134  0.64580  0.99796  1.0000
  C   C817      1.0  0.65134  0.85420  0.74796  1.0000
  C   C818      1.0  0.74796  0.65134  0.85420  1.0000
  C   C819      1.0  0.85420  0.74796  0.65134  1.0000
  C   C820      1.0  0.89580  0.00204  0.65134  1.0000
  C   C821      1.0  0.74796  0.09866  0.89580  1.0000
  C   C822      1.0  0.89580  0.74796  0.09866  1.0000
  C   C823      1.0  0.00204  0.09866  0.85420  1.0000
  C   C824      1.0  0.00204  0.65134  0.89580  1.0000
  C   C825      1.0  0.85420  0.00204  0.09866  1.0000
  C   C826      1.0  0.09866  0.89580  0.74796  1.0000
  C   C827      1.0  0.65134  0.89580  0.00204  1.0000
  C   C828      1.0  0.09866  0.85420  0.00204  1.0000
  C   C829      1.0  0.65134  0.35420  0.24796  1.0000
  C   C830      1.0  0.74796  0.15134  0.35420  1.0000
  C   C831      1.0  0.85420  0.24796  0.15134  1.0000
  C   C832      1.0  0.89580  0.50204  0.15134  1.0000
  C   C833      1.0  0.74796  0.59866  0.39580  1.0000
  C   C834      1.0  0.89580  0.24796  0.59866  1.0000
  C   C835      1.0  0.00204  0.59866  0.35420  1.0000
  C   C836      1.0  0.00204  0.15134  0.39580  1.0000
  C   C837      1.0  0.85420  0.50204  0.59866  1.0000
  C   C838      1.0  0.09866  0.39580  0.24796  1.0000
  C   C839      1.0  0.65134  0.39580  0.50204  1.0000
  C   C840      1.0  0.09866  0.35420  0.50204  1.0000
  C   C841      1.0  0.15134  0.85420  0.24796  1.0000
  C   C842      1.0  0.24796  0.65134  0.35420  1.0000
  C   C843      1.0  0.35420  0.74796  0.15134  1.0000
  C   C844      1.0  0.39580  0.00204  0.15134  1.0000
  C   C845      1.0  0.24796  0.09866  0.39580  1.0000
  C   C846      1.0  0.39580  0.74796  0.59866  1.0000
  C   C847      1.0  0.50204  0.09866  0.35420  1.0000
  C   C848      1.0  0.50204  0.65134  0.39580  1.0000
  C   C849      1.0  0.35420  0.00204  0.59866  1.0000
  C   C850      1.0  0.59866  0.89580  0.24796  1.0000
  C   C851      1.0  0.15134  0.89580  0.50204  1.0000
  C   C852      1.0  0.59866  0.85420  0.50204  1.0000
  C   C853      1.0  0.15134  0.35420  0.74796  1.0000
  C   C854      1.0  0.24796  0.15134  0.85420  1.0000
  C   C855      1.0  0.35420  0.24796  0.65134  1.0000
  C   C856      1.0  0.39580  0.50204  0.65134  1.0000
  C   C857      1.0  0.24796  0.59866  0.89580  1.0000
  C   C858      1.0  0.39580  0.24796  0.09866  1.0000
  C   C859      1.0  0.50204  0.59866  0.85420  1.0000
  C   C860      1.0  0.50204  0.15134  0.89580  1.0000
  C   C861      1.0  0.35420  0.50204  0.09866  1.0000
  C   C862      1.0  0.59866  0.39580  0.74796  1.0000
  C   C863      1.0  0.15134  0.39580  0.00204  1.0000
  C   C864      1.0  0.59866  0.35420  0.00204  1.0000
  H   H321      1.0  0.33430  0.14600  0.26710  1.0000
  H   H322      1.0  0.26710  0.33430  0.14600  1.0000
  H   H323      1.0  0.14600  0.26710  0.33430  1.0000
  H   H324      1.0  0.10400  0.98290  0.33430  1.0000
  H   H325      1.0  0.26710  0.91570  0.10400  1.0000
  H   H326      1.0  0.10400  0.26710  0.91570  1.0000
  H   H327      1.0  0.98290  0.91570  0.14600  1.0000
  H   H328      1.0  0.98290  0.33430  0.10400  1.0000
  H   H329      1.0  0.14600  0.98290  0.91570  1.0000
  H   H330      1.0  0.91570  0.10400  0.26710  1.0000
  H   H331      1.0  0.33430  0.10400  0.98290  1.0000
  H   H332      1.0  0.91570  0.14600  0.98290  1.0000
  H   H333      1.0  0.33430  0.64600  0.76710  1.0000
  H   H334      1.0  0.26710  0.83430  0.64600  1.0000
  H   H335      1.0  0.14600  0.76710  0.83430  1.0000
  H   H336      1.0  0.10400  0.48290  0.83430  1.0000
  H   H337      1.0  0.26710  0.41570  0.60400  1.0000
  H   H338      1.0  0.10400  0.76710  0.41570  1.0000
  H   H339      1.0  0.98290  0.41570  0.64600  1.0000
  H   H340      1.0  0.98290  0.83430  0.60400  1.0000
  H   H341      1.0  0.14600  0.48290  0.41570  1.0000
  H   H342      1.0  0.91570  0.60400  0.76710  1.0000
  H   H343      1.0  0.33430  0.60400  0.48290  1.0000
  H   H344      1.0  0.91570  0.64600  0.48290  1.0000
  H   H345      1.0  0.83430  0.14600  0.76710  1.0000
  H   H346      1.0  0.76710  0.33430  0.64600  1.0000
  H   H347      1.0  0.64600  0.26710  0.83430  1.0000
  H   H348      1.0  0.60400  0.98290  0.83430  1.0000
  H   H349      1.0  0.76710  0.91570  0.60400  1.0000
  H   H350      1.0  0.60400  0.26710  0.41570  1.0000
  H   H351      1.0  0.48290  0.91570  0.64600  1.0000
  H   H352      1.0  0.48290  0.33430  0.60400  1.0000
  H   H353      1.0  0.64600  0.98290  0.41570  1.0000
  H   H354      1.0  0.41570  0.10400  0.76710  1.0000
  H   H355      1.0  0.83430  0.10400  0.48290  1.0000
  H   H356      1.0  0.41570  0.14600  0.48290  1.0000
  H   H357      1.0  0.83430  0.64600  0.26710  1.0000
  H   H358      1.0  0.76710  0.83430  0.14600  1.0000
  H   H359      1.0  0.64600  0.76710  0.33430  1.0000
  H   H360      1.0  0.60400  0.48290  0.33430  1.0000
  H   H361      1.0  0.76710  0.41570  0.10400  1.0000
  H   H362      1.0  0.60400  0.76710  0.91570  1.0000
  H   H363      1.0  0.48290  0.41570  0.14600  1.0000
  H   H364      1.0  0.48290  0.83430  0.10400  1.0000
  H   H365      1.0  0.64600  0.48290  0.91570  1.0000
  H   H366      1.0  0.41570  0.60400  0.26710  1.0000
  H   H367      1.0  0.83430  0.60400  0.98290  1.0000
  H   H368      1.0  0.41570  0.64600  0.98290  1.0000
  H   H369      1.0  0.66570  0.85400  0.73290  1.0000
  H   H370      1.0  0.73290  0.66570  0.85400  1.0000
  H   H371      1.0  0.85400  0.73290  0.66570  1.0000
  H   H372      1.0  0.89600  0.01710  0.66570  1.0000
  H   H373      1.0  0.73290  0.08430  0.89600  1.0000
  H   H374      1.0  0.89600  0.73290  0.08430  1.0000
  H   H375      1.0  0.01710  0.08430  0.85400  1.0000
  H   H376      1.0  0.01710  0.66570  0.89600  1.0000
  H   H377      1.0  0.85400  0.01710  0.08430  1.0000
  H   H378      1.0  0.08430  0.89600  0.73290  1.0000
  H   H379      1.0  0.66570  0.89600  0.01710  1.0000
  H   H380      1.0  0.08430  0.85400  0.01710  1.0000
  H   H381      1.0  0.66570  0.35400  0.23290  1.0000
  H   H382      1.0  0.73290  0.16570  0.35400  1.0000
  H   H383      1.0  0.85400  0.23290  0.16570  1.0000
  H   H384      1.0  0.89600  0.51710  0.16570  1.0000
  H   H385      1.0  0.73290  0.58430  0.39600  1.0000
  H   H386      1.0  0.89600  0.23290  0.58430  1.0000
  H   H387      1.0  0.01710  0.58430  0.35400  1.0000
  H   H388      1.0  0.01710  0.16570  0.39600  1.0000
  H   H389      1.0  0.85400  0.51710  0.58430  1.0000
  H   H390      1.0  0.08430  0.39600  0.23290  1.0000
  H   H391      1.0  0.66570  0.39600  0.51710  1.0000
  H   H392      1.0  0.08430  0.35400  0.51710  1.0000
  H   H393      1.0  0.16570  0.85400  0.23290  1.0000
  H   H394      1.0  0.23290  0.66570  0.35400  1.0000
  H   H395      1.0  0.35400  0.73290  0.16570  1.0000
  H   H396      1.0  0.39600  0.01710  0.16570  1.0000
  H   H397      1.0  0.23290  0.08430  0.39600  1.0000
  H   H398      1.0  0.39600  0.73290  0.58430  1.0000
  H   H399      1.0  0.51710  0.08430  0.35400  1.0000
  H   H400      1.0  0.51710  0.66570  0.39600  1.0000
  H   H401      1.0  0.35400  0.01710  0.58430  1.0000
  H   H402      1.0  0.58430  0.89600  0.23290  1.0000
  H   H403      1.0  0.16570  0.89600  0.51710  1.0000
  H   H404      1.0  0.58430  0.85400  0.51710  1.0000
  H   H405      1.0  0.16570  0.35400  0.73290  1.0000
  H   H406      1.0  0.23290  0.16570  0.85400  1.0000
  H   H407      1.0  0.35400  0.23290  0.66570  1.0000
  H   H408      1.0  0.39600  0.51710  0.66570  1.0000
  H   H409      1.0  0.23290  0.58430  0.89600  1.0000
  H   H410      1.0  0.39600  0.23290  0.08430  1.0000
  H   H411      1.0  0.51710  0.58430  0.85400  1.0000
  H   H412      1.0  0.51710  0.16570  0.89600  1.0000
  H   H413      1.0  0.35400  0.51710  0.08430  1.0000
  H   H414      1.0  0.58430  0.39600  0.73290  1.0000
  H   H415      1.0  0.16570  0.39600  0.01710  1.0000
  H   H416      1.0  0.58430  0.35400  0.01710  1.0000
  C   C865      1.0  0.34625  0.12607  0.22897  1.0000
  C   C866      1.0  0.22897  0.34625  0.12607  1.0000
  C   C867      1.0  0.12607  0.22897  0.34625  1.0000
  C   C868      1.0  0.12393  0.02103  0.34625  1.0000
  C   C869      1.0  0.22897  0.90375  0.12393  1.0000
  C   C870      1.0  0.12393  0.22897  0.90375  1.0000
  C   C871      1.0  0.02103  0.90375  0.12607  1.0000
  C   C872      1.0  0.02103  0.34625  0.12393  1.0000
  C   C873      1.0  0.12607  0.02103  0.90375  1.0000
  C   C874      1.0  0.90375  0.12393  0.22897  1.0000
  C   C875      1.0  0.34625  0.12393  0.02103  1.0000
  C   C876      1.0  0.90375  0.12607  0.02103  1.0000
  C   C877      1.0  0.34625  0.62607  0.72897  1.0000
  C   C878      1.0  0.22897  0.84625  0.62607  1.0000
  C   C879      1.0  0.12607  0.72897  0.84625  1.0000
  C   C880      1.0  0.12393  0.52103  0.84625  1.0000
  C   C881      1.0  0.22897  0.40375  0.62393  1.0000
  C   C882      1.0  0.12393  0.72897  0.40375  1.0000
  C   C883      1.0  0.02103  0.40375  0.62607  1.0000
  C   C884      1.0  0.02103  0.84625  0.62393  1.0000
  C   C885      1.0  0.12607  0.52103  0.40375  1.0000
  C   C886      1.0  0.90375  0.62393  0.72897  1.0000
  C   C887      1.0  0.34625  0.62393  0.52103  1.0000
  C   C888      1.0  0.90375  0.62607  0.52103  1.0000
  C   C889      1.0  0.84625  0.12607  0.72897  1.0000
  C   C890      1.0  0.72897  0.34625  0.62607  1.0000
  C   C891      1.0  0.62607  0.22897  0.84625  1.0000
  C   C892      1.0  0.62393  0.02103  0.84625  1.0000
  C   C893      1.0  0.72897  0.90375  0.62393  1.0000
  C   C894      1.0  0.62393  0.22897  0.40375  1.0000
  C   C895      1.0  0.52103  0.90375  0.62607  1.0000
  C   C896      1.0  0.52103  0.34625  0.62393  1.0000
  C   C897      1.0  0.62607  0.02103  0.40375  1.0000
  C   C898      1.0  0.40375  0.12393  0.72897  1.0000
  C   C899      1.0  0.84625  0.12393  0.52103  1.0000
  C   C900      1.0  0.40375  0.12607  0.52103  1.0000
  C   C901      1.0  0.84625  0.62607  0.22897  1.0000
  C   C902      1.0  0.72897  0.84625  0.12607  1.0000
  C   C903      1.0  0.62607  0.72897  0.34625  1.0000
  C   C904      1.0  0.62393  0.52103  0.34625  1.0000
  C   C905      1.0  0.72897  0.40375  0.12393  1.0000
  C   C906      1.0  0.62393  0.72897  0.90375  1.0000
  C   C907      1.0  0.52103  0.40375  0.12607  1.0000
  C   C908      1.0  0.52103  0.84625  0.12393  1.0000
  C   C909      1.0  0.62607  0.52103  0.90375  1.0000
  C   C910      1.0  0.40375  0.62393  0.22897  1.0000
  C   C911      1.0  0.84625  0.62393  0.02103  1.0000
  C   C912      1.0  0.40375  0.62607  0.02103  1.0000
  C   C913      1.0  0.65375  0.87393  0.77103  1.0000
  C   C914      1.0  0.77103  0.65375  0.87393  1.0000
  C   C915      1.0  0.87393  0.77103  0.65375  1.0000
  C   C916      1.0  0.87607  0.97897  0.65375  1.0000
  C   C917      1.0  0.77103  0.09625  0.87607  1.0000
  C   C918      1.0  0.87607  0.77103  0.09625  1.0000
  C   C919      1.0  0.97897  0.09625  0.87393  1.0000
  C   C920      1.0  0.97897  0.65375  0.87607  1.0000
  C   C921      1.0  0.87393  0.97897  0.09625  1.0000
  C   C922      1.0  0.09625  0.87607  0.77103  1.0000
  C   C923      1.0  0.65375  0.87607  0.97897  1.0000
  C   C924      1.0  0.09625  0.87393  0.97897  1.0000
  C   C925      1.0  0.65375  0.37393  0.27103  1.0000
  C   C926      1.0  0.77103  0.15375  0.37393  1.0000
  C   C927      1.0  0.87393  0.27103  0.15375  1.0000
  C   C928      1.0  0.87607  0.47897  0.15375  1.0000
  C   C929      1.0  0.77103  0.59625  0.37607  1.0000
  C   C930      1.0  0.87607  0.27103  0.59625  1.0000
  C   C931      1.0  0.97897  0.59625  0.37393  1.0000
  C   C932      1.0  0.97897  0.15375  0.37607  1.0000
  C   C933      1.0  0.87393  0.47897  0.59625  1.0000
  C   C934      1.0  0.09625  0.37607  0.27103  1.0000
  C   C935      1.0  0.65375  0.37607  0.47897  1.0000
  C   C936      1.0  0.09625  0.37393  0.47897  1.0000
  C   C937      1.0  0.15375  0.87393  0.27103  1.0000
  C   C938      1.0  0.27103  0.65375  0.37393  1.0000
  C   C939      1.0  0.37393  0.77103  0.15375  1.0000
  C   C940      1.0  0.37607  0.97897  0.15375  1.0000
  C   C941      1.0  0.27103  0.09625  0.37607  1.0000
  C   C942      1.0  0.37607  0.77103  0.59625  1.0000
  C   C943      1.0  0.47897  0.09625  0.37393  1.0000
  C   C944      1.0  0.47897  0.65375  0.37607  1.0000
  C   C945      1.0  0.37393  0.97897  0.59625  1.0000
  C   C946      1.0  0.59625  0.87607  0.27103  1.0000
  C   C947      1.0  0.15375  0.87607  0.47897  1.0000
  C   C948      1.0  0.59625  0.87393  0.47897  1.0000
  C   C949      1.0  0.15375  0.37393  0.77103  1.0000
  C   C950      1.0  0.27103  0.15375  0.87393  1.0000
  C   C951      1.0  0.37393  0.27103  0.65375  1.0000
  C   C952      1.0  0.37607  0.47897  0.65375  1.0000
  C   C953      1.0  0.27103  0.59625  0.87607  1.0000
  C   C954      1.0  0.37607  0.27103  0.09625  1.0000
  C   C955      1.0  0.47897  0.59625  0.87393  1.0000
  C   C956      1.0  0.47897  0.15375  0.87607  1.0000
  C   C957      1.0  0.37393  0.47897  0.09625  1.0000
  C   C958      1.0  0.59625  0.37607  0.77103  1.0000
  C   C959      1.0  0.15375  0.37607  0.97897  1.0000
  C   C960      1.0  0.59625  0.37393  0.97897  1.0000
  C   C961      1.0  0.36726  0.12577  0.20695  1.0000
  C   C962      1.0  0.20695  0.36726  0.12577  1.0000
  C   C963      1.0  0.12577  0.20695  0.36726  1.0000
  C   C964      1.0  0.12423  0.04305  0.36726  1.0000
  C   C965      1.0  0.20695  0.88274  0.12423  1.0000
  C   C966      1.0  0.12423  0.20695  0.88274  1.0000
  C   C967      1.0  0.04305  0.88274  0.12577  1.0000
  C   C968      1.0  0.04305  0.36726  0.12423  1.0000
  C   C969      1.0  0.12577  0.04305  0.88274  1.0000
  C   C970      1.0  0.88274  0.12423  0.20695  1.0000
  C   C971      1.0  0.36726  0.12423  0.04305  1.0000
  C   C972      1.0  0.88274  0.12577  0.04305  1.0000
  C   C973      1.0  0.36726  0.62577  0.70695  1.0000
  C   C974      1.0  0.20695  0.86726  0.62577  1.0000
  C   C975      1.0  0.12577  0.70695  0.86726  1.0000
  C   C976      1.0  0.12423  0.54305  0.86726  1.0000
  C   C977      1.0  0.20695  0.38274  0.62423  1.0000
  C   C978      1.0  0.12423  0.70695  0.38274  1.0000
  C   C979      1.0  0.04305  0.38274  0.62577  1.0000
  C   C980      1.0  0.04305  0.86726  0.62423  1.0000
  C   C981      1.0  0.12577  0.54305  0.38274  1.0000
  C   C982      1.0  0.88274  0.62423  0.70695  1.0000
  C   C983      1.0  0.36726  0.62423  0.54305  1.0000
  C   C984      1.0  0.88274  0.62577  0.54305  1.0000
  C   C985      1.0  0.86726  0.12577  0.70695  1.0000
  C   C986      1.0  0.70695  0.36726  0.62577  1.0000
  C   C987      1.0  0.62577  0.20695  0.86726  1.0000
  C   C988      1.0  0.62423  0.04305  0.86726  1.0000
  C   C989      1.0  0.70695  0.88274  0.62423  1.0000
  C   C990      1.0  0.62423  0.20695  0.38274  1.0000
  C   C991      1.0  0.54305  0.88274  0.62577  1.0000
  C   C992      1.0  0.54305  0.36726  0.62423  1.0000
  C   C993      1.0  0.62577  0.04305  0.38274  1.0000
  C   C994      1.0  0.38274  0.12423  0.70695  1.0000
  C   C995      1.0  0.86726  0.12423  0.54305  1.0000
  C   C996      1.0  0.38274  0.12577  0.54305  1.0000
  C   C997      1.0  0.86726  0.62577  0.20695  1.0000
  C   C998      1.0  0.70695  0.86726  0.12577  1.0000
  C   C999      1.0  0.62577  0.70695  0.36726  1.0000
  C   C1000     1.0  0.62423  0.54305  0.36726  1.0000
  C   C1001     1.0  0.70695  0.38274  0.12423  1.0000
  C   C1002     1.0  0.62423  0.70695  0.88274  1.0000
  C   C1003     1.0  0.54305  0.38274  0.12577  1.0000
  C   C1004     1.0  0.54305  0.86726  0.12423  1.0000
  C   C1005     1.0  0.62577  0.54305  0.88274  1.0000
  C   C1006     1.0  0.38274  0.62423  0.20695  1.0000
  C   C1007     1.0  0.86726  0.62423  0.04305  1.0000
  C   C1008     1.0  0.38274  0.62577  0.04305  1.0000
  C   C1009     1.0  0.63274  0.87423  0.79305  1.0000
  C   C1010     1.0  0.79305  0.63274  0.87423  1.0000
  C   C1011     1.0  0.87423  0.79305  0.63274  1.0000
  C   C1012     1.0  0.87577  0.95695  0.63274  1.0000
  C   C1013     1.0  0.79305  0.11726  0.87577  1.0000
  C   C1014     1.0  0.87577  0.79305  0.11726  1.0000
  C   C1015     1.0  0.95695  0.11726  0.87423  1.0000
  C   C1016     1.0  0.95695  0.63274  0.87577  1.0000
  C   C1017     1.0  0.87423  0.95695  0.11726  1.0000
  C   C1018     1.0  0.11726  0.87577  0.79305  1.0000
  C   C1019     1.0  0.63274  0.87577  0.95695  1.0000
  C   C1020     1.0  0.11726  0.87423  0.95695  1.0000
  C   C1021     1.0  0.63274  0.37423  0.29305  1.0000
  C   C1022     1.0  0.79305  0.13274  0.37423  1.0000
  C   C1023     1.0  0.87423  0.29305  0.13274  1.0000
  C   C1024     1.0  0.87577  0.45695  0.13274  1.0000
  C   C1025     1.0  0.79305  0.61726  0.37577  1.0000
  C   C1026     1.0  0.87577  0.29305  0.61726  1.0000
  C   C1027     1.0  0.95695  0.61726  0.37423  1.0000
  C   C1028     1.0  0.95695  0.13274  0.37577  1.0000
  C   C1029     1.0  0.87423  0.45695  0.61726  1.0000
  C   C1030     1.0  0.11726  0.37577  0.29305  1.0000
  C   C1031     1.0  0.63274  0.37577  0.45695  1.0000
  C   C1032     1.0  0.11726  0.37423  0.45695  1.0000
  C   C1033     1.0  0.13274  0.87423  0.29305  1.0000
  C   C1034     1.0  0.29305  0.63274  0.37423  1.0000
  C   C1035     1.0  0.37423  0.79305  0.13274  1.0000
  C   C1036     1.0  0.37577  0.95695  0.13274  1.0000
  C   C1037     1.0  0.29305  0.11726  0.37577  1.0000
  C   C1038     1.0  0.37577  0.79305  0.61726  1.0000
  C   C1039     1.0  0.45695  0.11726  0.37423  1.0000
  C   C1040     1.0  0.45695  0.63274  0.37577  1.0000
  C   C1041     1.0  0.37423  0.95695  0.61726  1.0000
  C   C1042     1.0  0.61726  0.87577  0.29305  1.0000
  C   C1043     1.0  0.13274  0.87577  0.45695  1.0000
  C   C1044     1.0  0.61726  0.87423  0.45695  1.0000
  C   C1045     1.0  0.13274  0.37423  0.79305  1.0000
  C   C1046     1.0  0.29305  0.13274  0.87423  1.0000
  C   C1047     1.0  0.37423  0.29305  0.63274  1.0000
  C   C1048     1.0  0.37577  0.45695  0.63274  1.0000
  C   C1049     1.0  0.29305  0.61726  0.87577  1.0000
  C   C1050     1.0  0.37577  0.29305  0.11726  1.0000
  C   C1051     1.0  0.45695  0.61726  0.87423  1.0000
  C   C1052     1.0  0.45695  0.13274  0.87577  1.0000
  C   C1053     1.0  0.37423  0.45695  0.11726  1.0000
  C   C1054     1.0  0.61726  0.37577  0.79305  1.0000
  C   C1055     1.0  0.13274  0.37577  0.95695  1.0000
  C   C1056     1.0  0.61726  0.37423  0.95695  1.0000
  H   H417      1.0  0.36560  0.11230  0.19120  1.0000
  H   H418      1.0  0.19120  0.36560  0.11230  1.0000
  H   H419      1.0  0.11230  0.19120  0.36560  1.0000
  H   H420      1.0  0.13770  0.05880  0.36560  1.0000
  H   H421      1.0  0.19120  0.88440  0.13770  1.0000
  H   H422      1.0  0.13770  0.19120  0.88440  1.0000
  H   H423      1.0  0.05880  0.88440  0.11230  1.0000
  H   H424      1.0  0.05880  0.36560  0.13770  1.0000
  H   H425      1.0  0.11230  0.05880  0.88440  1.0000
  H   H426      1.0  0.88440  0.13770  0.19120  1.0000
  H   H427      1.0  0.36560  0.13770  0.05880  1.0000
  H   H428      1.0  0.88440  0.11230  0.05880  1.0000
  H   H429      1.0  0.36560  0.61230  0.69120  1.0000
  H   H430      1.0  0.19120  0.86560  0.61230  1.0000
  H   H431      1.0  0.11230  0.69120  0.86560  1.0000
  H   H432      1.0  0.13770  0.55880  0.86560  1.0000
  H   H433      1.0  0.19120  0.38440  0.63770  1.0000
  H   H434      1.0  0.13770  0.69120  0.38440  1.0000
  H   H435      1.0  0.05880  0.38440  0.61230  1.0000
  H   H436      1.0  0.05880  0.86560  0.63770  1.0000
  H   H437      1.0  0.11230  0.55880  0.38440  1.0000
  H   H438      1.0  0.88440  0.63770  0.69120  1.0000
  H   H439      1.0  0.36560  0.63770  0.55880  1.0000
  H   H440      1.0  0.88440  0.61230  0.55880  1.0000
  H   H441      1.0  0.86560  0.11230  0.69120  1.0000
  H   H442      1.0  0.69120  0.36560  0.61230  1.0000
  H   H443      1.0  0.61230  0.19120  0.86560  1.0000
  H   H444      1.0  0.63770  0.05880  0.86560  1.0000
  H   H445      1.0  0.69120  0.88440  0.63770  1.0000
  H   H446      1.0  0.63770  0.19120  0.38440  1.0000
  H   H447      1.0  0.55880  0.88440  0.61230  1.0000
  H   H448      1.0  0.55880  0.36560  0.63770  1.0000
  H   H449      1.0  0.61230  0.05880  0.38440  1.0000
  H   H450      1.0  0.38440  0.13770  0.69120  1.0000
  H   H451      1.0  0.86560  0.13770  0.55880  1.0000
  H   H452      1.0  0.38440  0.11230  0.55880  1.0000
  H   H453      1.0  0.86560  0.61230  0.19120  1.0000
  H   H454      1.0  0.69120  0.86560  0.11230  1.0000
  H   H455      1.0  0.61230  0.69120  0.36560  1.0000
  H   H456      1.0  0.63770  0.55880  0.36560  1.0000
  H   H457      1.0  0.69120  0.38440  0.13770  1.0000
  H   H458      1.0  0.63770  0.69120  0.88440  1.0000
  H   H459      1.0  0.55880  0.38440  0.11230  1.0000
  H   H460      1.0  0.55880  0.86560  0.13770  1.0000
  H   H461      1.0  0.61230  0.55880  0.88440  1.0000
  H   H462      1.0  0.38440  0.63770  0.19120  1.0000
  H   H463      1.0  0.86560  0.63770  0.05880  1.0000
  H   H464      1.0  0.38440  0.61230  0.05880  1.0000
  H   H465      1.0  0.63440  0.88770  0.80880  1.0000
  H   H466      1.0  0.80880  0.63440  0.88770  1.0000
  H   H467      1.0  0.88770  0.80880  0.63440  1.0000
  H   H468      1.0  0.86230  0.94120  0.63440  1.0000
  H   H469      1.0  0.80880  0.11560  0.86230  1.0000
  H   H470      1.0  0.86230  0.80880  0.11560  1.0000
  H   H471      1.0  0.94120  0.11560  0.88770  1.0000
  H   H472      1.0  0.94120  0.63440  0.86230  1.0000
  H   H473      1.0  0.88770  0.94120  0.11560  1.0000
  H   H474      1.0  0.11560  0.86230  0.80880  1.0000
  H   H475      1.0  0.63440  0.86230  0.94120  1.0000
  H   H476      1.0  0.11560  0.88770  0.94120  1.0000
  H   H477      1.0  0.63440  0.38770  0.30880  1.0000
  H   H478      1.0  0.80880  0.13440  0.38770  1.0000
  H   H479      1.0  0.88770  0.30880  0.13440  1.0000
  H   H480      1.0  0.86230  0.44120  0.13440  1.0000
  H   H481      1.0  0.80880  0.61560  0.36230  1.0000
  H   H482      1.0  0.86230  0.30880  0.61560  1.0000
  H   H483      1.0  0.94120  0.61560  0.38770  1.0000
  H   H484      1.0  0.94120  0.13440  0.36230  1.0000
  H   H485      1.0  0.88770  0.44120  0.61560  1.0000
  H   H486      1.0  0.11560  0.36230  0.30880  1.0000
  H   H487      1.0  0.63440  0.36230  0.44120  1.0000
  H   H488      1.0  0.11560  0.38770  0.44120  1.0000
  H   H489      1.0  0.13440  0.88770  0.30880  1.0000
  H   H490      1.0  0.30880  0.63440  0.38770  1.0000
  H   H491      1.0  0.38770  0.80880  0.13440  1.0000
  H   H492      1.0  0.36230  0.94120  0.13440  1.0000
  H   H493      1.0  0.30880  0.11560  0.36230  1.0000
  H   H494      1.0  0.36230  0.80880  0.61560  1.0000
  H   H495      1.0  0.44120  0.11560  0.38770  1.0000
  H   H496      1.0  0.44120  0.63440  0.36230  1.0000
  H   H497      1.0  0.38770  0.94120  0.61560  1.0000
  H   H498      1.0  0.61560  0.86230  0.30880  1.0000
  H   H499      1.0  0.13440  0.86230  0.44120  1.0000
  H   H500      1.0  0.61560  0.88770  0.44120  1.0000
  H   H501      1.0  0.13440  0.38770  0.80880  1.0000
  H   H502      1.0  0.30880  0.13440  0.88770  1.0000
  H   H503      1.0  0.38770  0.30880  0.63440  1.0000
  H   H504      1.0  0.36230  0.44120  0.63440  1.0000
  H   H505      1.0  0.30880  0.61560  0.86230  1.0000
  H   H506      1.0  0.36230  0.30880  0.11560  1.0000
  H   H507      1.0  0.44120  0.61560  0.88770  1.0000
  H   H508      1.0  0.44120  0.13440  0.86230  1.0000
  H   H509      1.0  0.38770  0.44120  0.11560  1.0000
  H   H510      1.0  0.61560  0.36230  0.80880  1.0000
  H   H511      1.0  0.13440  0.36230  0.94120  1.0000
  H   H512      1.0  0.61560  0.38770  0.94120  1.0000
  C   C1057     1.0  0.39068  0.14519  0.20798  1.0000
  C   C1058     1.0  0.20798  0.39068  0.14519  1.0000
  C   C1059     1.0  0.14519  0.20798  0.39068  1.0000
  C   C1060     1.0  0.10481  0.04202  0.39068  1.0000
  C   C1061     1.0  0.20798  0.85932  0.10481  1.0000
  C   C1062     1.0  0.10481  0.20798  0.85932  1.0000
  C   C1063     1.0  0.04202  0.85932  0.14519  1.0000
  C   C1064     1.0  0.04202  0.39068  0.10481  1.0000
  C   C1065     1.0  0.14519  0.04202  0.85932  1.0000
  C   C1066     1.0  0.85932  0.10481  0.20798  1.0000
  C   C1067     1.0  0.39068  0.10481  0.04202  1.0000
  C   C1068     1.0  0.85932  0.14519  0.04202  1.0000
  C   C1069     1.0  0.39068  0.64519  0.70798  1.0000
  C   C1070     1.0  0.20798  0.89068  0.64519  1.0000
  C   C1071     1.0  0.14519  0.70798  0.89068  1.0000
  C   C1072     1.0  0.10481  0.54202  0.89068  1.0000
  C   C1073     1.0  0.20798  0.35932  0.60481  1.0000
  C   C1074     1.0  0.10481  0.70798  0.35932  1.0000
  C   C1075     1.0  0.04202  0.35932  0.64519  1.0000
  C   C1076     1.0  0.04202  0.89068  0.60481  1.0000
  C   C1077     1.0  0.14519  0.54202  0.35932  1.0000
  C   C1078     1.0  0.85932  0.60481  0.70798  1.0000
  C   C1079     1.0  0.39068  0.60481  0.54202  1.0000
  C   C1080     1.0  0.85932  0.64519  0.54202  1.0000
  C   C1081     1.0  0.89068  0.14519  0.70798  1.0000
  C   C1082     1.0  0.70798  0.39068  0.64519  1.0000
  C   C1083     1.0  0.64519  0.20798  0.89068  1.0000
  C   C1084     1.0  0.60481  0.04202  0.89068  1.0000
  C   C1085     1.0  0.70798  0.85932  0.60481  1.0000
  C   C1086     1.0  0.60481  0.20798  0.35932  1.0000
  C   C1087     1.0  0.54202  0.85932  0.64519  1.0000
  C   C1088     1.0  0.54202  0.39068  0.60481  1.0000
  C   C1089     1.0  0.64519  0.04202  0.35932  1.0000
  C   C1090     1.0  0.35932  0.10481  0.70798  1.0000
  C   C1091     1.0  0.89068  0.10481  0.54202  1.0000
  C   C1092     1.0  0.35932  0.14519  0.54202  1.0000
  C   C1093     1.0  0.89068  0.64519  0.20798  1.0000
  C   C1094     1.0  0.70798  0.89068  0.14519  1.0000
  C   C1095     1.0  0.64519  0.70798  0.39068  1.0000
  C   C1096     1.0  0.60481  0.54202  0.39068  1.0000
  C   C1097     1.0  0.70798  0.35932  0.10481  1.0000
  C   C1098     1.0  0.60481  0.70798  0.85932  1.0000
  C   C1099     1.0  0.54202  0.35932  0.14519  1.0000
  C   C1100     1.0  0.54202  0.89068  0.10481  1.0000
  C   C1101     1.0  0.64519  0.54202  0.85932  1.0000
  C   C1102     1.0  0.35932  0.60481  0.20798  1.0000
  C   C1103     1.0  0.89068  0.60481  0.04202  1.0000
  C   C1104     1.0  0.35932  0.64519  0.04202  1.0000
  C   C1105     1.0  0.60932  0.85481  0.79202  1.0000
  C   C1106     1.0  0.79202  0.60932  0.85481  1.0000
  C   C1107     1.0  0.85481  0.79202  0.60932  1.0000
  C   C1108     1.0  0.89519  0.95798  0.60932  1.0000
  C   C1109     1.0  0.79202  0.14068  0.89519  1.0000
  C   C1110     1.0  0.89519  0.79202  0.14068  1.0000
  C   C1111     1.0  0.95798  0.14068  0.85481  1.0000
  C   C1112     1.0  0.95798  0.60932  0.89519  1.0000
  C   C1113     1.0  0.85481  0.95798  0.14068  1.0000
  C   C1114     1.0  0.14068  0.89519  0.79202  1.0000
  C   C1115     1.0  0.60932  0.89519  0.95798  1.0000
  C   C1116     1.0  0.14068  0.85481  0.95798  1.0000
  C   C1117     1.0  0.60932  0.35481  0.29202  1.0000
  C   C1118     1.0  0.79202  0.10932  0.35481  1.0000
  C   C1119     1.0  0.85481  0.29202  0.10932  1.0000
  C   C1120     1.0  0.89519  0.45798  0.10932  1.0000
  C   C1121     1.0  0.79202  0.64068  0.39519  1.0000
  C   C1122     1.0  0.89519  0.29202  0.64068  1.0000
  C   C1123     1.0  0.95798  0.64068  0.35481  1.0000
  C   C1124     1.0  0.95798  0.10932  0.39519  1.0000
  C   C1125     1.0  0.85481  0.45798  0.64068  1.0000
  C   C1126     1.0  0.14068  0.39519  0.29202  1.0000
  C   C1127     1.0  0.60932  0.39519  0.45798  1.0000
  C   C1128     1.0  0.14068  0.35481  0.45798  1.0000
  C   C1129     1.0  0.10932  0.85481  0.29202  1.0000
  C   C1130     1.0  0.29202  0.60932  0.35481  1.0000
  C   C1131     1.0  0.35481  0.79202  0.10932  1.0000
  C   C1132     1.0  0.39519  0.95798  0.10932  1.0000
  C   C1133     1.0  0.29202  0.14068  0.39519  1.0000
  C   C1134     1.0  0.39519  0.79202  0.64068  1.0000
  C   C1135     1.0  0.45798  0.14068  0.35481  1.0000
  C   C1136     1.0  0.45798  0.60932  0.39519  1.0000
  C   C1137     1.0  0.35481  0.95798  0.64068  1.0000
  C   C1138     1.0  0.64068  0.89519  0.29202  1.0000
  C   C1139     1.0  0.10932  0.89519  0.45798  1.0000
  C   C1140     1.0  0.64068  0.85481  0.45798  1.0000
  C   C1141     1.0  0.10932  0.35481  0.79202  1.0000
  C   C1142     1.0  0.29202  0.10932  0.85481  1.0000
  C   C1143     1.0  0.35481  0.29202  0.60932  1.0000
  C   C1144     1.0  0.39519  0.45798  0.60932  1.0000
  C   C1145     1.0  0.29202  0.64068  0.89519  1.0000
  C   C1146     1.0  0.39519  0.29202  0.14068  1.0000
  C   C1147     1.0  0.45798  0.64068  0.85481  1.0000
  C   C1148     1.0  0.45798  0.10932  0.89519  1.0000
  C   C1149     1.0  0.35481  0.45798  0.14068  1.0000
  C   C1150     1.0  0.64068  0.39519  0.79202  1.0000
  C   C1151     1.0  0.10932  0.39519  0.95798  1.0000
  C   C1152     1.0  0.64068  0.35481  0.95798  1.0000
  H   H513      1.0  0.40500  0.14500  0.19290  1.0000
  H   H514      1.0  0.19290  0.40500  0.14500  1.0000
  H   H515      1.0  0.14500  0.19290  0.40500  1.0000
  H   H516      1.0  0.10500  0.05710  0.40500  1.0000
  H   H517      1.0  0.19290  0.84500  0.10500  1.0000
  H   H518      1.0  0.10500  0.19290  0.84500  1.0000
  H   H519      1.0  0.05710  0.84500  0.14500  1.0000
  H   H520      1.0  0.05710  0.40500  0.10500  1.0000
  H   H521      1.0  0.14500  0.05710  0.84500  1.0000
  H   H522      1.0  0.84500  0.10500  0.19290  1.0000
  H   H523      1.0  0.40500  0.10500  0.05710  1.0000
  H   H524      1.0  0.84500  0.14500  0.05710  1.0000
  H   H525      1.0  0.40500  0.64500  0.69290  1.0000
  H   H526      1.0  0.19290  0.90500  0.64500  1.0000
  H   H527      1.0  0.14500  0.69290  0.90500  1.0000
  H   H528      1.0  0.10500  0.55710  0.90500  1.0000
  H   H529      1.0  0.19290  0.34500  0.60500  1.0000
  H   H530      1.0  0.10500  0.69290  0.34500  1.0000
  H   H531      1.0  0.05710  0.34500  0.64500  1.0000
  H   H532      1.0  0.05710  0.90500  0.60500  1.0000
  H   H533      1.0  0.14500  0.55710  0.34500  1.0000
  H   H534      1.0  0.84500  0.60500  0.69290  1.0000
  H   H535      1.0  0.40500  0.60500  0.55710  1.0000
  H   H536      1.0  0.84500  0.64500  0.55710  1.0000
  H   H537      1.0  0.90500  0.14500  0.69290  1.0000
  H   H538      1.0  0.69290  0.40500  0.64500  1.0000
  H   H539      1.0  0.64500  0.19290  0.90500  1.0000
  H   H540      1.0  0.60500  0.05710  0.90500  1.0000
  H   H541      1.0  0.69290  0.84500  0.60500  1.0000
  H   H542      1.0  0.60500  0.19290  0.34500  1.0000
  H   H543      1.0  0.55710  0.84500  0.64500  1.0000
  H   H544      1.0  0.55710  0.40500  0.60500  1.0000
  H   H545      1.0  0.64500  0.05710  0.34500  1.0000
  H   H546      1.0  0.34500  0.10500  0.69290  1.0000
  H   H547      1.0  0.90500  0.10500  0.55710  1.0000
  H   H548      1.0  0.34500  0.14500  0.55710  1.0000
  H   H549      1.0  0.90500  0.64500  0.19290  1.0000
  H   H550      1.0  0.69290  0.90500  0.14500  1.0000
  H   H551      1.0  0.64500  0.69290  0.40500  1.0000
  H   H552      1.0  0.60500  0.55710  0.40500  1.0000
  H   H553      1.0  0.69290  0.34500  0.10500  1.0000
  H   H554      1.0  0.60500  0.69290  0.84500  1.0000
  H   H555      1.0  0.55710  0.34500  0.14500  1.0000
  H   H556      1.0  0.55710  0.90500  0.10500  1.0000
  H   H557      1.0  0.64500  0.55710  0.84500  1.0000
  H   H558      1.0  0.34500  0.60500  0.19290  1.0000
  H   H559      1.0  0.90500  0.60500  0.05710  1.0000
  H   H560      1.0  0.34500  0.64500  0.05710  1.0000
  H   H561      1.0  0.59500  0.85500  0.80710  1.0000
  H   H562      1.0  0.80710  0.59500  0.85500  1.0000
  H   H563      1.0  0.85500  0.80710  0.59500  1.0000
  H   H564      1.0  0.89500  0.94290  0.59500  1.0000
  H   H565      1.0  0.80710  0.15500  0.89500  1.0000
  H   H566      1.0  0.89500  0.80710  0.15500  1.0000
  H   H567      1.0  0.94290  0.15500  0.85500  1.0000
  H   H568      1.0  0.94290  0.59500  0.89500  1.0000
  H   H569      1.0  0.85500  0.94290  0.15500  1.0000
  H   H570      1.0  0.15500  0.89500  0.80710  1.0000
  H   H571      1.0  0.59500  0.89500  0.94290  1.0000
  H   H572      1.0  0.15500  0.85500  0.94290  1.0000
  H   H573      1.0  0.59500  0.35500  0.30710  1.0000
  H   H574      1.0  0.80710  0.09500  0.35500  1.0000
  H   H575      1.0  0.85500  0.30710  0.09500  1.0000
  H   H576      1.0  0.89500  0.44290  0.09500  1.0000
  H   H577      1.0  0.80710  0.65500  0.39500  1.0000
  H   H578      1.0  0.89500  0.30710  0.65500  1.0000
  H   H579      1.0  0.94290  0.65500  0.35500  1.0000
  H   H580      1.0  0.94290  0.09500  0.39500  1.0000
  H   H581      1.0  0.85500  0.44290  0.65500  1.0000
  H   H582      1.0  0.15500  0.39500  0.30710  1.0000
  H   H583      1.0  0.59500  0.39500  0.44290  1.0000
  H   H584      1.0  0.15500  0.35500  0.44290  1.0000
  H   H585      1.0  0.09500  0.85500  0.30710  1.0000
  H   H586      1.0  0.30710  0.59500  0.35500  1.0000
  H   H587      1.0  0.35500  0.80710  0.09500  1.0000
  H   H588      1.0  0.39500  0.94290  0.09500  1.0000
  H   H589      1.0  0.30710  0.15500  0.39500  1.0000
  H   H590      1.0  0.39500  0.80710  0.65500  1.0000
  H   H591      1.0  0.44290  0.15500  0.35500  1.0000
  H   H592      1.0  0.44290  0.59500  0.39500  1.0000
  H   H593      1.0  0.35500  0.94290  0.65500  1.0000
  H   H594      1.0  0.65500  0.89500  0.30710  1.0000
  H   H595      1.0  0.09500  0.89500  0.44290  1.0000
  H   H596      1.0  0.65500  0.85500  0.44290  1.0000
  H   H597      1.0  0.09500  0.35500  0.80710  1.0000
  H   H598      1.0  0.30710  0.09500  0.85500  1.0000
  H   H599      1.0  0.35500  0.30710  0.59500  1.0000
  H   H600      1.0  0.39500  0.44290  0.59500  1.0000
  H   H601      1.0  0.30710  0.65500  0.89500  1.0000
  H   H602      1.0  0.39500  0.30710  0.15500  1.0000
  H   H603      1.0  0.44290  0.65500  0.85500  1.0000
  H   H604      1.0  0.44290  0.09500  0.89500  1.0000
  H   H605      1.0  0.35500  0.44290  0.15500  1.0000
  H   H606      1.0  0.65500  0.39500  0.80710  1.0000
  H   H607      1.0  0.09500  0.39500  0.94290  1.0000
  H   H608      1.0  0.65500  0.35500  0.94290  1.0000
  C   C1153     1.0  0.32033  0.10533  0.22772  1.0000
  C   C1154     1.0  0.22772  0.32033  0.10533  1.0000
  C   C1155     1.0  0.10533  0.22772  0.32033  1.0000
  C   C1156     1.0  0.14467  0.02228  0.32033  1.0000
  C   C1157     1.0  0.22772  0.92967  0.14467  1.0000
  C   C1158     1.0  0.14467  0.22772  0.92967  1.0000
  C   C1159     1.0  0.02228  0.92967  0.10533  1.0000
  C   C1160     1.0  0.02228  0.32033  0.14467  1.0000
  C   C1161     1.0  0.10533  0.02228  0.92967  1.0000
  C   C1162     1.0  0.92967  0.14467  0.22772  1.0000
  C   C1163     1.0  0.32033  0.14467  0.02228  1.0000
  C   C1164     1.0  0.92967  0.10533  0.02228  1.0000
  C   C1165     1.0  0.32033  0.60533  0.72772  1.0000
  C   C1166     1.0  0.22772  0.82033  0.60533  1.0000
  C   C1167     1.0  0.10533  0.72772  0.82033  1.0000
  C   C1168     1.0  0.14467  0.52228  0.82033  1.0000
  C   C1169     1.0  0.22772  0.42967  0.64467  1.0000
  C   C1170     1.0  0.14467  0.72772  0.42967  1.0000
  C   C1171     1.0  0.02228  0.42967  0.60533  1.0000
  C   C1172     1.0  0.02228  0.82033  0.64467  1.0000
  C   C1173     1.0  0.10533  0.52228  0.42967  1.0000
  C   C1174     1.0  0.92967  0.64467  0.72772  1.0000
  C   C1175     1.0  0.32033  0.64467  0.52228  1.0000
  C   C1176     1.0  0.92967  0.60533  0.52228  1.0000
  C   C1177     1.0  0.82033  0.10533  0.72772  1.0000
  C   C1178     1.0  0.72772  0.32033  0.60533  1.0000
  C   C1179     1.0  0.60533  0.22772  0.82033  1.0000
  C   C1180     1.0  0.64467  0.02228  0.82033  1.0000
  C   C1181     1.0  0.72772  0.92967  0.64467  1.0000
  C   C1182     1.0  0.64467  0.22772  0.42967  1.0000
  C   C1183     1.0  0.52228  0.92967  0.60533  1.0000
  C   C1184     1.0  0.52228  0.32033  0.64467  1.0000
  C   C1185     1.0  0.60533  0.02228  0.42967  1.0000
  C   C1186     1.0  0.42967  0.14467  0.72772  1.0000
  C   C1187     1.0  0.82033  0.14467  0.52228  1.0000
  C   C1188     1.0  0.42967  0.10533  0.52228  1.0000
  C   C1189     1.0  0.82033  0.60533  0.22772  1.0000
  C   C1190     1.0  0.72772  0.82033  0.10533  1.0000
  C   C1191     1.0  0.60533  0.72772  0.32033  1.0000
  C   C1192     1.0  0.64467  0.52228  0.32033  1.0000
  C   C1193     1.0  0.72772  0.42967  0.14467  1.0000
  C   C1194     1.0  0.64467  0.72772  0.92967  1.0000
  C   C1195     1.0  0.52228  0.42967  0.10533  1.0000
  C   C1196     1.0  0.52228  0.82033  0.14467  1.0000
  C   C1197     1.0  0.60533  0.52228  0.92967  1.0000
  C   C1198     1.0  0.42967  0.64467  0.22772  1.0000
  C   C1199     1.0  0.82033  0.64467  0.02228  1.0000
  C   C1200     1.0  0.42967  0.60533  0.02228  1.0000
  C   C1201     1.0  0.67967  0.89467  0.77228  1.0000
  C   C1202     1.0  0.77228  0.67967  0.89467  1.0000
  C   C1203     1.0  0.89467  0.77228  0.67967  1.0000
  C   C1204     1.0  0.85533  0.97772  0.67967  1.0000
  C   C1205     1.0  0.77228  0.07033  0.85533  1.0000
  C   C1206     1.0  0.85533  0.77228  0.07033  1.0000
  C   C1207     1.0  0.97772  0.07033  0.89467  1.0000
  C   C1208     1.0  0.97772  0.67967  0.85533  1.0000
  C   C1209     1.0  0.89467  0.97772  0.07033  1.0000
  C   C1210     1.0  0.07033  0.85533  0.77228  1.0000
  C   C1211     1.0  0.67967  0.85533  0.97772  1.0000
  C   C1212     1.0  0.07033  0.89467  0.97772  1.0000
  C   C1213     1.0  0.67967  0.39467  0.27228  1.0000
  C   C1214     1.0  0.77228  0.17967  0.39467  1.0000
  C   C1215     1.0  0.89467  0.27228  0.17967  1.0000
  C   C1216     1.0  0.85533  0.47772  0.17967  1.0000
  C   C1217     1.0  0.77228  0.57033  0.35533  1.0000
  C   C1218     1.0  0.85533  0.27228  0.57033  1.0000
  C   C1219     1.0  0.97772  0.57033  0.39467  1.0000
  C   C1220     1.0  0.97772  0.17967  0.35533  1.0000
  C   C1221     1.0  0.89467  0.47772  0.57033  1.0000
  C   C1222     1.0  0.07033  0.35533  0.27228  1.0000
  C   C1223     1.0  0.67967  0.35533  0.47772  1.0000
  C   C1224     1.0  0.07033  0.39467  0.47772  1.0000
  C   C1225     1.0  0.17967  0.89467  0.27228  1.0000
  C   C1226     1.0  0.27228  0.67967  0.39467  1.0000
  C   C1227     1.0  0.39467  0.77228  0.17967  1.0000
  C   C1228     1.0  0.35533  0.97772  0.17967  1.0000
  C   C1229     1.0  0.27228  0.07033  0.35533  1.0000
  C   C1230     1.0  0.35533  0.77228  0.57033  1.0000
  C   C1231     1.0  0.47772  0.07033  0.39467  1.0000
  C   C1232     1.0  0.47772  0.67967  0.35533  1.0000
  C   C1233     1.0  0.39467  0.97772  0.57033  1.0000
  C   C1234     1.0  0.57033  0.85533  0.27228  1.0000
  C   C1235     1.0  0.17967  0.85533  0.47772  1.0000
  C   C1236     1.0  0.57033  0.89467  0.47772  1.0000
  C   C1237     1.0  0.17967  0.39467  0.77228  1.0000
  C   C1238     1.0  0.27228  0.17967  0.89467  1.0000
  C   C1239     1.0  0.39467  0.27228  0.67967  1.0000
  C   C1240     1.0  0.35533  0.47772  0.67967  1.0000
  C   C1241     1.0  0.27228  0.57033  0.85533  1.0000
  C   C1242     1.0  0.35533  0.27228  0.07033  1.0000
  C   C1243     1.0  0.47772  0.57033  0.89467  1.0000
  C   C1244     1.0  0.47772  0.17967  0.85533  1.0000
  C   C1245     1.0  0.39467  0.47772  0.07033  1.0000
  C   C1246     1.0  0.57033  0.35533  0.77228  1.0000
  C   C1247     1.0  0.17967  0.35533  0.97772  1.0000
  C   C1248     1.0  0.57033  0.39467  0.97772  1.0000
  C   C1249     1.0  0.30882  0.09457  0.25377  1.0000
  C   C1250     1.0  0.25377  0.30882  0.09457  1.0000
  C   C1251     1.0  0.09457  0.25377  0.30882  1.0000
  C   C1252     1.0  0.15543  0.99623  0.30882  1.0000
  C   C1253     1.0  0.25377  0.94118  0.15543  1.0000
  C   C1254     1.0  0.15543  0.25377  0.94118  1.0000
  C   C1255     1.0  0.99623  0.94118  0.09457  1.0000
  C   C1256     1.0  0.99623  0.30882  0.15543  1.0000
  C   C1257     1.0  0.09457  0.99623  0.94118  1.0000
  C   C1258     1.0  0.94118  0.15543  0.25377  1.0000
  C   C1259     1.0  0.30882  0.15543  0.99623  1.0000
  C   C1260     1.0  0.94118  0.09457  0.99623  1.0000
  C   C1261     1.0  0.30882  0.59457  0.75377  1.0000
  C   C1262     1.0  0.25377  0.80882  0.59457  1.0000
  C   C1263     1.0  0.09457  0.75377  0.80882  1.0000
  C   C1264     1.0  0.15543  0.49623  0.80882  1.0000
  C   C1265     1.0  0.25377  0.44118  0.65543  1.0000
  C   C1266     1.0  0.15543  0.75377  0.44118  1.0000
  C   C1267     1.0  0.99623  0.44118  0.59457  1.0000
  C   C1268     1.0  0.99623  0.80882  0.65543  1.0000
  C   C1269     1.0  0.09457  0.49623  0.44118  1.0000
  C   C1270     1.0  0.94118  0.65543  0.75377  1.0000
  C   C1271     1.0  0.30882  0.65543  0.49623  1.0000
  C   C1272     1.0  0.94118  0.59457  0.49623  1.0000
  C   C1273     1.0  0.80882  0.09457  0.75377  1.0000
  C   C1274     1.0  0.75377  0.30882  0.59457  1.0000
  C   C1275     1.0  0.59457  0.25377  0.80882  1.0000
  C   C1276     1.0  0.65543  0.99623  0.80882  1.0000
  C   C1277     1.0  0.75377  0.94118  0.65543  1.0000
  C   C1278     1.0  0.65543  0.25377  0.44118  1.0000
  C   C1279     1.0  0.49623  0.94118  0.59457  1.0000
  C   C1280     1.0  0.49623  0.30882  0.65543  1.0000
  C   C1281     1.0  0.59457  0.99623  0.44118  1.0000
  C   C1282     1.0  0.44118  0.15543  0.75377  1.0000
  C   C1283     1.0  0.80882  0.15543  0.49623  1.0000
  C   C1284     1.0  0.44118  0.09457  0.49623  1.0000
  C   C1285     1.0  0.80882  0.59457  0.25377  1.0000
  C   C1286     1.0  0.75377  0.80882  0.09457  1.0000
  C   C1287     1.0  0.59457  0.75377  0.30882  1.0000
  C   C1288     1.0  0.65543  0.49623  0.30882  1.0000
  C   C1289     1.0  0.75377  0.44118  0.15543  1.0000
  C   C1290     1.0  0.65543  0.75377  0.94118  1.0000
  C   C1291     1.0  0.49623  0.44118  0.09457  1.0000
  C   C1292     1.0  0.49623  0.80882  0.15543  1.0000
  C   C1293     1.0  0.59457  0.49623  0.94118  1.0000
  C   C1294     1.0  0.44118  0.65543  0.25377  1.0000
  C   C1295     1.0  0.80882  0.65543  0.99623  1.0000
  C   C1296     1.0  0.44118  0.59457  0.99623  1.0000
  C   C1297     1.0  0.69118  0.90543  0.74623  1.0000
  C   C1298     1.0  0.74623  0.69118  0.90543  1.0000
  C   C1299     1.0  0.90543  0.74623  0.69118  1.0000
  C   C1300     1.0  0.84457  0.00377  0.69118  1.0000
  C   C1301     1.0  0.74623  0.05882  0.84457  1.0000
  C   C1302     1.0  0.84457  0.74623  0.05882  1.0000
  C   C1303     1.0  0.00377  0.05882  0.90543  1.0000
  C   C1304     1.0  0.00377  0.69118  0.84457  1.0000
  C   C1305     1.0  0.90543  0.00377  0.05882  1.0000
  C   C1306     1.0  0.05882  0.84457  0.74623  1.0000
  C   C1307     1.0  0.69118  0.84457  0.00377  1.0000
  C   C1308     1.0  0.05882  0.90543  0.00377  1.0000
  C   C1309     1.0  0.69118  0.40543  0.24623  1.0000
  C   C1310     1.0  0.74623  0.19118  0.40543  1.0000
  C   C1311     1.0  0.90543  0.24623  0.19118  1.0000
  C   C1312     1.0  0.84457  0.50377  0.19118  1.0000
  C   C1313     1.0  0.74623  0.55882  0.34457  1.0000
  C   C1314     1.0  0.84457  0.24623  0.55882  1.0000
  C   C1315     1.0  0.00377  0.55882  0.40543  1.0000
  C   C1316     1.0  0.00377  0.19118  0.34457  1.0000
  C   C1317     1.0  0.90543  0.50377  0.55882  1.0000
  C   C1318     1.0  0.05882  0.34457  0.24623  1.0000
  C   C1319     1.0  0.69118  0.34457  0.50377  1.0000
  C   C1320     1.0  0.05882  0.40543  0.50377  1.0000
  C   C1321     1.0  0.19118  0.90543  0.24623  1.0000
  C   C1322     1.0  0.24623  0.69118  0.40543  1.0000
  C   C1323     1.0  0.40543  0.74623  0.19118  1.0000
  C   C1324     1.0  0.34457  0.00377  0.19118  1.0000
  C   C1325     1.0  0.24623  0.05882  0.34457  1.0000
  C   C1326     1.0  0.34457  0.74623  0.55882  1.0000
  C   C1327     1.0  0.50377  0.05882  0.40543  1.0000
  C   C1328     1.0  0.50377  0.69118  0.34457  1.0000
  C   C1329     1.0  0.40543  0.00377  0.55882  1.0000
  C   C1330     1.0  0.55882  0.84457  0.24623  1.0000
  C   C1331     1.0  0.19118  0.84457  0.50377  1.0000
  C   C1332     1.0  0.55882  0.90543  0.50377  1.0000
  C   C1333     1.0  0.19118  0.40543  0.74623  1.0000
  C   C1334     1.0  0.24623  0.19118  0.90543  1.0000
  C   C1335     1.0  0.40543  0.24623  0.69118  1.0000
  C   C1336     1.0  0.34457  0.50377  0.69118  1.0000
  C   C1337     1.0  0.24623  0.55882  0.84457  1.0000
  C   C1338     1.0  0.34457  0.24623  0.05882  1.0000
  C   C1339     1.0  0.50377  0.55882  0.90543  1.0000
  C   C1340     1.0  0.50377  0.19118  0.84457  1.0000
  C   C1341     1.0  0.40543  0.50377  0.05882  1.0000
  C   C1342     1.0  0.55882  0.34457  0.74623  1.0000
  C   C1343     1.0  0.19118  0.34457  0.00377  1.0000
  C   C1344     1.0  0.55882  0.40543  0.00377  1.0000
  H   H609      1.0  0.31710  0.10040  0.27200  1.0000
  H   H610      1.0  0.27200  0.31710  0.10040  1.0000
  H   H611      1.0  0.10040  0.27200  0.31710  1.0000
  H   H612      1.0  0.14960  0.97800  0.31710  1.0000
  H   H613      1.0  0.27200  0.93290  0.14960  1.0000
  H   H614      1.0  0.14960  0.27200  0.93290  1.0000
  H   H615      1.0  0.97800  0.93290  0.10040  1.0000
  H   H616      1.0  0.97800  0.31710  0.14960  1.0000
  H   H617      1.0  0.10040  0.97800  0.93290  1.0000
  H   H618      1.0  0.93290  0.14960  0.27200  1.0000
  H   H619      1.0  0.31710  0.14960  0.97800  1.0000
  H   H620      1.0  0.93290  0.10040  0.97800  1.0000
  H   H621      1.0  0.31710  0.60040  0.77200  1.0000
  H   H622      1.0  0.27200  0.81710  0.60040  1.0000
  H   H623      1.0  0.10040  0.77200  0.81710  1.0000
  H   H624      1.0  0.14960  0.47800  0.81710  1.0000
  H   H625      1.0  0.27200  0.43290  0.64960  1.0000
  H   H626      1.0  0.14960  0.77200  0.43290  1.0000
  H   H627      1.0  0.97800  0.43290  0.60040  1.0000
  H   H628      1.0  0.97800  0.81710  0.64960  1.0000
  H   H629      1.0  0.10040  0.47800  0.43290  1.0000
  H   H630      1.0  0.93290  0.64960  0.77200  1.0000
  H   H631      1.0  0.31710  0.64960  0.47800  1.0000
  H   H632      1.0  0.93290  0.60040  0.47800  1.0000
  H   H633      1.0  0.81710  0.10040  0.77200  1.0000
  H   H634      1.0  0.77200  0.31710  0.60040  1.0000
  H   H635      1.0  0.60040  0.27200  0.81710  1.0000
  H   H636      1.0  0.64960  0.97800  0.81710  1.0000
  H   H637      1.0  0.77200  0.93290  0.64960  1.0000
  H   H638      1.0  0.64960  0.27200  0.43290  1.0000
  H   H639      1.0  0.47800  0.93290  0.60040  1.0000
  H   H640      1.0  0.47800  0.31710  0.64960  1.0000
  H   H641      1.0  0.60040  0.97800  0.43290  1.0000
  H   H642      1.0  0.43290  0.14960  0.77200  1.0000
  H   H643      1.0  0.81710  0.14960  0.47800  1.0000
  H   H644      1.0  0.43290  0.10040  0.47800  1.0000
  H   H645      1.0  0.81710  0.60040  0.27200  1.0000
  H   H646      1.0  0.77200  0.81710  0.10040  1.0000
  H   H647      1.0  0.60040  0.77200  0.31710  1.0000
  H   H648      1.0  0.64960  0.47800  0.31710  1.0000
  H   H649      1.0  0.77200  0.43290  0.14960  1.0000
  H   H650      1.0  0.64960  0.77200  0.93290  1.0000
  H   H651      1.0  0.47800  0.43290  0.10040  1.0000
  H   H652      1.0  0.47800  0.81710  0.14960  1.0000
  H   H653      1.0  0.60040  0.47800  0.93290  1.0000
  H   H654      1.0  0.43290  0.64960  0.27200  1.0000
  H   H655      1.0  0.81710  0.64960  0.97800  1.0000
  H   H656      1.0  0.43290  0.60040  0.97800  1.0000
  H   H657      1.0  0.68290  0.89960  0.72800  1.0000
  H   H658      1.0  0.72800  0.68290  0.89960  1.0000
  H   H659      1.0  0.89960  0.72800  0.68290  1.0000
  H   H660      1.0  0.85040  0.02200  0.68290  1.0000
  H   H661      1.0  0.72800  0.06710  0.85040  1.0000
  H   H662      1.0  0.85040  0.72800  0.06710  1.0000
  H   H663      1.0  0.02200  0.06710  0.89960  1.0000
  H   H664      1.0  0.02200  0.68290  0.85040  1.0000
  H   H665      1.0  0.89960  0.02200  0.06710  1.0000
  H   H666      1.0  0.06710  0.85040  0.72800  1.0000
  H   H667      1.0  0.68290  0.85040  0.02200  1.0000
  H   H668      1.0  0.06710  0.89960  0.02200  1.0000
  H   H669      1.0  0.68290  0.39960  0.22800  1.0000
  H   H670      1.0  0.72800  0.18290  0.39960  1.0000
  H   H671      1.0  0.89960  0.22800  0.18290  1.0000
  H   H672      1.0  0.85040  0.52200  0.18290  1.0000
  H   H673      1.0  0.72800  0.56710  0.35040  1.0000
  H   H674      1.0  0.85040  0.22800  0.56710  1.0000
  H   H675      1.0  0.02200  0.56710  0.39960  1.0000
  H   H676      1.0  0.02200  0.18290  0.35040  1.0000
  H   H677      1.0  0.89960  0.52200  0.56710  1.0000
  H   H678      1.0  0.06710  0.35040  0.22800  1.0000
  H   H679      1.0  0.68290  0.35040  0.52200  1.0000
  H   H680      1.0  0.06710  0.39960  0.52200  1.0000
  H   H681      1.0  0.18290  0.89960  0.22800  1.0000
  H   H682      1.0  0.22800  0.68290  0.39960  1.0000
  H   H683      1.0  0.39960  0.72800  0.18290  1.0000
  H   H684      1.0  0.35040  0.02200  0.18290  1.0000
  H   H685      1.0  0.22800  0.06710  0.35040  1.0000
  H   H686      1.0  0.35040  0.72800  0.56710  1.0000
  H   H687      1.0  0.52200  0.06710  0.39960  1.0000
  H   H688      1.0  0.52200  0.68290  0.35040  1.0000
  H   H689      1.0  0.39960  0.02200  0.56710  1.0000
  H   H690      1.0  0.56710  0.85040  0.22800  1.0000
  H   H691      1.0  0.18290  0.85040  0.52200  1.0000
  H   H692      1.0  0.56710  0.89960  0.52200  1.0000
  H   H693      1.0  0.18290  0.39960  0.72800  1.0000
  H   H694      1.0  0.22800  0.18290  0.89960  1.0000
  H   H695      1.0  0.39960  0.22800  0.68290  1.0000
  H   H696      1.0  0.35040  0.52200  0.68290  1.0000
  H   H697      1.0  0.22800  0.56710  0.85040  1.0000
  H   H698      1.0  0.35040  0.22800  0.06710  1.0000
  H   H699      1.0  0.52200  0.56710  0.89960  1.0000
  H   H700      1.0  0.52200  0.18290  0.85040  1.0000
  H   H701      1.0  0.39960  0.52200  0.06710  1.0000
  H   H702      1.0  0.56710  0.35040  0.72800  1.0000
  H   H703      1.0  0.18290  0.35040  0.02200  1.0000
  H   H704      1.0  0.56710  0.39960  0.02200  1.0000
  C   C1345     1.0  0.28520  0.07537  0.25319  1.0000
  C   C1346     1.0  0.25319  0.28520  0.07537  1.0000
  C   C1347     1.0  0.07537  0.25319  0.28520  1.0000
  C   C1348     1.0  0.17463  0.99681  0.28520  1.0000
  C   C1349     1.0  0.25319  0.96480  0.17463  1.0000
  C   C1350     1.0  0.17463  0.25319  0.96480  1.0000
  C   C1351     1.0  0.99681  0.96480  0.07537  1.0000
  C   C1352     1.0  0.99681  0.28520  0.17463  1.0000
  C   C1353     1.0  0.07537  0.99681  0.96480  1.0000
  C   C1354     1.0  0.96480  0.17463  0.25319  1.0000
  C   C1355     1.0  0.28520  0.17463  0.99681  1.0000
  C   C1356     1.0  0.96480  0.07537  0.99681  1.0000
  C   C1357     1.0  0.28520  0.57537  0.75319  1.0000
  C   C1358     1.0  0.25319  0.78520  0.57537  1.0000
  C   C1359     1.0  0.07537  0.75319  0.78520  1.0000
  C   C1360     1.0  0.17463  0.49681  0.78520  1.0000
  C   C1361     1.0  0.25319  0.46480  0.67463  1.0000
  C   C1362     1.0  0.17463  0.75319  0.46480  1.0000
  C   C1363     1.0  0.99681  0.46480  0.57537  1.0000
  C   C1364     1.0  0.99681  0.78520  0.67463  1.0000
  C   C1365     1.0  0.07537  0.49681  0.46480  1.0000
  C   C1366     1.0  0.96480  0.67463  0.75319  1.0000
  C   C1367     1.0  0.28520  0.67463  0.49681  1.0000
  C   C1368     1.0  0.96480  0.57537  0.49681  1.0000
  C   C1369     1.0  0.78520  0.07537  0.75319  1.0000
  C   C1370     1.0  0.75319  0.28520  0.57537  1.0000
  C   C1371     1.0  0.57537  0.25319  0.78520  1.0000
  C   C1372     1.0  0.67463  0.99681  0.78520  1.0000
  C   C1373     1.0  0.75319  0.96480  0.67463  1.0000
  C   C1374     1.0  0.67463  0.25319  0.46480  1.0000
  C   C1375     1.0  0.49681  0.96480  0.57537  1.0000
  C   C1376     1.0  0.49681  0.28520  0.67463  1.0000
  C   C1377     1.0  0.57537  0.99681  0.46480  1.0000
  C   C1378     1.0  0.46480  0.17463  0.75319  1.0000
  C   C1379     1.0  0.78520  0.17463  0.49681  1.0000
  C   C1380     1.0  0.46480  0.07537  0.49681  1.0000
  C   C1381     1.0  0.78520  0.57537  0.25319  1.0000
  C   C1382     1.0  0.75319  0.78520  0.07537  1.0000
  C   C1383     1.0  0.57537  0.75319  0.28520  1.0000
  C   C1384     1.0  0.67463  0.49681  0.28520  1.0000
  C   C1385     1.0  0.75319  0.46480  0.17463  1.0000
  C   C1386     1.0  0.67463  0.75319  0.96480  1.0000
  C   C1387     1.0  0.49681  0.46480  0.07537  1.0000
  C   C1388     1.0  0.49681  0.78520  0.17463  1.0000
  C   C1389     1.0  0.57537  0.49681  0.96480  1.0000
  C   C1390     1.0  0.46480  0.67463  0.25319  1.0000
  C   C1391     1.0  0.78520  0.67463  0.99681  1.0000
  C   C1392     1.0  0.46480  0.57537  0.99681  1.0000
  C   C1393     1.0  0.71480  0.92463  0.74681  1.0000
  C   C1394     1.0  0.74681  0.71480  0.92463  1.0000
  C   C1395     1.0  0.92463  0.74681  0.71480  1.0000
  C   C1396     1.0  0.82537  0.00319  0.71480  1.0000
  C   C1397     1.0  0.74681  0.03520  0.82537  1.0000
  C   C1398     1.0  0.82537  0.74681  0.03520  1.0000
  C   C1399     1.0  0.00319  0.03520  0.92463  1.0000
  C   C1400     1.0  0.00319  0.71480  0.82537  1.0000
  C   C1401     1.0  0.92463  0.00319  0.03520  1.0000
  C   C1402     1.0  0.03520  0.82537  0.74681  1.0000
  C   C1403     1.0  0.71480  0.82537  0.00319  1.0000
  C   C1404     1.0  0.03520  0.92463  0.00319  1.0000
  C   C1405     1.0  0.71480  0.42463  0.24681  1.0000
  C   C1406     1.0  0.74681  0.21480  0.42463  1.0000
  C   C1407     1.0  0.92463  0.24681  0.21480  1.0000
  C   C1408     1.0  0.82537  0.50319  0.21480  1.0000
  C   C1409     1.0  0.74681  0.53520  0.32537  1.0000
  C   C1410     1.0  0.82537  0.24681  0.53520  1.0000
  C   C1411     1.0  0.00319  0.53520  0.42463  1.0000
  C   C1412     1.0  0.00319  0.21480  0.32537  1.0000
  C   C1413     1.0  0.92463  0.50319  0.53520  1.0000
  C   C1414     1.0  0.03520  0.32537  0.24681  1.0000
  C   C1415     1.0  0.71480  0.32537  0.50319  1.0000
  C   C1416     1.0  0.03520  0.42463  0.50319  1.0000
  C   C1417     1.0  0.21480  0.92463  0.24681  1.0000
  C   C1418     1.0  0.24681  0.71480  0.42463  1.0000
  C   C1419     1.0  0.42463  0.74681  0.21480  1.0000
  C   C1420     1.0  0.32537  0.00319  0.21480  1.0000
  C   C1421     1.0  0.24681  0.03520  0.32537  1.0000
  C   C1422     1.0  0.32537  0.74681  0.53520  1.0000
  C   C1423     1.0  0.50319  0.03520  0.42463  1.0000
  C   C1424     1.0  0.50319  0.71480  0.32537  1.0000
  C   C1425     1.0  0.42463  0.00319  0.53520  1.0000
  C   C1426     1.0  0.53520  0.82537  0.24681  1.0000
  C   C1427     1.0  0.21480  0.82537  0.50319  1.0000
  C   C1428     1.0  0.53520  0.92463  0.50319  1.0000
  C   C1429     1.0  0.21480  0.42463  0.74681  1.0000
  C   C1430     1.0  0.24681  0.21480  0.92463  1.0000
  C   C1431     1.0  0.42463  0.24681  0.71480  1.0000
  C   C1432     1.0  0.32537  0.50319  0.71480  1.0000
  C   C1433     1.0  0.24681  0.53520  0.82537  1.0000
  C   C1434     1.0  0.32537  0.24681  0.03520  1.0000
  C   C1435     1.0  0.50319  0.53520  0.92463  1.0000
  C   C1436     1.0  0.50319  0.21480  0.82537  1.0000
  C   C1437     1.0  0.42463  0.50319  0.03520  1.0000
  C   C1438     1.0  0.53520  0.32537  0.74681  1.0000
  C   C1439     1.0  0.21480  0.32537  0.00319  1.0000
  C   C1440     1.0  0.53520  0.42463  0.00319  1.0000
  H   H705      1.0  0.27730  0.06800  0.27100  1.0000
  H   H706      1.0  0.27100  0.27730  0.06800  1.0000
  H   H707      1.0  0.06800  0.27100  0.27730  1.0000
  H   H708      1.0  0.18200  0.97900  0.27730  1.0000
  H   H709      1.0  0.27100  0.97270  0.18200  1.0000
  H   H710      1.0  0.18200  0.27100  0.97270  1.0000
  H   H711      1.0  0.97900  0.97270  0.06800  1.0000
  H   H712      1.0  0.97900  0.27730  0.18200  1.0000
  H   H713      1.0  0.06800  0.97900  0.97270  1.0000
  H   H714      1.0  0.97270  0.18200  0.27100  1.0000
  H   H715      1.0  0.27730  0.18200  0.97900  1.0000
  H   H716      1.0  0.97270  0.06800  0.97900  1.0000
  H   H717      1.0  0.27730  0.56800  0.77100  1.0000
  H   H718      1.0  0.27100  0.77730  0.56800  1.0000
  H   H719      1.0  0.06800  0.77100  0.77730  1.0000
  H   H720      1.0  0.18200  0.47900  0.77730  1.0000
  H   H721      1.0  0.27100  0.47270  0.68200  1.0000
  H   H722      1.0  0.18200  0.77100  0.47270  1.0000
  H   H723      1.0  0.97900  0.47270  0.56800  1.0000
  H   H724      1.0  0.97900  0.77730  0.68200  1.0000
  H   H725      1.0  0.06800  0.47900  0.47270  1.0000
  H   H726      1.0  0.97270  0.68200  0.77100  1.0000
  H   H727      1.0  0.27730  0.68200  0.47900  1.0000
  H   H728      1.0  0.97270  0.56800  0.47900  1.0000
  H   H729      1.0  0.77730  0.06800  0.77100  1.0000
  H   H730      1.0  0.77100  0.27730  0.56800  1.0000
  H   H731      1.0  0.56800  0.27100  0.77730  1.0000
  H   H732      1.0  0.68200  0.97900  0.77730  1.0000
  H   H733      1.0  0.77100  0.97270  0.68200  1.0000
  H   H734      1.0  0.68200  0.27100  0.47270  1.0000
  H   H735      1.0  0.47900  0.97270  0.56800  1.0000
  H   H736      1.0  0.47900  0.27730  0.68200  1.0000
  H   H737      1.0  0.56800  0.97900  0.47270  1.0000
  H   H738      1.0  0.47270  0.18200  0.77100  1.0000
  H   H739      1.0  0.77730  0.18200  0.47900  1.0000
  H   H740      1.0  0.47270  0.06800  0.47900  1.0000
  H   H741      1.0  0.77730  0.56800  0.27100  1.0000
  H   H742      1.0  0.77100  0.77730  0.06800  1.0000
  H   H743      1.0  0.56800  0.77100  0.27730  1.0000
  H   H744      1.0  0.68200  0.47900  0.27730  1.0000
  H   H745      1.0  0.77100  0.47270  0.18200  1.0000
  H   H746      1.0  0.68200  0.77100  0.97270  1.0000
  H   H747      1.0  0.47900  0.47270  0.06800  1.0000
  H   H748      1.0  0.47900  0.77730  0.18200  1.0000
  H   H749      1.0  0.56800  0.47900  0.97270  1.0000
  H   H750      1.0  0.47270  0.68200  0.27100  1.0000
  H   H751      1.0  0.77730  0.68200  0.97900  1.0000
  H   H752      1.0  0.47270  0.56800  0.97900  1.0000
  H   H753      1.0  0.72270  0.93200  0.72900  1.0000
  H   H754      1.0  0.72900  0.72270  0.93200  1.0000
  H   H755      1.0  0.93200  0.72900  0.72270  1.0000
  H   H756      1.0  0.81800  0.02100  0.72270  1.0000
  H   H757      1.0  0.72900  0.02730  0.81800  1.0000
  H   H758      1.0  0.81800  0.72900  0.02730  1.0000
  H   H759      1.0  0.02100  0.02730  0.93200  1.0000
  H   H760      1.0  0.02100  0.72270  0.81800  1.0000
  H   H761      1.0  0.93200  0.02100  0.02730  1.0000
  H   H762      1.0  0.02730  0.81800  0.72900  1.0000
  H   H763      1.0  0.72270  0.81800  0.02100  1.0000
  H   H764      1.0  0.02730  0.93200  0.02100  1.0000
  H   H765      1.0  0.72270  0.43200  0.22900  1.0000
  H   H766      1.0  0.72900  0.22270  0.43200  1.0000
  H   H767      1.0  0.93200  0.22900  0.22270  1.0000
  H   H768      1.0  0.81800  0.52100  0.22270  1.0000
  H   H769      1.0  0.72900  0.52730  0.31800  1.0000
  H   H770      1.0  0.81800  0.22900  0.52730  1.0000
  H   H771      1.0  0.02100  0.52730  0.43200  1.0000
  H   H772      1.0  0.02100  0.22270  0.31800  1.0000
  H   H773      1.0  0.93200  0.52100  0.52730  1.0000
  H   H774      1.0  0.02730  0.31800  0.22900  1.0000
  H   H775      1.0  0.72270  0.31800  0.52100  1.0000
  H   H776      1.0  0.02730  0.43200  0.52100  1.0000
  H   H777      1.0  0.22270  0.93200  0.22900  1.0000
  H   H778      1.0  0.22900  0.72270  0.43200  1.0000
  H   H779      1.0  0.43200  0.72900  0.22270  1.0000
  H   H780      1.0  0.31800  0.02100  0.22270  1.0000
  H   H781      1.0  0.22900  0.02730  0.31800  1.0000
  H   H782      1.0  0.31800  0.72900  0.52730  1.0000
  H   H783      1.0  0.52100  0.02730  0.43200  1.0000
  H   H784      1.0  0.52100  0.72270  0.31800  1.0000
  H   H785      1.0  0.43200  0.02100  0.52730  1.0000
  H   H786      1.0  0.52730  0.81800  0.22900  1.0000
  H   H787      1.0  0.22270  0.81800  0.52100  1.0000
  H   H788      1.0  0.52730  0.93200  0.52100  1.0000
  H   H789      1.0  0.22270  0.43200  0.72900  1.0000
  H   H790      1.0  0.22900  0.22270  0.93200  1.0000
  H   H791      1.0  0.43200  0.22900  0.72270  1.0000
  H   H792      1.0  0.31800  0.52100  0.72270  1.0000
  H   H793      1.0  0.22900  0.52730  0.81800  1.0000
  H   H794      1.0  0.31800  0.22900  0.02730  1.0000
  H   H795      1.0  0.52100  0.52730  0.93200  1.0000
  H   H796      1.0  0.52100  0.22270  0.81800  1.0000
  H   H797      1.0  0.43200  0.52100  0.02730  1.0000
  H   H798      1.0  0.52730  0.31800  0.72900  1.0000
  H   H799      1.0  0.22270  0.31800  0.02100  1.0000
  H   H800      1.0  0.52730  0.43200  0.02100  1.0000
  C   C1441     1.0  0.27310  0.06692  0.22657  1.0000
  C   C1442     1.0  0.22657  0.27310  0.06692  1.0000
  C   C1443     1.0  0.06692  0.22657  0.27310  1.0000
  C   C1444     1.0  0.18308  0.02343  0.27310  1.0000
  C   C1445     1.0  0.22657  0.97690  0.18308  1.0000
  C   C1446     1.0  0.18308  0.22657  0.97690  1.0000
  C   C1447     1.0  0.02343  0.97690  0.06692  1.0000
  C   C1448     1.0  0.02343  0.27310  0.18308  1.0000
  C   C1449     1.0  0.06692  0.02343  0.97690  1.0000
  C   C1450     1.0  0.97690  0.18308  0.22657  1.0000
  C   C1451     1.0  0.27310  0.18308  0.02343  1.0000
  C   C1452     1.0  0.97690  0.06692  0.02343  1.0000
  C   C1453     1.0  0.27310  0.56692  0.72657  1.0000
  C   C1454     1.0  0.22657  0.77310  0.56692  1.0000
  C   C1455     1.0  0.06692  0.72657  0.77310  1.0000
  C   C1456     1.0  0.18308  0.52343  0.77310  1.0000
  C   C1457     1.0  0.22657  0.47690  0.68308  1.0000
  C   C1458     1.0  0.18308  0.72657  0.47690  1.0000
  C   C1459     1.0  0.02343  0.47690  0.56692  1.0000
  C   C1460     1.0  0.02343  0.77310  0.68308  1.0000
  C   C1461     1.0  0.06692  0.52343  0.47690  1.0000
  C   C1462     1.0  0.97690  0.68308  0.72657  1.0000
  C   C1463     1.0  0.27310  0.68308  0.52343  1.0000
  C   C1464     1.0  0.97690  0.56692  0.52343  1.0000
  C   C1465     1.0  0.77310  0.06692  0.72657  1.0000
  C   C1466     1.0  0.72657  0.27310  0.56692  1.0000
  C   C1467     1.0  0.56692  0.22657  0.77310  1.0000
  C   C1468     1.0  0.68308  0.02343  0.77310  1.0000
  C   C1469     1.0  0.72657  0.97690  0.68308  1.0000
  C   C1470     1.0  0.68308  0.22657  0.47690  1.0000
  C   C1471     1.0  0.52343  0.97690  0.56692  1.0000
  C   C1472     1.0  0.52343  0.27310  0.68308  1.0000
  C   C1473     1.0  0.56692  0.02343  0.47690  1.0000
  C   C1474     1.0  0.47690  0.18308  0.72657  1.0000
  C   C1475     1.0  0.77310  0.18308  0.52343  1.0000
  C   C1476     1.0  0.47690  0.06692  0.52343  1.0000
  C   C1477     1.0  0.77310  0.56692  0.22657  1.0000
  C   C1478     1.0  0.72657  0.77310  0.06692  1.0000
  C   C1479     1.0  0.56692  0.72657  0.27310  1.0000
  C   C1480     1.0  0.68308  0.52343  0.27310  1.0000
  C   C1481     1.0  0.72657  0.47690  0.18308  1.0000
  C   C1482     1.0  0.68308  0.72657  0.97690  1.0000
  C   C1483     1.0  0.52343  0.47690  0.06692  1.0000
  C   C1484     1.0  0.52343  0.77310  0.18308  1.0000
  C   C1485     1.0  0.56692  0.52343  0.97690  1.0000
  C   C1486     1.0  0.47690  0.68308  0.22657  1.0000
  C   C1487     1.0  0.77310  0.68308  0.02343  1.0000
  C   C1488     1.0  0.47690  0.56692  0.02343  1.0000
  C   C1489     1.0  0.72690  0.93308  0.77343  1.0000
  C   C1490     1.0  0.77343  0.72690  0.93308  1.0000
  C   C1491     1.0  0.93308  0.77343  0.72690  1.0000
  C   C1492     1.0  0.81692  0.97657  0.72690  1.0000
  C   C1493     1.0  0.77343  0.02310  0.81692  1.0000
  C   C1494     1.0  0.81692  0.77343  0.02310  1.0000
  C   C1495     1.0  0.97657  0.02310  0.93308  1.0000
  C   C1496     1.0  0.97657  0.72690  0.81692  1.0000
  C   C1497     1.0  0.93308  0.97657  0.02310  1.0000
  C   C1498     1.0  0.02310  0.81692  0.77343  1.0000
  C   C1499     1.0  0.72690  0.81692  0.97657  1.0000
  C   C1500     1.0  0.02310  0.93308  0.97657  1.0000
  C   C1501     1.0  0.72690  0.43308  0.27343  1.0000
  C   C1502     1.0  0.77343  0.22690  0.43308  1.0000
  C   C1503     1.0  0.93308  0.27343  0.22690  1.0000
  C   C1504     1.0  0.81692  0.47657  0.22690  1.0000
  C   C1505     1.0  0.77343  0.52310  0.31692  1.0000
  C   C1506     1.0  0.81692  0.27343  0.52310  1.0000
  C   C1507     1.0  0.97657  0.52310  0.43308  1.0000
  C   C1508     1.0  0.97657  0.22690  0.31692  1.0000
  C   C1509     1.0  0.93308  0.47657  0.52310  1.0000
  C   C1510     1.0  0.02310  0.31692  0.27343  1.0000
  C   C1511     1.0  0.72690  0.31692  0.47657  1.0000
  C   C1512     1.0  0.02310  0.43308  0.47657  1.0000
  C   C1513     1.0  0.22690  0.93308  0.27343  1.0000
  C   C1514     1.0  0.27343  0.72690  0.43308  1.0000
  C   C1515     1.0  0.43308  0.77343  0.22690  1.0000
  C   C1516     1.0  0.31692  0.97657  0.22690  1.0000
  C   C1517     1.0  0.27343  0.02310  0.31692  1.0000
  C   C1518     1.0  0.31692  0.77343  0.52310  1.0000
  C   C1519     1.0  0.47657  0.02310  0.43308  1.0000
  C   C1520     1.0  0.47657  0.72690  0.31692  1.0000
  C   C1521     1.0  0.43308  0.97657  0.52310  1.0000
  C   C1522     1.0  0.52310  0.81692  0.27343  1.0000
  C   C1523     1.0  0.22690  0.81692  0.47657  1.0000
  C   C1524     1.0  0.52310  0.93308  0.47657  1.0000
  C   C1525     1.0  0.22690  0.43308  0.77343  1.0000
  C   C1526     1.0  0.27343  0.22690  0.93308  1.0000
  C   C1527     1.0  0.43308  0.27343  0.72690  1.0000
  C   C1528     1.0  0.31692  0.47657  0.72690  1.0000
  C   C1529     1.0  0.27343  0.52310  0.81692  1.0000
  C   C1530     1.0  0.31692  0.27343  0.02310  1.0000
  C   C1531     1.0  0.47657  0.52310  0.93308  1.0000
  C   C1532     1.0  0.47657  0.22690  0.81692  1.0000
  C   C1533     1.0  0.43308  0.47657  0.02310  1.0000
  C   C1534     1.0  0.52310  0.31692  0.77343  1.0000
  C   C1535     1.0  0.22690  0.31692  0.97657  1.0000
  C   C1536     1.0  0.52310  0.43308  0.97657  1.0000
  C   C1537     1.0  0.28462  0.07767  0.20052  1.0000
  C   C1538     1.0  0.20052  0.28462  0.07767  1.0000
  C   C1539     1.0  0.07767  0.20052  0.28462  1.0000
  C   C1540     1.0  0.17233  0.04948  0.28462  1.0000
  C   C1541     1.0  0.20052  0.96538  0.17233  1.0000
  C   C1542     1.0  0.17233  0.20052  0.96538  1.0000
  C   C1543     1.0  0.04948  0.96538  0.07767  1.0000
  C   C1544     1.0  0.04948  0.28462  0.17233  1.0000
  C   C1545     1.0  0.07767  0.04948  0.96538  1.0000
  C   C1546     1.0  0.96538  0.17233  0.20052  1.0000
  C   C1547     1.0  0.28462  0.17233  0.04948  1.0000
  C   C1548     1.0  0.96538  0.07767  0.04948  1.0000
  C   C1549     1.0  0.28462  0.57767  0.70052  1.0000
  C   C1550     1.0  0.20052  0.78462  0.57767  1.0000
  C   C1551     1.0  0.07767  0.70052  0.78462  1.0000
  C   C1552     1.0  0.17233  0.54948  0.78462  1.0000
  C   C1553     1.0  0.20052  0.46538  0.67233  1.0000
  C   C1554     1.0  0.17233  0.70052  0.46538  1.0000
  C   C1555     1.0  0.04948  0.46538  0.57767  1.0000
  C   C1556     1.0  0.04948  0.78462  0.67233  1.0000
  C   C1557     1.0  0.07767  0.54948  0.46538  1.0000
  C   C1558     1.0  0.96538  0.67233  0.70052  1.0000
  C   C1559     1.0  0.28462  0.67233  0.54948  1.0000
  C   C1560     1.0  0.96538  0.57767  0.54948  1.0000
  C   C1561     1.0  0.78462  0.07767  0.70052  1.0000
  C   C1562     1.0  0.70052  0.28462  0.57767  1.0000
  C   C1563     1.0  0.57767  0.20052  0.78462  1.0000
  C   C1564     1.0  0.67233  0.04948  0.78462  1.0000
  C   C1565     1.0  0.70052  0.96538  0.67233  1.0000
  C   C1566     1.0  0.67233  0.20052  0.46538  1.0000
  C   C1567     1.0  0.54948  0.96538  0.57767  1.0000
  C   C1568     1.0  0.54948  0.28462  0.67233  1.0000
  C   C1569     1.0  0.57767  0.04948  0.46538  1.0000
  C   C1570     1.0  0.46538  0.17233  0.70052  1.0000
  C   C1571     1.0  0.78462  0.17233  0.54948  1.0000
  C   C1572     1.0  0.46538  0.07767  0.54948  1.0000
  C   C1573     1.0  0.78462  0.57767  0.20052  1.0000
  C   C1574     1.0  0.70052  0.78462  0.07767  1.0000
  C   C1575     1.0  0.57767  0.70052  0.28462  1.0000
  C   C1576     1.0  0.67233  0.54948  0.28462  1.0000
  C   C1577     1.0  0.70052  0.46538  0.17233  1.0000
  C   C1578     1.0  0.67233  0.70052  0.96538  1.0000
  C   C1579     1.0  0.54948  0.46538  0.07767  1.0000
  C   C1580     1.0  0.54948  0.78462  0.17233  1.0000
  C   C1581     1.0  0.57767  0.54948  0.96538  1.0000
  C   C1582     1.0  0.46538  0.67233  0.20052  1.0000
  C   C1583     1.0  0.78462  0.67233  0.04948  1.0000
  C   C1584     1.0  0.46538  0.57767  0.04948  1.0000
  C   C1585     1.0  0.71538  0.92233  0.79948  1.0000
  C   C1586     1.0  0.79948  0.71538  0.92233  1.0000
  C   C1587     1.0  0.92233  0.79948  0.71538  1.0000
  C   C1588     1.0  0.82767  0.95052  0.71538  1.0000
  C   C1589     1.0  0.79948  0.03462  0.82767  1.0000
  C   C1590     1.0  0.82767  0.79948  0.03462  1.0000
  C   C1591     1.0  0.95052  0.03462  0.92233  1.0000
  C   C1592     1.0  0.95052  0.71538  0.82767  1.0000
  C   C1593     1.0  0.92233  0.95052  0.03462  1.0000
  C   C1594     1.0  0.03462  0.82767  0.79948  1.0000
  C   C1595     1.0  0.71538  0.82767  0.95052  1.0000
  C   C1596     1.0  0.03462  0.92233  0.95052  1.0000
  C   C1597     1.0  0.71538  0.42233  0.29948  1.0000
  C   C1598     1.0  0.79948  0.21538  0.42233  1.0000
  C   C1599     1.0  0.92233  0.29948  0.21538  1.0000
  C   C1600     1.0  0.82767  0.45052  0.21538  1.0000
  C   C1601     1.0  0.79948  0.53462  0.32767  1.0000
  C   C1602     1.0  0.82767  0.29948  0.53462  1.0000
  C   C1603     1.0  0.95052  0.53462  0.42233  1.0000
  C   C1604     1.0  0.95052  0.21538  0.32767  1.0000
  C   C1605     1.0  0.92233  0.45052  0.53462  1.0000
  C   C1606     1.0  0.03462  0.32767  0.29948  1.0000
  C   C1607     1.0  0.71538  0.32767  0.45052  1.0000
  C   C1608     1.0  0.03462  0.42233  0.45052  1.0000
  C   C1609     1.0  0.21538  0.92233  0.29948  1.0000
  C   C1610     1.0  0.29948  0.71538  0.42233  1.0000
  C   C1611     1.0  0.42233  0.79948  0.21538  1.0000
  C   C1612     1.0  0.32767  0.95052  0.21538  1.0000
  C   C1613     1.0  0.29948  0.03462  0.32767  1.0000
  C   C1614     1.0  0.32767  0.79948  0.53462  1.0000
  C   C1615     1.0  0.45052  0.03462  0.42233  1.0000
  C   C1616     1.0  0.45052  0.71538  0.32767  1.0000
  C   C1617     1.0  0.42233  0.95052  0.53462  1.0000
  C   C1618     1.0  0.53462  0.82767  0.29948  1.0000
  C   C1619     1.0  0.21538  0.82767  0.45052  1.0000
  C   C1620     1.0  0.53462  0.92233  0.45052  1.0000
  C   C1621     1.0  0.21538  0.42233  0.79948  1.0000
  C   C1622     1.0  0.29948  0.21538  0.92233  1.0000
  C   C1623     1.0  0.42233  0.29948  0.71538  1.0000
  C   C1624     1.0  0.32767  0.45052  0.71538  1.0000
  C   C1625     1.0  0.29948  0.53462  0.82767  1.0000
  C   C1626     1.0  0.32767  0.29948  0.03462  1.0000
  C   C1627     1.0  0.45052  0.53462  0.92233  1.0000
  C   C1628     1.0  0.45052  0.21538  0.82767  1.0000
  C   C1629     1.0  0.42233  0.45052  0.03462  1.0000
  C   C1630     1.0  0.53462  0.32767  0.79948  1.0000
  C   C1631     1.0  0.21538  0.32767  0.95052  1.0000
  C   C1632     1.0  0.53462  0.42233  0.95052  1.0000
  H   H801      1.0  0.27630  0.07190  0.18230  1.0000
  H   H802      1.0  0.18230  0.27630  0.07190  1.0000
  H   H803      1.0  0.07190  0.18230  0.27630  1.0000
  H   H804      1.0  0.17810  0.06770  0.27630  1.0000
  H   H805      1.0  0.18230  0.97370  0.17810  1.0000
  H   H806      1.0  0.17810  0.18230  0.97370  1.0000
  H   H807      1.0  0.06770  0.97370  0.07190  1.0000
  H   H808      1.0  0.06770  0.27630  0.17810  1.0000
  H   H809      1.0  0.07190  0.06770  0.97370  1.0000
  H   H810      1.0  0.97370  0.17810  0.18230  1.0000
  H   H811      1.0  0.27630  0.17810  0.06770  1.0000
  H   H812      1.0  0.97370  0.07190  0.06770  1.0000
  H   H813      1.0  0.27630  0.57190  0.68230  1.0000
  H   H814      1.0  0.18230  0.77630  0.57190  1.0000
  H   H815      1.0  0.07190  0.68230  0.77630  1.0000
  H   H816      1.0  0.17810  0.56770  0.77630  1.0000
  H   H817      1.0  0.18230  0.47370  0.67810  1.0000
  H   H818      1.0  0.17810  0.68230  0.47370  1.0000
  H   H819      1.0  0.06770  0.47370  0.57190  1.0000
  H   H820      1.0  0.06770  0.77630  0.67810  1.0000
  H   H821      1.0  0.07190  0.56770  0.47370  1.0000
  H   H822      1.0  0.97370  0.67810  0.68230  1.0000
  H   H823      1.0  0.27630  0.67810  0.56770  1.0000
  H   H824      1.0  0.97370  0.57190  0.56770  1.0000
  H   H825      1.0  0.77630  0.07190  0.68230  1.0000
  H   H826      1.0  0.68230  0.27630  0.57190  1.0000
  H   H827      1.0  0.57190  0.18230  0.77630  1.0000
  H   H828      1.0  0.67810  0.06770  0.77630  1.0000
  H   H829      1.0  0.68230  0.97370  0.67810  1.0000
  H   H830      1.0  0.67810  0.18230  0.47370  1.0000
  H   H831      1.0  0.56770  0.97370  0.57190  1.0000
  H   H832      1.0  0.56770  0.27630  0.67810  1.0000
  H   H833      1.0  0.57190  0.06770  0.47370  1.0000
  H   H834      1.0  0.47370  0.17810  0.68230  1.0000
  H   H835      1.0  0.77630  0.17810  0.56770  1.0000
  H   H836      1.0  0.47370  0.07190  0.56770  1.0000
  H   H837      1.0  0.77630  0.57190  0.18230  1.0000
  H   H838      1.0  0.68230  0.77630  0.07190  1.0000
  H   H839      1.0  0.57190  0.68230  0.27630  1.0000
  H   H840      1.0  0.67810  0.56770  0.27630  1.0000
  H   H841      1.0  0.68230  0.47370  0.17810  1.0000
  H   H842      1.0  0.67810  0.68230  0.97370  1.0000
  H   H843      1.0  0.56770  0.47370  0.07190  1.0000
  H   H844      1.0  0.56770  0.77630  0.17810  1.0000
  H   H845      1.0  0.57190  0.56770  0.97370  1.0000
  H   H846      1.0  0.47370  0.67810  0.18230  1.0000
  H   H847      1.0  0.77630  0.67810  0.06770  1.0000
  H   H848      1.0  0.47370  0.57190  0.06770  1.0000
  H   H849      1.0  0.72370  0.92810  0.81770  1.0000
  H   H850      1.0  0.81770  0.72370  0.92810  1.0000
  H   H851      1.0  0.92810  0.81770  0.72370  1.0000
  H   H852      1.0  0.82190  0.93230  0.72370  1.0000
  H   H853      1.0  0.81770  0.02630  0.82190  1.0000
  H   H854      1.0  0.82190  0.81770  0.02630  1.0000
  H   H855      1.0  0.93230  0.02630  0.92810  1.0000
  H   H856      1.0  0.93230  0.72370  0.82190  1.0000
  H   H857      1.0  0.92810  0.93230  0.02630  1.0000
  H   H858      1.0  0.02630  0.82190  0.81770  1.0000
  H   H859      1.0  0.72370  0.82190  0.93230  1.0000
  H   H860      1.0  0.02630  0.92810  0.93230  1.0000
  H   H861      1.0  0.72370  0.42810  0.31770  1.0000
  H   H862      1.0  0.81770  0.22370  0.42810  1.0000
  H   H863      1.0  0.92810  0.31770  0.22370  1.0000
  H   H864      1.0  0.82190  0.43230  0.22370  1.0000
  H   H865      1.0  0.81770  0.52630  0.32190  1.0000
  H   H866      1.0  0.82190  0.31770  0.52630  1.0000
  H   H867      1.0  0.93230  0.52630  0.42810  1.0000
  H   H868      1.0  0.93230  0.22370  0.32190  1.0000
  H   H869      1.0  0.92810  0.43230  0.52630  1.0000
  H   H870      1.0  0.02630  0.32190  0.31770  1.0000
  H   H871      1.0  0.72370  0.32190  0.43230  1.0000
  H   H872      1.0  0.02630  0.42810  0.43230  1.0000
  H   H873      1.0  0.22370  0.92810  0.31770  1.0000
  H   H874      1.0  0.31770  0.72370  0.42810  1.0000
  H   H875      1.0  0.42810  0.81770  0.22370  1.0000
  H   H876      1.0  0.32190  0.93230  0.22370  1.0000
  H   H877      1.0  0.31770  0.02630  0.32190  1.0000
  H   H878      1.0  0.32190  0.81770  0.52630  1.0000
  H   H879      1.0  0.43230  0.02630  0.42810  1.0000
  H   H880      1.0  0.43230  0.72370  0.32190  1.0000
  H   H881      1.0  0.42810  0.93230  0.52630  1.0000
  H   H882      1.0  0.52630  0.82190  0.31770  1.0000
  H   H883      1.0  0.22370  0.82190  0.43230  1.0000
  H   H884      1.0  0.52630  0.92810  0.43230  1.0000
  H   H885      1.0  0.22370  0.42810  0.81770  1.0000
  H   H886      1.0  0.31770  0.22370  0.92810  1.0000
  H   H887      1.0  0.42810  0.31770  0.72370  1.0000
  H   H888      1.0  0.32190  0.43230  0.72370  1.0000
  H   H889      1.0  0.31770  0.52630  0.82190  1.0000
  H   H890      1.0  0.32190  0.31770  0.02630  1.0000
  H   H891      1.0  0.43230  0.52630  0.92810  1.0000
  H   H892      1.0  0.43230  0.22370  0.82190  1.0000
  H   H893      1.0  0.42810  0.43230  0.02630  1.0000
  H   H894      1.0  0.52630  0.32190  0.81770  1.0000
  H   H895      1.0  0.22370  0.32190  0.93230  1.0000
  H   H896      1.0  0.52630  0.42810  0.93230  1.0000
  C   C1633     1.0  0.30823  0.09687  0.20109  1.0000
  C   C1634     1.0  0.20109  0.30823  0.09687  1.0000
  C   C1635     1.0  0.09687  0.20109  0.30823  1.0000
  C   C1636     1.0  0.15313  0.04891  0.30823  1.0000
  C   C1637     1.0  0.20109  0.94177  0.15313  1.0000
  C   C1638     1.0  0.15313  0.20109  0.94177  1.0000
  C   C1639     1.0  0.04891  0.94177  0.09687  1.0000
  C   C1640     1.0  0.04891  0.30823  0.15313  1.0000
  C   C1641     1.0  0.09687  0.04891  0.94177  1.0000
  C   C1642     1.0  0.94177  0.15313  0.20109  1.0000
  C   C1643     1.0  0.30823  0.15313  0.04891  1.0000
  C   C1644     1.0  0.94177  0.09687  0.04891  1.0000
  C   C1645     1.0  0.30823  0.59687  0.70109  1.0000
  C   C1646     1.0  0.20109  0.80823  0.59687  1.0000
  C   C1647     1.0  0.09687  0.70109  0.80823  1.0000
  C   C1648     1.0  0.15313  0.54891  0.80823  1.0000
  C   C1649     1.0  0.20109  0.44177  0.65313  1.0000
  C   C1650     1.0  0.15313  0.70109  0.44177  1.0000
  C   C1651     1.0  0.04891  0.44177  0.59687  1.0000
  C   C1652     1.0  0.04891  0.80823  0.65313  1.0000
  C   C1653     1.0  0.09687  0.54891  0.44177  1.0000
  C   C1654     1.0  0.94177  0.65313  0.70109  1.0000
  C   C1655     1.0  0.30823  0.65313  0.54891  1.0000
  C   C1656     1.0  0.94177  0.59687  0.54891  1.0000
  C   C1657     1.0  0.80823  0.09687  0.70109  1.0000
  C   C1658     1.0  0.70109  0.30823  0.59687  1.0000
  C   C1659     1.0  0.59687  0.20109  0.80823  1.0000
  C   C1660     1.0  0.65313  0.04891  0.80823  1.0000
  C   C1661     1.0  0.70109  0.94177  0.65313  1.0000
  C   C1662     1.0  0.65313  0.20109  0.44177  1.0000
  C   C1663     1.0  0.54891  0.94177  0.59687  1.0000
  C   C1664     1.0  0.54891  0.30823  0.65313  1.0000
  C   C1665     1.0  0.59687  0.04891  0.44177  1.0000
  C   C1666     1.0  0.44177  0.15313  0.70109  1.0000
  C   C1667     1.0  0.80823  0.15313  0.54891  1.0000
  C   C1668     1.0  0.44177  0.09687  0.54891  1.0000
  C   C1669     1.0  0.80823  0.59687  0.20109  1.0000
  C   C1670     1.0  0.70109  0.80823  0.09687  1.0000
  C   C1671     1.0  0.59687  0.70109  0.30823  1.0000
  C   C1672     1.0  0.65313  0.54891  0.30823  1.0000
  C   C1673     1.0  0.70109  0.44177  0.15313  1.0000
  C   C1674     1.0  0.65313  0.70109  0.94177  1.0000
  C   C1675     1.0  0.54891  0.44177  0.09687  1.0000
  C   C1676     1.0  0.54891  0.80823  0.15313  1.0000
  C   C1677     1.0  0.59687  0.54891  0.94177  1.0000
  C   C1678     1.0  0.44177  0.65313  0.20109  1.0000
  C   C1679     1.0  0.80823  0.65313  0.04891  1.0000
  C   C1680     1.0  0.44177  0.59687  0.04891  1.0000
  C   C1681     1.0  0.69177  0.90313  0.79891  1.0000
  C   C1682     1.0  0.79891  0.69177  0.90313  1.0000
  C   C1683     1.0  0.90313  0.79891  0.69177  1.0000
  C   C1684     1.0  0.84687  0.95109  0.69177  1.0000
  C   C1685     1.0  0.79891  0.05823  0.84687  1.0000
  C   C1686     1.0  0.84687  0.79891  0.05823  1.0000
  C   C1687     1.0  0.95109  0.05823  0.90313  1.0000
  C   C1688     1.0  0.95109  0.69177  0.84687  1.0000
  C   C1689     1.0  0.90313  0.95109  0.05823  1.0000
  C   C1690     1.0  0.05823  0.84687  0.79891  1.0000
  C   C1691     1.0  0.69177  0.84687  0.95109  1.0000
  C   C1692     1.0  0.05823  0.90313  0.95109  1.0000
  C   C1693     1.0  0.69177  0.40313  0.29891  1.0000
  C   C1694     1.0  0.79891  0.19177  0.40313  1.0000
  C   C1695     1.0  0.90313  0.29891  0.19177  1.0000
  C   C1696     1.0  0.84687  0.45109  0.19177  1.0000
  C   C1697     1.0  0.79891  0.55823  0.34687  1.0000
  C   C1698     1.0  0.84687  0.29891  0.55823  1.0000
  C   C1699     1.0  0.95109  0.55823  0.40313  1.0000
  C   C1700     1.0  0.95109  0.19177  0.34687  1.0000
  C   C1701     1.0  0.90313  0.45109  0.55823  1.0000
  C   C1702     1.0  0.05823  0.34687  0.29891  1.0000
  C   C1703     1.0  0.69177  0.34687  0.45109  1.0000
  C   C1704     1.0  0.05823  0.40313  0.45109  1.0000
  C   C1705     1.0  0.19177  0.90313  0.29891  1.0000
  C   C1706     1.0  0.29891  0.69177  0.40313  1.0000
  C   C1707     1.0  0.40313  0.79891  0.19177  1.0000
  C   C1708     1.0  0.34687  0.95109  0.19177  1.0000
  C   C1709     1.0  0.29891  0.05823  0.34687  1.0000
  C   C1710     1.0  0.34687  0.79891  0.55823  1.0000
  C   C1711     1.0  0.45109  0.05823  0.40313  1.0000
  C   C1712     1.0  0.45109  0.69177  0.34687  1.0000
  C   C1713     1.0  0.40313  0.95109  0.55823  1.0000
  C   C1714     1.0  0.55823  0.84687  0.29891  1.0000
  C   C1715     1.0  0.19177  0.84687  0.45109  1.0000
  C   C1716     1.0  0.55823  0.90313  0.45109  1.0000
  C   C1717     1.0  0.19177  0.40313  0.79891  1.0000
  C   C1718     1.0  0.29891  0.19177  0.90313  1.0000
  C   C1719     1.0  0.40313  0.29891  0.69177  1.0000
  C   C1720     1.0  0.34687  0.45109  0.69177  1.0000
  C   C1721     1.0  0.29891  0.55823  0.84687  1.0000
  C   C1722     1.0  0.34687  0.29891  0.05823  1.0000
  C   C1723     1.0  0.45109  0.55823  0.90313  1.0000
  C   C1724     1.0  0.45109  0.19177  0.84687  1.0000
  C   C1725     1.0  0.40313  0.45109  0.05823  1.0000
  C   C1726     1.0  0.55823  0.34687  0.79891  1.0000
  C   C1727     1.0  0.19177  0.34687  0.95109  1.0000
  C   C1728     1.0  0.55823  0.40313  0.95109  1.0000
  H   H897      1.0  0.31610  0.10420  0.18330  1.0000
  H   H898      1.0  0.18330  0.31610  0.10420  1.0000
  H   H899      1.0  0.10420  0.18330  0.31610  1.0000
  H   H900      1.0  0.14580  0.06670  0.31610  1.0000
  H   H901      1.0  0.18330  0.93390  0.14580  1.0000
  H   H902      1.0  0.14580  0.18330  0.93390  1.0000
  H   H903      1.0  0.06670  0.93390  0.10420  1.0000
  H   H904      1.0  0.06670  0.31610  0.14580  1.0000
  H   H905      1.0  0.10420  0.06670  0.93390  1.0000
  H   H906      1.0  0.93390  0.14580  0.18330  1.0000
  H   H907      1.0  0.31610  0.14580  0.06670  1.0000
  H   H908      1.0  0.93390  0.10420  0.06670  1.0000
  H   H909      1.0  0.31610  0.60420  0.68330  1.0000
  H   H910      1.0  0.18330  0.81610  0.60420  1.0000
  H   H911      1.0  0.10420  0.68330  0.81610  1.0000
  H   H912      1.0  0.14580  0.56670  0.81610  1.0000
  H   H913      1.0  0.18330  0.43390  0.64580  1.0000
  H   H914      1.0  0.14580  0.68330  0.43390  1.0000
  H   H915      1.0  0.06670  0.43390  0.60420  1.0000
  H   H916      1.0  0.06670  0.81610  0.64580  1.0000
  H   H917      1.0  0.10420  0.56670  0.43390  1.0000
  H   H918      1.0  0.93390  0.64580  0.68330  1.0000
  H   H919      1.0  0.31610  0.64580  0.56670  1.0000
  H   H920      1.0  0.93390  0.60420  0.56670  1.0000
  H   H921      1.0  0.81610  0.10420  0.68330  1.0000
  H   H922      1.0  0.68330  0.31610  0.60420  1.0000
  H   H923      1.0  0.60420  0.18330  0.81610  1.0000
  H   H924      1.0  0.64580  0.06670  0.81610  1.0000
  H   H925      1.0  0.68330  0.93390  0.64580  1.0000
  H   H926      1.0  0.64580  0.18330  0.43390  1.0000
  H   H927      1.0  0.56670  0.93390  0.60420  1.0000
  H   H928      1.0  0.56670  0.31610  0.64580  1.0000
  H   H929      1.0  0.60420  0.06670  0.43390  1.0000
  H   H930      1.0  0.43390  0.14580  0.68330  1.0000
  H   H931      1.0  0.81610  0.14580  0.56670  1.0000
  H   H932      1.0  0.43390  0.10420  0.56670  1.0000
  H   H933      1.0  0.81610  0.60420  0.18330  1.0000
  H   H934      1.0  0.68330  0.81610  0.10420  1.0000
  H   H935      1.0  0.60420  0.68330  0.31610  1.0000
  H   H936      1.0  0.64580  0.56670  0.31610  1.0000
  H   H937      1.0  0.68330  0.43390  0.14580  1.0000
  H   H938      1.0  0.64580  0.68330  0.93390  1.0000
  H   H939      1.0  0.56670  0.43390  0.10420  1.0000
  H   H940      1.0  0.56670  0.81610  0.14580  1.0000
  H   H941      1.0  0.60420  0.56670  0.93390  1.0000
  H   H942      1.0  0.43390  0.64580  0.18330  1.0000
  H   H943      1.0  0.81610  0.64580  0.06670  1.0000
  H   H944      1.0  0.43390  0.60420  0.06670  1.0000
  H   H945      1.0  0.68390  0.89580  0.81670  1.0000
  H   H946      1.0  0.81670  0.68390  0.89580  1.0000
  H   H947      1.0  0.89580  0.81670  0.68390  1.0000
  H   H948      1.0  0.85420  0.93330  0.68390  1.0000
  H   H949      1.0  0.81670  0.06610  0.85420  1.0000
  H   H950      1.0  0.85420  0.81670  0.06610  1.0000
  H   H951      1.0  0.93330  0.06610  0.89580  1.0000
  H   H952      1.0  0.93330  0.68390  0.85420  1.0000
  H   H953      1.0  0.89580  0.93330  0.06610  1.0000
  H   H954      1.0  0.06610  0.85420  0.81670  1.0000
  H   H955      1.0  0.68390  0.85420  0.93330  1.0000
  H   H956      1.0  0.06610  0.89580  0.93330  1.0000
  H   H957      1.0  0.68390  0.39580  0.31670  1.0000
  H   H958      1.0  0.81670  0.18390  0.39580  1.0000
  H   H959      1.0  0.89580  0.31670  0.18390  1.0000
  H   H960      1.0  0.85420  0.43330  0.18390  1.0000
  H   H961      1.0  0.81670  0.56610  0.35420  1.0000
  H   H962      1.0  0.85420  0.31670  0.56610  1.0000
  H   H963      1.0  0.93330  0.56610  0.39580  1.0000
  H   H964      1.0  0.93330  0.18390  0.35420  1.0000
  H   H965      1.0  0.89580  0.43330  0.56610  1.0000
  H   H966      1.0  0.06610  0.35420  0.31670  1.0000
  H   H967      1.0  0.68390  0.35420  0.43330  1.0000
  H   H968      1.0  0.06610  0.39580  0.43330  1.0000
  H   H969      1.0  0.18390  0.89580  0.31670  1.0000
  H   H970      1.0  0.31670  0.68390  0.39580  1.0000
  H   H971      1.0  0.39580  0.81670  0.18390  1.0000
  H   H972      1.0  0.35420  0.93330  0.18390  1.0000
  H   H973      1.0  0.31670  0.06610  0.35420  1.0000
  H   H974      1.0  0.35420  0.81670  0.56610  1.0000
  H   H975      1.0  0.43330  0.06610  0.39580  1.0000
  H   H976      1.0  0.43330  0.68390  0.35420  1.0000
  H   H977      1.0  0.39580  0.93330  0.56610  1.0000
  H   H978      1.0  0.56610  0.85420  0.31670  1.0000
  H   H979      1.0  0.18390  0.85420  0.43330  1.0000
  H   H980      1.0  0.56610  0.89580  0.43330  1.0000
  H   H981      1.0  0.18390  0.39580  0.81670  1.0000
  H   H982      1.0  0.31670  0.18390  0.89580  1.0000
  H   H983      1.0  0.39580  0.31670  0.68390  1.0000
  H   H984      1.0  0.35420  0.43330  0.68390  1.0000
  H   H985      1.0  0.31670  0.56610  0.85420  1.0000
  H   H986      1.0  0.35420  0.31670  0.06610  1.0000
  H   H987      1.0  0.43330  0.56610  0.89580  1.0000
  H   H988      1.0  0.43330  0.18390  0.85420  1.0000
  H   H989      1.0  0.39580  0.43330  0.06610  1.0000
  H   H990      1.0  0.56610  0.35420  0.81670  1.0000
  H   H991      1.0  0.18390  0.35420  0.93330  1.0000
  H   H992      1.0  0.56610  0.39580  0.93330  1.0000
  C   C1729     1.0  0.24870  0.04440  0.22610  1.0000
  C   C1730     1.0  0.22610  0.24870  0.04440  1.0000
  C   C1731     1.0  0.04440  0.22610  0.24870  1.0000
  C   C1732     1.0  0.20560  0.02390  0.24870  1.0000
  C   C1733     1.0  0.22610  0.00130  0.20560  1.0000
  C   C1734     1.0  0.20560  0.22610  0.00130  1.0000
  C   C1735     1.0  0.02390  0.00130  0.04440  1.0000
  C   C1736     1.0  0.02390  0.24870  0.20560  1.0000
  C   C1737     1.0  0.04440  0.02390  0.00130  1.0000
  C   C1738     1.0  0.00130  0.20560  0.22610  1.0000
  C   C1739     1.0  0.24870  0.20560  0.02390  1.0000
  C   C1740     1.0  0.00130  0.04440  0.02390  1.0000
  C   C1741     1.0  0.24870  0.54440  0.72610  1.0000
  C   C1742     1.0  0.22610  0.74870  0.54440  1.0000
  C   C1743     1.0  0.04440  0.72610  0.74870  1.0000
  C   C1744     1.0  0.20560  0.52390  0.74870  1.0000
  C   C1745     1.0  0.22610  0.50130  0.70560  1.0000
  C   C1746     1.0  0.20560  0.72610  0.50130  1.0000
  C   C1747     1.0  0.02390  0.50130  0.54440  1.0000
  C   C1748     1.0  0.02390  0.74870  0.70560  1.0000
  C   C1749     1.0  0.04440  0.52390  0.50130  1.0000
  C   C1750     1.0  0.00130  0.70560  0.72610  1.0000
  C   C1751     1.0  0.24870  0.70560  0.52390  1.0000
  C   C1752     1.0  0.00130  0.54440  0.52390  1.0000
  C   C1753     1.0  0.74870  0.04440  0.72610  1.0000
  C   C1754     1.0  0.72610  0.24870  0.54440  1.0000
  C   C1755     1.0  0.54440  0.22610  0.74870  1.0000
  C   C1756     1.0  0.70560  0.02390  0.74870  1.0000
  C   C1757     1.0  0.72610  0.00130  0.70560  1.0000
  C   C1758     1.0  0.70560  0.22610  0.50130  1.0000
  C   C1759     1.0  0.52390  0.00130  0.54440  1.0000
  C   C1760     1.0  0.52390  0.24870  0.70560  1.0000
  C   C1761     1.0  0.54440  0.02390  0.50130  1.0000
  C   C1762     1.0  0.50130  0.20560  0.72610  1.0000
  C   C1763     1.0  0.74870  0.20560  0.52390  1.0000
  C   C1764     1.0  0.50130  0.04440  0.52390  1.0000
  C   C1765     1.0  0.74870  0.54440  0.22610  1.0000
  C   C1766     1.0  0.72610  0.74870  0.04440  1.0000
  C   C1767     1.0  0.54440  0.72610  0.24870  1.0000
  C   C1768     1.0  0.70560  0.52390  0.24870  1.0000
  C   C1769     1.0  0.72610  0.50130  0.20560  1.0000
  C   C1770     1.0  0.70560  0.72610  0.00130  1.0000
  C   C1771     1.0  0.52390  0.50130  0.04440  1.0000
  C   C1772     1.0  0.52390  0.74870  0.20560  1.0000
  C   C1773     1.0  0.54440  0.52390  0.00130  1.0000
  C   C1774     1.0  0.50130  0.70560  0.22610  1.0000
  C   C1775     1.0  0.74870  0.70560  0.02390  1.0000
  C   C1776     1.0  0.50130  0.54440  0.02390  1.0000
  C   C1777     1.0  0.75130  0.95560  0.77390  1.0000
  C   C1778     1.0  0.77390  0.75130  0.95560  1.0000
  C   C1779     1.0  0.95560  0.77390  0.75130  1.0000
  C   C1780     1.0  0.79440  0.97610  0.75130  1.0000
  C   C1781     1.0  0.77390  0.99870  0.79440  1.0000
  C   C1782     1.0  0.79440  0.77390  0.99870  1.0000
  C   C1783     1.0  0.97610  0.99870  0.95560  1.0000
  C   C1784     1.0  0.97610  0.75130  0.79440  1.0000
  C   C1785     1.0  0.95560  0.97610  0.99870  1.0000
  C   C1786     1.0  0.99870  0.79440  0.77390  1.0000
  C   C1787     1.0  0.75130  0.79440  0.97610  1.0000
  C   C1788     1.0  0.99870  0.95560  0.97610  1.0000
  C   C1789     1.0  0.75130  0.45560  0.27390  1.0000
  C   C1790     1.0  0.77390  0.25130  0.45560  1.0000
  C   C1791     1.0  0.95560  0.27390  0.25130  1.0000
  C   C1792     1.0  0.79440  0.47610  0.25130  1.0000
  C   C1793     1.0  0.77390  0.49870  0.29440  1.0000
  C   C1794     1.0  0.79440  0.27390  0.49870  1.0000
  C   C1795     1.0  0.97610  0.49870  0.45560  1.0000
  C   C1796     1.0  0.97610  0.25130  0.29440  1.0000
  C   C1797     1.0  0.95560  0.47610  0.49870  1.0000
  C   C1798     1.0  0.99870  0.29440  0.27390  1.0000
  C   C1799     1.0  0.75130  0.29440  0.47610  1.0000
  C   C1800     1.0  0.99870  0.45560  0.47610  1.0000
  C   C1801     1.0  0.25130  0.95560  0.27390  1.0000
  C   C1802     1.0  0.27390  0.75130  0.45560  1.0000
  C   C1803     1.0  0.45560  0.77390  0.25130  1.0000
  C   C1804     1.0  0.29440  0.97610  0.25130  1.0000
  C   C1805     1.0  0.27390  0.99870  0.29440  1.0000
  C   C1806     1.0  0.29440  0.77390  0.49870  1.0000
  C   C1807     1.0  0.47610  0.99870  0.45560  1.0000
  C   C1808     1.0  0.47610  0.75130  0.29440  1.0000
  C   C1809     1.0  0.45560  0.97610  0.49870  1.0000
  C   C1810     1.0  0.49870  0.79440  0.27390  1.0000
  C   C1811     1.0  0.25130  0.79440  0.47610  1.0000
  C   C1812     1.0  0.49870  0.95560  0.47610  1.0000
  C   C1813     1.0  0.25130  0.45560  0.77390  1.0000
  C   C1814     1.0  0.27390  0.25130  0.95560  1.0000
  C   C1815     1.0  0.45560  0.27390  0.75130  1.0000
  C   C1816     1.0  0.29440  0.47610  0.75130  1.0000
  C   C1817     1.0  0.27390  0.49870  0.79440  1.0000
  C   C1818     1.0  0.29440  0.27390  0.99870  1.0000
  C   C1819     1.0  0.47610  0.49870  0.95560  1.0000
  C   C1820     1.0  0.47610  0.25130  0.79440  1.0000
  C   C1821     1.0  0.45560  0.47610  0.99870  1.0000
  C   C1822     1.0  0.49870  0.29440  0.77390  1.0000
  C   C1823     1.0  0.25130  0.29440  0.97610  1.0000
  C   C1824     1.0  0.49870  0.45560  0.97610  1.0000
  C   C1825     1.0  0.22680  0.04520  0.24740  1.0000
  C   C1826     1.0  0.24740  0.22680  0.04520  1.0000
  C   C1827     1.0  0.04520  0.24740  0.22680  1.0000
  C   C1828     1.0  0.20480  0.00260  0.22680  1.0000
  C   C1829     1.0  0.24740  0.02320  0.20480  1.0000
  C   C1830     1.0  0.20480  0.24740  0.02320  1.0000
  C   C1831     1.0  0.00260  0.02320  0.04520  1.0000
  C   C1832     1.0  0.00260  0.22680  0.20480  1.0000
  C   C1833     1.0  0.04520  0.00260  0.02320  1.0000
  C   C1834     1.0  0.02320  0.20480  0.24740  1.0000
  C   C1835     1.0  0.22680  0.20480  0.00260  1.0000
  C   C1836     1.0  0.02320  0.04520  0.00260  1.0000
  C   C1837     1.0  0.22680  0.54520  0.74740  1.0000
  C   C1838     1.0  0.24740  0.72680  0.54520  1.0000
  C   C1839     1.0  0.04520  0.74740  0.72680  1.0000
  C   C1840     1.0  0.20480  0.50260  0.72680  1.0000
  C   C1841     1.0  0.24740  0.52320  0.70480  1.0000
  C   C1842     1.0  0.20480  0.74740  0.52320  1.0000
  C   C1843     1.0  0.00260  0.52320  0.54520  1.0000
  C   C1844     1.0  0.00260  0.72680  0.70480  1.0000
  C   C1845     1.0  0.04520  0.50260  0.52320  1.0000
  C   C1846     1.0  0.02320  0.70480  0.74740  1.0000
  C   C1847     1.0  0.22680  0.70480  0.50260  1.0000
  C   C1848     1.0  0.02320  0.54520  0.50260  1.0000
  C   C1849     1.0  0.72680  0.04520  0.74740  1.0000
  C   C1850     1.0  0.74740  0.22680  0.54520  1.0000
  C   C1851     1.0  0.54520  0.24740  0.72680  1.0000
  C   C1852     1.0  0.70480  0.00260  0.72680  1.0000
  C   C1853     1.0  0.74740  0.02320  0.70480  1.0000
  C   C1854     1.0  0.70480  0.24740  0.52320  1.0000
  C   C1855     1.0  0.50260  0.02320  0.54520  1.0000
  C   C1856     1.0  0.50260  0.22680  0.70480  1.0000
  C   C1857     1.0  0.54520  0.00260  0.52320  1.0000
  C   C1858     1.0  0.52320  0.20480  0.74740  1.0000
  C   C1859     1.0  0.72680  0.20480  0.50260  1.0000
  C   C1860     1.0  0.52320  0.04520  0.50260  1.0000
  C   C1861     1.0  0.72680  0.54520  0.24740  1.0000
  C   C1862     1.0  0.74740  0.72680  0.04520  1.0000
  C   C1863     1.0  0.54520  0.74740  0.22680  1.0000
  C   C1864     1.0  0.70480  0.50260  0.22680  1.0000
  C   C1865     1.0  0.74740  0.52320  0.20480  1.0000
  C   C1866     1.0  0.70480  0.74740  0.02320  1.0000
  C   C1867     1.0  0.50260  0.52320  0.04520  1.0000
  C   C1868     1.0  0.50260  0.72680  0.20480  1.0000
  C   C1869     1.0  0.54520  0.50260  0.02320  1.0000
  C   C1870     1.0  0.52320  0.70480  0.24740  1.0000
  C   C1871     1.0  0.72680  0.70480  0.00260  1.0000
  C   C1872     1.0  0.52320  0.54520  0.00260  1.0000
  C   C1873     1.0  0.77320  0.95480  0.75260  1.0000
  C   C1874     1.0  0.75260  0.77320  0.95480  1.0000
  C   C1875     1.0  0.95480  0.75260  0.77320  1.0000
  C   C1876     1.0  0.79520  0.99740  0.77320  1.0000
  C   C1877     1.0  0.75260  0.97680  0.79520  1.0000
  C   C1878     1.0  0.79520  0.75260  0.97680  1.0000
  C   C1879     1.0  0.99740  0.97680  0.95480  1.0000
  C   C1880     1.0  0.99740  0.77320  0.79520  1.0000
  C   C1881     1.0  0.95480  0.99740  0.97680  1.0000
  C   C1882     1.0  0.97680  0.79520  0.75260  1.0000
  C   C1883     1.0  0.77320  0.79520  0.99740  1.0000
  C   C1884     1.0  0.97680  0.95480  0.99740  1.0000
  C   C1885     1.0  0.77320  0.45480  0.25260  1.0000
  C   C1886     1.0  0.75260  0.27320  0.45480  1.0000
  C   C1887     1.0  0.95480  0.25260  0.27320  1.0000
  C   C1888     1.0  0.79520  0.49740  0.27320  1.0000
  C   C1889     1.0  0.75260  0.47680  0.29520  1.0000
  C   C1890     1.0  0.79520  0.25260  0.47680  1.0000
  C   C1891     1.0  0.99740  0.47680  0.45480  1.0000
  C   C1892     1.0  0.99740  0.27320  0.29520  1.0000
  C   C1893     1.0  0.95480  0.49740  0.47680  1.0000
  C   C1894     1.0  0.97680  0.29520  0.25260  1.0000
  C   C1895     1.0  0.77320  0.29520  0.49740  1.0000
  C   C1896     1.0  0.97680  0.45480  0.49740  1.0000
  C   C1897     1.0  0.27320  0.95480  0.25260  1.0000
  C   C1898     1.0  0.25260  0.77320  0.45480  1.0000
  C   C1899     1.0  0.45480  0.75260  0.27320  1.0000
  C   C1900     1.0  0.29520  0.99740  0.27320  1.0000
  C   C1901     1.0  0.25260  0.97680  0.29520  1.0000
  C   C1902     1.0  0.29520  0.75260  0.47680  1.0000
  C   C1903     1.0  0.49740  0.97680  0.45480  1.0000
  C   C1904     1.0  0.49740  0.77320  0.29520  1.0000
  C   C1905     1.0  0.45480  0.99740  0.47680  1.0000
  C   C1906     1.0  0.47680  0.79520  0.25260  1.0000
  C   C1907     1.0  0.27320  0.79520  0.49740  1.0000
  C   C1908     1.0  0.47680  0.95480  0.49740  1.0000
  C   C1909     1.0  0.27320  0.45480  0.75260  1.0000
  C   C1910     1.0  0.25260  0.27320  0.95480  1.0000
  C   C1911     1.0  0.45480  0.25260  0.77320  1.0000
  C   C1912     1.0  0.29520  0.49740  0.77320  1.0000
  C   C1913     1.0  0.25260  0.47680  0.79520  1.0000
  C   C1914     1.0  0.29520  0.25260  0.97680  1.0000
  C   C1915     1.0  0.49740  0.47680  0.95480  1.0000
  C   C1916     1.0  0.49740  0.27320  0.79520  1.0000
  C   C1917     1.0  0.45480  0.49740  0.97680  1.0000
  C   C1918     1.0  0.47680  0.29520  0.75260  1.0000
  C   C1919     1.0  0.27320  0.29520  0.99740  1.0000
  C   C1920     1.0  0.47680  0.45480  0.99740  1.0000
  H   H993      1.0  0.22650  0.06080  0.26130  1.0000
  H   H994      1.0  0.26130  0.22650  0.06080  1.0000
  H   H995      1.0  0.06080  0.26130  0.22650  1.0000
  H   H996      1.0  0.18920  0.98870  0.22650  1.0000
  H   H997      1.0  0.26130  0.02350  0.18920  1.0000
  H   H998      1.0  0.18920  0.26130  0.02350  1.0000
  H   H999      1.0  0.98870  0.02350  0.06080  1.0000
  H   H1000     1.0  0.98870  0.22650  0.18920  1.0000
  H   H1001     1.0  0.06080  0.98870  0.02350  1.0000
  H   H1002     1.0  0.02350  0.18920  0.26130  1.0000
  H   H1003     1.0  0.22650  0.18920  0.98870  1.0000
  H   H1004     1.0  0.02350  0.06080  0.98870  1.0000
  H   H1005     1.0  0.22650  0.56080  0.76130  1.0000
  H   H1006     1.0  0.26130  0.72650  0.56080  1.0000
  H   H1007     1.0  0.06080  0.76130  0.72650  1.0000
  H   H1008     1.0  0.18920  0.48870  0.72650  1.0000
  H   H1009     1.0  0.26130  0.52350  0.68920  1.0000
  H   H1010     1.0  0.18920  0.76130  0.52350  1.0000
  H   H1011     1.0  0.98870  0.52350  0.56080  1.0000
  H   H1012     1.0  0.98870  0.72650  0.68920  1.0000
  H   H1013     1.0  0.06080  0.48870  0.52350  1.0000
  H   H1014     1.0  0.02350  0.68920  0.76130  1.0000
  H   H1015     1.0  0.22650  0.68920  0.48870  1.0000
  H   H1016     1.0  0.02350  0.56080  0.48870  1.0000
  H   H1017     1.0  0.72650  0.06080  0.76130  1.0000
  H   H1018     1.0  0.76130  0.22650  0.56080  1.0000
  H   H1019     1.0  0.56080  0.26130  0.72650  1.0000
  H   H1020     1.0  0.68920  0.98870  0.72650  1.0000
  H   H1021     1.0  0.76130  0.02350  0.68920  1.0000
  H   H1022     1.0  0.68920  0.26130  0.52350  1.0000
  H   H1023     1.0  0.48870  0.02350  0.56080  1.0000
  H   H1024     1.0  0.48870  0.22650  0.68920  1.0000
  H   H1025     1.0  0.56080  0.98870  0.52350  1.0000
  H   H1026     1.0  0.52350  0.18920  0.76130  1.0000
  H   H1027     1.0  0.72650  0.18920  0.48870  1.0000
  H   H1028     1.0  0.52350  0.06080  0.48870  1.0000
  H   H1029     1.0  0.72650  0.56080  0.26130  1.0000
  H   H1030     1.0  0.76130  0.72650  0.06080  1.0000
  H   H1031     1.0  0.56080  0.76130  0.22650  1.0000
  H   H1032     1.0  0.68920  0.48870  0.22650  1.0000
  H   H1033     1.0  0.76130  0.52350  0.18920  1.0000
  H   H1034     1.0  0.68920  0.76130  0.02350  1.0000
  H   H1035     1.0  0.48870  0.52350  0.06080  1.0000
  H   H1036     1.0  0.48870  0.72650  0.18920  1.0000
  H   H1037     1.0  0.56080  0.48870  0.02350  1.0000
  H   H1038     1.0  0.52350  0.68920  0.26130  1.0000
  H   H1039     1.0  0.72650  0.68920  0.98870  1.0000
  H   H1040     1.0  0.52350  0.56080  0.98870  1.0000
  H   H1041     1.0  0.77350  0.93920  0.73870  1.0000
  H   H1042     1.0  0.73870  0.77350  0.93920  1.0000
  H   H1043     1.0  0.93920  0.73870  0.77350  1.0000
  H   H1044     1.0  0.81080  0.01130  0.77350  1.0000
  H   H1045     1.0  0.73870  0.97650  0.81080  1.0000
  H   H1046     1.0  0.81080  0.73870  0.97650  1.0000
  H   H1047     1.0  0.01130  0.97650  0.93920  1.0000
  H   H1048     1.0  0.01130  0.77350  0.81080  1.0000
  H   H1049     1.0  0.93920  0.01130  0.97650  1.0000
  H   H1050     1.0  0.97650  0.81080  0.73870  1.0000
  H   H1051     1.0  0.77350  0.81080  0.01130  1.0000
  H   H1052     1.0  0.97650  0.93920  0.01130  1.0000
  H   H1053     1.0  0.77350  0.43920  0.23870  1.0000
  H   H1054     1.0  0.73870  0.27350  0.43920  1.0000
  H   H1055     1.0  0.93920  0.23870  0.27350  1.0000
  H   H1056     1.0  0.81080  0.51130  0.27350  1.0000
  H   H1057     1.0  0.73870  0.47650  0.31080  1.0000
  H   H1058     1.0  0.81080  0.23870  0.47650  1.0000
  H   H1059     1.0  0.01130  0.47650  0.43920  1.0000
  H   H1060     1.0  0.01130  0.27350  0.31080  1.0000
  H   H1061     1.0  0.93920  0.51130  0.47650  1.0000
  H   H1062     1.0  0.97650  0.31080  0.23870  1.0000
  H   H1063     1.0  0.77350  0.31080  0.51130  1.0000
  H   H1064     1.0  0.97650  0.43920  0.51130  1.0000
  H   H1065     1.0  0.27350  0.93920  0.23870  1.0000
  H   H1066     1.0  0.23870  0.77350  0.43920  1.0000
  H   H1067     1.0  0.43920  0.73870  0.27350  1.0000
  H   H1068     1.0  0.31080  0.01130  0.27350  1.0000
  H   H1069     1.0  0.23870  0.97650  0.31080  1.0000
  H   H1070     1.0  0.31080  0.73870  0.47650  1.0000
  H   H1071     1.0  0.51130  0.97650  0.43920  1.0000
  H   H1072     1.0  0.51130  0.77350  0.31080  1.0000
  H   H1073     1.0  0.43920  0.01130  0.47650  1.0000
  H   H1074     1.0  0.47650  0.81080  0.23870  1.0000
  H   H1075     1.0  0.27350  0.81080  0.51130  1.0000
  H   H1076     1.0  0.47650  0.93920  0.51130  1.0000
  H   H1077     1.0  0.27350  0.43920  0.73870  1.0000
  H   H1078     1.0  0.23870  0.27350  0.93920  1.0000
  H   H1079     1.0  0.43920  0.23870  0.77350  1.0000
  H   H1080     1.0  0.31080  0.51130  0.77350  1.0000
  H   H1081     1.0  0.23870  0.47650  0.81080  1.0000
  H   H1082     1.0  0.31080  0.23870  0.97650  1.0000
  H   H1083     1.0  0.51130  0.47650  0.93920  1.0000
  H   H1084     1.0  0.51130  0.27350  0.81080  1.0000
  H   H1085     1.0  0.43920  0.51130  0.97650  1.0000
  H   H1086     1.0  0.47650  0.31080  0.73870  1.0000
  H   H1087     1.0  0.27350  0.31080  0.01130  1.0000
  H   H1088     1.0  0.47650  0.43920  0.01130  1.0000
  O   O513      1.0  0.40500  0.21170  0.31150  1.0000
  O   O514      1.0  0.31150  0.40500  0.21170  1.0000
  O   O515      1.0  0.21170  0.31150  0.40500  1.0000
  O   O516      1.0  0.03830  0.93850  0.40500  1.0000
  O   O517      1.0  0.31150  0.84500  0.03830  1.0000
  O   O518      1.0  0.03830  0.31150  0.84500  1.0000
  O   O519      1.0  0.93850  0.84500  0.21170  1.0000
  O   O520      1.0  0.93850  0.40500  0.03830  1.0000
  O   O521      1.0  0.21170  0.93850  0.84500  1.0000
  O   O522      1.0  0.84500  0.03830  0.31150  1.0000
  O   O523      1.0  0.40500  0.03830  0.93850  1.0000
  O   O524      1.0  0.84500  0.21170  0.93850  1.0000
  O   O525      1.0  0.40500  0.71170  0.81150  1.0000
  O   O526      1.0  0.31150  0.90500  0.71170  1.0000
  O   O527      1.0  0.21170  0.81150  0.90500  1.0000
  O   O528      1.0  0.03830  0.43850  0.90500  1.0000
  O   O529      1.0  0.31150  0.34500  0.53830  1.0000
  O   O530      1.0  0.03830  0.81150  0.34500  1.0000
  O   O531      1.0  0.93850  0.34500  0.71170  1.0000
  O   O532      1.0  0.93850  0.90500  0.53830  1.0000
  O   O533      1.0  0.21170  0.43850  0.34500  1.0000
  O   O534      1.0  0.84500  0.53830  0.81150  1.0000
  O   O535      1.0  0.40500  0.53830  0.43850  1.0000
  O   O536      1.0  0.84500  0.71170  0.43850  1.0000
  O   O537      1.0  0.90500  0.21170  0.81150  1.0000
  O   O538      1.0  0.81150  0.40500  0.71170  1.0000
  O   O539      1.0  0.71170  0.31150  0.90500  1.0000
  O   O540      1.0  0.53830  0.93850  0.90500  1.0000
  O   O541      1.0  0.81150  0.84500  0.53830  1.0000
  O   O542      1.0  0.53830  0.31150  0.34500  1.0000
  O   O543      1.0  0.43850  0.84500  0.71170  1.0000
  O   O544      1.0  0.43850  0.40500  0.53830  1.0000
  O   O545      1.0  0.71170  0.93850  0.34500  1.0000
  O   O546      1.0  0.34500  0.03830  0.81150  1.0000
  O   O547      1.0  0.90500  0.03830  0.43850  1.0000
  O   O548      1.0  0.34500  0.21170  0.43850  1.0000
  O   O549      1.0  0.90500  0.71170  0.31150  1.0000
  O   O550      1.0  0.81150  0.90500  0.21170  1.0000
  O   O551      1.0  0.71170  0.81150  0.40500  1.0000
  O   O552      1.0  0.53830  0.43850  0.40500  1.0000
  O   O553      1.0  0.81150  0.34500  0.03830  1.0000
  O   O554      1.0  0.53830  0.81150  0.84500  1.0000
  O   O555      1.0  0.43850  0.34500  0.21170  1.0000
  O   O556      1.0  0.43850  0.90500  0.03830  1.0000
  O   O557      1.0  0.71170  0.43850  0.84500  1.0000
  O   O558      1.0  0.34500  0.53830  0.31150  1.0000
  O   O559      1.0  0.90500  0.53830  0.93850  1.0000
  O   O560      1.0  0.34500  0.71170  0.93850  1.0000
  O   O561      1.0  0.59500  0.78830  0.68850  1.0000
  O   O562      1.0  0.68850  0.59500  0.78830  1.0000
  O   O563      1.0  0.78830  0.68850  0.59500  1.0000
  O   O564      1.0  0.96170  0.06150  0.59500  1.0000
  O   O565      1.0  0.68850  0.15500  0.96170  1.0000
  O   O566      1.0  0.96170  0.68850  0.15500  1.0000
  O   O567      1.0  0.06150  0.15500  0.78830  1.0000
  O   O568      1.0  0.06150  0.59500  0.96170  1.0000
  O   O569      1.0  0.78830  0.06150  0.15500  1.0000
  O   O570      1.0  0.15500  0.96170  0.68850  1.0000
  O   O571      1.0  0.59500  0.96170  0.06150  1.0000
  O   O572      1.0  0.15500  0.78830  0.06150  1.0000
  O   O573      1.0  0.59500  0.28830  0.18850  1.0000
  O   O574      1.0  0.68850  0.09500  0.28830  1.0000
  O   O575      1.0  0.78830  0.18850  0.09500  1.0000
  O   O576      1.0  0.96170  0.56150  0.09500  1.0000
  O   O577      1.0  0.68850  0.65500  0.46170  1.0000
  O   O578      1.0  0.96170  0.18850  0.65500  1.0000
  O   O579      1.0  0.06150  0.65500  0.28830  1.0000
  O   O580      1.0  0.06150  0.09500  0.46170  1.0000
  O   O581      1.0  0.78830  0.56150  0.65500  1.0000
  O   O582      1.0  0.15500  0.46170  0.18850  1.0000
  O   O583      1.0  0.59500  0.46170  0.56150  1.0000
  O   O584      1.0  0.15500  0.28830  0.56150  1.0000
  O   O585      1.0  0.09500  0.78830  0.18850  1.0000
  O   O586      1.0  0.18850  0.59500  0.28830  1.0000
  O   O587      1.0  0.28830  0.68850  0.09500  1.0000
  O   O588      1.0  0.46170  0.06150  0.09500  1.0000
  O   O589      1.0  0.18850  0.15500  0.46170  1.0000
  O   O590      1.0  0.46170  0.68850  0.65500  1.0000
  O   O591      1.0  0.56150  0.15500  0.28830  1.0000
  O   O592      1.0  0.56150  0.59500  0.46170  1.0000
  O   O593      1.0  0.28830  0.06150  0.65500  1.0000
  O   O594      1.0  0.65500  0.96170  0.18850  1.0000
  O   O595      1.0  0.09500  0.96170  0.56150  1.0000
  O   O596      1.0  0.65500  0.78830  0.56150  1.0000
  O   O597      1.0  0.09500  0.28830  0.68850  1.0000
  O   O598      1.0  0.18850  0.09500  0.78830  1.0000
  O   O599      1.0  0.28830  0.18850  0.59500  1.0000
  O   O600      1.0  0.46170  0.56150  0.59500  1.0000
  O   O601      1.0  0.18850  0.65500  0.96170  1.0000
  O   O602      1.0  0.46170  0.18850  0.15500  1.0000
  O   O603      1.0  0.56150  0.65500  0.78830  1.0000
  O   O604      1.0  0.56150  0.09500  0.96170  1.0000
  O   O605      1.0  0.28830  0.56150  0.15500  1.0000
  O   O606      1.0  0.65500  0.46170  0.68850  1.0000
  O   O607      1.0  0.09500  0.46170  0.06150  1.0000
  O   O608      1.0  0.65500  0.28830  0.06150  1.0000
  C   C1921     1.0  0.38890  0.20070  0.33010  1.0000
  C   C1922     1.0  0.33010  0.38890  0.20070  1.0000
  C   C1923     1.0  0.20070  0.33010  0.38890  1.0000
  C   C1924     1.0  0.04930  0.91990  0.38890  1.0000
  C   C1925     1.0  0.33010  0.86110  0.04930  1.0000
  C   C1926     1.0  0.04930  0.33010  0.86110  1.0000
  C   C1927     1.0  0.91990  0.86110  0.20070  1.0000
  C   C1928     1.0  0.91990  0.38890  0.04930  1.0000
  C   C1929     1.0  0.20070  0.91990  0.86110  1.0000
  C   C1930     1.0  0.86110  0.04930  0.33010  1.0000
  C   C1931     1.0  0.38890  0.04930  0.91990  1.0000
  C   C1932     1.0  0.86110  0.20070  0.91990  1.0000
  C   C1933     1.0  0.38890  0.70070  0.83010  1.0000
  C   C1934     1.0  0.33010  0.88890  0.70070  1.0000
  C   C1935     1.0  0.20070  0.83010  0.88890  1.0000
  C   C1936     1.0  0.04930  0.41990  0.88890  1.0000
  C   C1937     1.0  0.33010  0.36110  0.54930  1.0000
  C   C1938     1.0  0.04930  0.83010  0.36110  1.0000
  C   C1939     1.0  0.91990  0.36110  0.70070  1.0000
  C   C1940     1.0  0.91990  0.88890  0.54930  1.0000
  C   C1941     1.0  0.20070  0.41990  0.36110  1.0000
  C   C1942     1.0  0.86110  0.54930  0.83010  1.0000
  C   C1943     1.0  0.38890  0.54930  0.41990  1.0000
  C   C1944     1.0  0.86110  0.70070  0.41990  1.0000
  C   C1945     1.0  0.88890  0.20070  0.83010  1.0000
  C   C1946     1.0  0.83010  0.38890  0.70070  1.0000
  C   C1947     1.0  0.70070  0.33010  0.88890  1.0000
  C   C1948     1.0  0.54930  0.91990  0.88890  1.0000
  C   C1949     1.0  0.83010  0.86110  0.54930  1.0000
  C   C1950     1.0  0.54930  0.33010  0.36110  1.0000
  C   C1951     1.0  0.41990  0.86110  0.70070  1.0000
  C   C1952     1.0  0.41990  0.38890  0.54930  1.0000
  C   C1953     1.0  0.70070  0.91990  0.36110  1.0000
  C   C1954     1.0  0.36110  0.04930  0.83010  1.0000
  C   C1955     1.0  0.88890  0.04930  0.41990  1.0000
  C   C1956     1.0  0.36110  0.20070  0.41990  1.0000
  C   C1957     1.0  0.88890  0.70070  0.33010  1.0000
  C   C1958     1.0  0.83010  0.88890  0.20070  1.0000
  C   C1959     1.0  0.70070  0.83010  0.38890  1.0000
  C   C1960     1.0  0.54930  0.41990  0.38890  1.0000
  C   C1961     1.0  0.83010  0.36110  0.04930  1.0000
  C   C1962     1.0  0.54930  0.83010  0.86110  1.0000
  C   C1963     1.0  0.41990  0.36110  0.20070  1.0000
  C   C1964     1.0  0.41990  0.88890  0.04930  1.0000
  C   C1965     1.0  0.70070  0.41990  0.86110  1.0000
  C   C1966     1.0  0.36110  0.54930  0.33010  1.0000
  C   C1967     1.0  0.88890  0.54930  0.91990  1.0000
  C   C1968     1.0  0.36110  0.70070  0.91990  1.0000
  C   C1969     1.0  0.61110  0.79930  0.66990  1.0000
  C   C1970     1.0  0.66990  0.61110  0.79930  1.0000
  C   C1971     1.0  0.79930  0.66990  0.61110  1.0000
  C   C1972     1.0  0.95070  0.08010  0.61110  1.0000
  C   C1973     1.0  0.66990  0.13890  0.95070  1.0000
  C   C1974     1.0  0.95070  0.66990  0.13890  1.0000
  C   C1975     1.0  0.08010  0.13890  0.79930  1.0000
  C   C1976     1.0  0.08010  0.61110  0.95070  1.0000
  C   C1977     1.0  0.79930  0.08010  0.13890  1.0000
  C   C1978     1.0  0.13890  0.95070  0.66990  1.0000
  C   C1979     1.0  0.61110  0.95070  0.08010  1.0000
  C   C1980     1.0  0.13890  0.79930  0.08010  1.0000
  C   C1981     1.0  0.61110  0.29930  0.16990  1.0000
  C   C1982     1.0  0.66990  0.11110  0.29930  1.0000
  C   C1983     1.0  0.79930  0.16990  0.11110  1.0000
  C   C1984     1.0  0.95070  0.58010  0.11110  1.0000
  C   C1985     1.0  0.66990  0.63890  0.45070  1.0000
  C   C1986     1.0  0.95070  0.16990  0.63890  1.0000
  C   C1987     1.0  0.08010  0.63890  0.29930  1.0000
  C   C1988     1.0  0.08010  0.11110  0.45070  1.0000
  C   C1989     1.0  0.79930  0.58010  0.63890  1.0000
  C   C1990     1.0  0.13890  0.45070  0.16990  1.0000
  C   C1991     1.0  0.61110  0.45070  0.58010  1.0000
  C   C1992     1.0  0.13890  0.29930  0.58010  1.0000
  C   C1993     1.0  0.11110  0.79930  0.16990  1.0000
  C   C1994     1.0  0.16990  0.61110  0.29930  1.0000
  C   C1995     1.0  0.29930  0.66990  0.11110  1.0000
  C   C1996     1.0  0.45070  0.08010  0.11110  1.0000
  C   C1997     1.0  0.16990  0.13890  0.45070  1.0000
  C   C1998     1.0  0.45070  0.66990  0.63890  1.0000
  C   C1999     1.0  0.58010  0.13890  0.29930  1.0000
  C   C2000     1.0  0.58010  0.61110  0.45070  1.0000
  C   C2001     1.0  0.29930  0.08010  0.63890  1.0000
  C   C2002     1.0  0.63890  0.95070  0.16990  1.0000
  C   C2003     1.0  0.11110  0.95070  0.58010  1.0000
  C   C2004     1.0  0.63890  0.79930  0.58010  1.0000
  C   C2005     1.0  0.11110  0.29930  0.66990  1.0000
  C   C2006     1.0  0.16990  0.11110  0.79930  1.0000
  C   C2007     1.0  0.29930  0.16990  0.61110  1.0000
  C   C2008     1.0  0.45070  0.58010  0.61110  1.0000
  C   C2009     1.0  0.16990  0.63890  0.95070  1.0000
  C   C2010     1.0  0.45070  0.16990  0.13890  1.0000
  C   C2011     1.0  0.58010  0.63890  0.79930  1.0000
  C   C2012     1.0  0.58010  0.11110  0.95070  1.0000
  C   C2013     1.0  0.29930  0.58010  0.13890  1.0000
  C   C2014     1.0  0.63890  0.45070  0.66990  1.0000
  C   C2015     1.0  0.11110  0.45070  0.08010  1.0000
  C   C2016     1.0  0.63890  0.29930  0.08010  1.0000
  H   H1089     1.0  0.39410  0.20790  0.34890  1.0000
  H   H1090     1.0  0.34890  0.39410  0.20790  1.0000
  H   H1091     1.0  0.20790  0.34890  0.39410  1.0000
  H   H1092     1.0  0.04210  0.90110  0.39410  1.0000
  H   H1093     1.0  0.34890  0.85590  0.04210  1.0000
  H   H1094     1.0  0.04210  0.34890  0.85590  1.0000
  H   H1095     1.0  0.90110  0.85590  0.20790  1.0000
  H   H1096     1.0  0.90110  0.39410  0.04210  1.0000
  H   H1097     1.0  0.20790  0.90110  0.85590  1.0000
  H   H1098     1.0  0.85590  0.04210  0.34890  1.0000
  H   H1099     1.0  0.39410  0.04210  0.90110  1.0000
  H   H1100     1.0  0.85590  0.20790  0.90110  1.0000
  H   H1101     1.0  0.39410  0.70790  0.84890  1.0000
  H   H1102     1.0  0.34890  0.89410  0.70790  1.0000
  H   H1103     1.0  0.20790  0.84890  0.89410  1.0000
  H   H1104     1.0  0.04210  0.40110  0.89410  1.0000
  H   H1105     1.0  0.34890  0.35590  0.54210  1.0000
  H   H1106     1.0  0.04210  0.84890  0.35590  1.0000
  H   H1107     1.0  0.90110  0.35590  0.70790  1.0000
  H   H1108     1.0  0.90110  0.89410  0.54210  1.0000
  H   H1109     1.0  0.20790  0.40110  0.35590  1.0000
  H   H1110     1.0  0.85590  0.54210  0.84890  1.0000
  H   H1111     1.0  0.39410  0.54210  0.40110  1.0000
  H   H1112     1.0  0.85590  0.70790  0.40110  1.0000
  H   H1113     1.0  0.89410  0.20790  0.84890  1.0000
  H   H1114     1.0  0.84890  0.39410  0.70790  1.0000
  H   H1115     1.0  0.70790  0.34890  0.89410  1.0000
  H   H1116     1.0  0.54210  0.90110  0.89410  1.0000
  H   H1117     1.0  0.84890  0.85590  0.54210  1.0000
  H   H1118     1.0  0.54210  0.34890  0.35590  1.0000
  H   H1119     1.0  0.40110  0.85590  0.70790  1.0000
  H   H1120     1.0  0.40110  0.39410  0.54210  1.0000
  H   H1121     1.0  0.70790  0.90110  0.35590  1.0000
  H   H1122     1.0  0.35590  0.04210  0.84890  1.0000
  H   H1123     1.0  0.89410  0.04210  0.40110  1.0000
  H   H1124     1.0  0.35590  0.20790  0.40110  1.0000
  H   H1125     1.0  0.89410  0.70790  0.34890  1.0000
  H   H1126     1.0  0.84890  0.89410  0.20790  1.0000
  H   H1127     1.0  0.70790  0.84890  0.39410  1.0000
  H   H1128     1.0  0.54210  0.40110  0.39410  1.0000
  H   H1129     1.0  0.84890  0.35590  0.04210  1.0000
  H   H1130     1.0  0.54210  0.84890  0.85590  1.0000
  H   H1131     1.0  0.40110  0.35590  0.20790  1.0000
  H   H1132     1.0  0.40110  0.89410  0.04210  1.0000
  H   H1133     1.0  0.70790  0.40110  0.85590  1.0000
  H   H1134     1.0  0.35590  0.54210  0.34890  1.0000
  H   H1135     1.0  0.89410  0.54210  0.90110  1.0000
  H   H1136     1.0  0.35590  0.70790  0.90110  1.0000
  H   H1137     1.0  0.60590  0.79210  0.65110  1.0000
  H   H1138     1.0  0.65110  0.60590  0.79210  1.0000
  H   H1139     1.0  0.79210  0.65110  0.60590  1.0000
  H   H1140     1.0  0.95790  0.09890  0.60590  1.0000
  H   H1141     1.0  0.65110  0.14410  0.95790  1.0000
  H   H1142     1.0  0.95790  0.65110  0.14410  1.0000
  H   H1143     1.0  0.09890  0.14410  0.79210  1.0000
  H   H1144     1.0  0.09890  0.60590  0.95790  1.0000
  H   H1145     1.0  0.79210  0.09890  0.14410  1.0000
  H   H1146     1.0  0.14410  0.95790  0.65110  1.0000
  H   H1147     1.0  0.60590  0.95790  0.09890  1.0000
  H   H1148     1.0  0.14410  0.79210  0.09890  1.0000
  H   H1149     1.0  0.60590  0.29210  0.15110  1.0000
  H   H1150     1.0  0.65110  0.10590  0.29210  1.0000
  H   H1151     1.0  0.79210  0.15110  0.10590  1.0000
  H   H1152     1.0  0.95790  0.59890  0.10590  1.0000
  H   H1153     1.0  0.65110  0.64410  0.45790  1.0000
  H   H1154     1.0  0.95790  0.15110  0.64410  1.0000
  H   H1155     1.0  0.09890  0.64410  0.29210  1.0000
  H   H1156     1.0  0.09890  0.10590  0.45790  1.0000
  H   H1157     1.0  0.79210  0.59890  0.64410  1.0000
  H   H1158     1.0  0.14410  0.45790  0.15110  1.0000
  H   H1159     1.0  0.60590  0.45790  0.59890  1.0000
  H   H1160     1.0  0.14410  0.29210  0.59890  1.0000
  H   H1161     1.0  0.10590  0.79210  0.15110  1.0000
  H   H1162     1.0  0.15110  0.60590  0.29210  1.0000
  H   H1163     1.0  0.29210  0.65110  0.10590  1.0000
  H   H1164     1.0  0.45790  0.09890  0.10590  1.0000
  H   H1165     1.0  0.15110  0.14410  0.45790  1.0000
  H   H1166     1.0  0.45790  0.65110  0.64410  1.0000
  H   H1167     1.0  0.59890  0.14410  0.29210  1.0000
  H   H1168     1.0  0.59890  0.60590  0.45790  1.0000
  H   H1169     1.0  0.29210  0.09890  0.64410  1.0000
  H   H1170     1.0  0.64410  0.95790  0.15110  1.0000
  H   H1171     1.0  0.10590  0.95790  0.59890  1.0000
  H   H1172     1.0  0.64410  0.79210  0.59890  1.0000
  H   H1173     1.0  0.10590  0.29210  0.65110  1.0000
  H   H1174     1.0  0.15110  0.10590  0.79210  1.0000
  H   H1175     1.0  0.29210  0.15110  0.60590  1.0000
  H   H1176     1.0  0.45790  0.59890  0.60590  1.0000
  H   H1177     1.0  0.15110  0.64410  0.95790  1.0000
  H   H1178     1.0  0.45790  0.15110  0.14410  1.0000
  H   H1179     1.0  0.59890  0.64410  0.79210  1.0000
  H   H1180     1.0  0.59890  0.10590  0.95790  1.0000
  H   H1181     1.0  0.29210  0.59890  0.14410  1.0000
  H   H1182     1.0  0.64410  0.45790  0.65110  1.0000
  H   H1183     1.0  0.10590  0.45790  0.09890  1.0000
  H   H1184     1.0  0.64410  0.29210  0.09890  1.0000
  N   N1        1.0  0.36670  0.18210  0.33270  1.0000
  N   N2        1.0  0.33270  0.36670  0.18210  1.0000
  N   N3        1.0  0.18210  0.33270  0.36670  1.0000
  N   N4        1.0  0.06790  0.91730  0.36670  1.0000
  N   N5        1.0  0.33270  0.88330  0.06790  1.0000
  N   N6        1.0  0.06790  0.33270  0.88330  1.0000
  N   N7        1.0  0.91730  0.88330  0.18210  1.0000
  N   N8        1.0  0.91730  0.36670  0.06790  1.0000
  N   N9        1.0  0.18210  0.91730  0.88330  1.0000
  N   N10       1.0  0.88330  0.06790  0.33270  1.0000
  N   N11       1.0  0.36670  0.06790  0.91730  1.0000
  N   N12       1.0  0.88330  0.18210  0.91730  1.0000
  N   N13       1.0  0.36670  0.68210  0.83270  1.0000
  N   N14       1.0  0.33270  0.86670  0.68210  1.0000
  N   N15       1.0  0.18210  0.83270  0.86670  1.0000
  N   N16       1.0  0.06790  0.41730  0.86670  1.0000
  N   N17       1.0  0.33270  0.38330  0.56790  1.0000
  N   N18       1.0  0.06790  0.83270  0.38330  1.0000
  N   N19       1.0  0.91730  0.38330  0.68210  1.0000
  N   N20       1.0  0.91730  0.86670  0.56790  1.0000
  N   N21       1.0  0.18210  0.41730  0.38330  1.0000
  N   N22       1.0  0.88330  0.56790  0.83270  1.0000
  N   N23       1.0  0.36670  0.56790  0.41730  1.0000
  N   N24       1.0  0.88330  0.68210  0.41730  1.0000
  N   N25       1.0  0.86670  0.18210  0.83270  1.0000
  N   N26       1.0  0.83270  0.36670  0.68210  1.0000
  N   N27       1.0  0.68210  0.33270  0.86670  1.0000
  N   N28       1.0  0.56790  0.91730  0.86670  1.0000
  N   N29       1.0  0.83270  0.88330  0.56790  1.0000
  N   N30       1.0  0.56790  0.33270  0.38330  1.0000
  N   N31       1.0  0.41730  0.88330  0.68210  1.0000
  N   N32       1.0  0.41730  0.36670  0.56790  1.0000
  N   N33       1.0  0.68210  0.91730  0.38330  1.0000
  N   N34       1.0  0.38330  0.06790  0.83270  1.0000
  N   N35       1.0  0.86670  0.06790  0.41730  1.0000
  N   N36       1.0  0.38330  0.18210  0.41730  1.0000
  N   N37       1.0  0.86670  0.68210  0.33270  1.0000
  N   N38       1.0  0.83270  0.86670  0.18210  1.0000
  N   N39       1.0  0.68210  0.83270  0.36670  1.0000
  N   N40       1.0  0.56790  0.41730  0.36670  1.0000
  N   N41       1.0  0.83270  0.38330  0.06790  1.0000
  N   N42       1.0  0.56790  0.83270  0.88330  1.0000
  N   N43       1.0  0.41730  0.38330  0.18210  1.0000
  N   N44       1.0  0.41730  0.86670  0.06790  1.0000
  N   N45       1.0  0.68210  0.41730  0.88330  1.0000
  N   N46       1.0  0.38330  0.56790  0.33270  1.0000
  N   N47       1.0  0.86670  0.56790  0.91730  1.0000
  N   N48       1.0  0.38330  0.68210  0.91730  1.0000
  N   N49       1.0  0.63330  0.81790  0.66730  1.0000
  N   N50       1.0  0.66730  0.63330  0.81790  1.0000
  N   N51       1.0  0.81790  0.66730  0.63330  1.0000
  N   N52       1.0  0.93210  0.08270  0.63330  1.0000
  N   N53       1.0  0.66730  0.11670  0.93210  1.0000
  N   N54       1.0  0.93210  0.66730  0.11670  1.0000
  N   N55       1.0  0.08270  0.11670  0.81790  1.0000
  N   N56       1.0  0.08270  0.63330  0.93210  1.0000
  N   N57       1.0  0.81790  0.08270  0.11670  1.0000
  N   N58       1.0  0.11670  0.93210  0.66730  1.0000
  N   N59       1.0  0.63330  0.93210  0.08270  1.0000
  N   N60       1.0  0.11670  0.81790  0.08270  1.0000
  N   N61       1.0  0.63330  0.31790  0.16730  1.0000
  N   N62       1.0  0.66730  0.13330  0.31790  1.0000
  N   N63       1.0  0.81790  0.16730  0.13330  1.0000
  N   N64       1.0  0.93210  0.58270  0.13330  1.0000
  N   N65       1.0  0.66730  0.61670  0.43210  1.0000
  N   N66       1.0  0.93210  0.16730  0.61670  1.0000
  N   N67       1.0  0.08270  0.61670  0.31790  1.0000
  N   N68       1.0  0.08270  0.13330  0.43210  1.0000
  N   N69       1.0  0.81790  0.58270  0.61670  1.0000
  N   N70       1.0  0.11670  0.43210  0.16730  1.0000
  N   N71       1.0  0.63330  0.43210  0.58270  1.0000
  N   N72       1.0  0.11670  0.31790  0.58270  1.0000
  N   N73       1.0  0.13330  0.81790  0.16730  1.0000
  N   N74       1.0  0.16730  0.63330  0.31790  1.0000
  N   N75       1.0  0.31790  0.66730  0.13330  1.0000
  N   N76       1.0  0.43210  0.08270  0.13330  1.0000
  N   N77       1.0  0.16730  0.11670  0.43210  1.0000
  N   N78       1.0  0.43210  0.66730  0.61670  1.0000
  N   N79       1.0  0.58270  0.11670  0.31790  1.0000
  N   N80       1.0  0.58270  0.63330  0.43210  1.0000
  N   N81       1.0  0.31790  0.08270  0.61670  1.0000
  N   N82       1.0  0.61670  0.93210  0.16730  1.0000
  N   N83       1.0  0.13330  0.93210  0.58270  1.0000
  N   N84       1.0  0.61670  0.81790  0.58270  1.0000
  N   N85       1.0  0.13330  0.31790  0.66730  1.0000
  N   N86       1.0  0.16730  0.13330  0.81790  1.0000
  N   N87       1.0  0.31790  0.16730  0.63330  1.0000
  N   N88       1.0  0.43210  0.58270  0.63330  1.0000
  N   N89       1.0  0.16730  0.61670  0.93210  1.0000
  N   N90       1.0  0.43210  0.16730  0.11670  1.0000
  N   N91       1.0  0.58270  0.61670  0.81790  1.0000
  N   N92       1.0  0.58270  0.13330  0.93210  1.0000
  N   N93       1.0  0.31790  0.58270  0.11670  1.0000
  N   N94       1.0  0.61670  0.43210  0.66730  1.0000
  N   N95       1.0  0.13330  0.43210  0.08270  1.0000
  N   N96       1.0  0.61670  0.31790  0.08270  1.0000
  C   C2017     1.0  0.33700  0.19210  0.33580  1.0000
  C   C2018     1.0  0.33580  0.33700  0.19210  1.0000
  C   C2019     1.0  0.19210  0.33580  0.33700  1.0000
  C   C2020     1.0  0.05790  0.91420  0.33700  1.0000
  C   C2021     1.0  0.33580  0.91300  0.05790  1.0000
  C   C2022     1.0  0.05790  0.33580  0.91300  1.0000
  C   C2023     1.0  0.91420  0.91300  0.19210  1.0000
  C   C2024     1.0  0.91420  0.33700  0.05790  1.0000
  C   C2025     1.0  0.19210  0.91420  0.91300  1.0000
  C   C2026     1.0  0.91300  0.05790  0.33580  1.0000
  C   C2027     1.0  0.33700  0.05790  0.91420  1.0000
  C   C2028     1.0  0.91300  0.19210  0.91420  1.0000
  C   C2029     1.0  0.33700  0.69210  0.83580  1.0000
  C   C2030     1.0  0.33580  0.83700  0.69210  1.0000
  C   C2031     1.0  0.19210  0.83580  0.83700  1.0000
  C   C2032     1.0  0.05790  0.41420  0.83700  1.0000
  C   C2033     1.0  0.33580  0.41300  0.55790  1.0000
  C   C2034     1.0  0.05790  0.83580  0.41300  1.0000
  C   C2035     1.0  0.91420  0.41300  0.69210  1.0000
  C   C2036     1.0  0.91420  0.83700  0.55790  1.0000
  C   C2037     1.0  0.19210  0.41420  0.41300  1.0000
  C   C2038     1.0  0.91300  0.55790  0.83580  1.0000
  C   C2039     1.0  0.33700  0.55790  0.41420  1.0000
  C   C2040     1.0  0.91300  0.69210  0.41420  1.0000
  C   C2041     1.0  0.83700  0.19210  0.83580  1.0000
  C   C2042     1.0  0.83580  0.33700  0.69210  1.0000
  C   C2043     1.0  0.69210  0.33580  0.83700  1.0000
  C   C2044     1.0  0.55790  0.91420  0.83700  1.0000
  C   C2045     1.0  0.83580  0.91300  0.55790  1.0000
  C   C2046     1.0  0.55790  0.33580  0.41300  1.0000
  C   C2047     1.0  0.41420  0.91300  0.69210  1.0000
  C   C2048     1.0  0.41420  0.33700  0.55790  1.0000
  C   C2049     1.0  0.69210  0.91420  0.41300  1.0000
  C   C2050     1.0  0.41300  0.05790  0.83580  1.0000
  C   C2051     1.0  0.83700  0.05790  0.41420  1.0000
  C   C2052     1.0  0.41300  0.19210  0.41420  1.0000
  C   C2053     1.0  0.83700  0.69210  0.33580  1.0000
  C   C2054     1.0  0.83580  0.83700  0.19210  1.0000
  C   C2055     1.0  0.69210  0.83580  0.33700  1.0000
  C   C2056     1.0  0.55790  0.41420  0.33700  1.0000
  C   C2057     1.0  0.83580  0.41300  0.05790  1.0000
  C   C2058     1.0  0.55790  0.83580  0.91300  1.0000
  C   C2059     1.0  0.41420  0.41300  0.19210  1.0000
  C   C2060     1.0  0.41420  0.83700  0.05790  1.0000
  C   C2061     1.0  0.69210  0.41420  0.91300  1.0000
  C   C2062     1.0  0.41300  0.55790  0.33580  1.0000
  C   C2063     1.0  0.83700  0.55790  0.91420  1.0000
  C   C2064     1.0  0.41300  0.69210  0.91420  1.0000
  C   C2065     1.0  0.66300  0.80790  0.66420  1.0000
  C   C2066     1.0  0.66420  0.66300  0.80790  1.0000
  C   C2067     1.0  0.80790  0.66420  0.66300  1.0000
  C   C2068     1.0  0.94210  0.08580  0.66300  1.0000
  C   C2069     1.0  0.66420  0.08700  0.94210  1.0000
  C   C2070     1.0  0.94210  0.66420  0.08700  1.0000
  C   C2071     1.0  0.08580  0.08700  0.80790  1.0000
  C   C2072     1.0  0.08580  0.66300  0.94210  1.0000
  C   C2073     1.0  0.80790  0.08580  0.08700  1.0000
  C   C2074     1.0  0.08700  0.94210  0.66420  1.0000
  C   C2075     1.0  0.66300  0.94210  0.08580  1.0000
  C   C2076     1.0  0.08700  0.80790  0.08580  1.0000
  C   C2077     1.0  0.66300  0.30790  0.16420  1.0000
  C   C2078     1.0  0.66420  0.16300  0.30790  1.0000
  C   C2079     1.0  0.80790  0.16420  0.16300  1.0000
  C   C2080     1.0  0.94210  0.58580  0.16300  1.0000
  C   C2081     1.0  0.66420  0.58700  0.44210  1.0000
  C   C2082     1.0  0.94210  0.16420  0.58700  1.0000
  C   C2083     1.0  0.08580  0.58700  0.30790  1.0000
  C   C2084     1.0  0.08580  0.16300  0.44210  1.0000
  C   C2085     1.0  0.80790  0.58580  0.58700  1.0000
  C   C2086     1.0  0.08700  0.44210  0.16420  1.0000
  C   C2087     1.0  0.66300  0.44210  0.58580  1.0000
  C   C2088     1.0  0.08700  0.30790  0.58580  1.0000
  C   C2089     1.0  0.16300  0.80790  0.16420  1.0000
  C   C2090     1.0  0.16420  0.66300  0.30790  1.0000
  C   C2091     1.0  0.30790  0.66420  0.16300  1.0000
  C   C2092     1.0  0.44210  0.08580  0.16300  1.0000
  C   C2093     1.0  0.16420  0.08700  0.44210  1.0000
  C   C2094     1.0  0.44210  0.66420  0.58700  1.0000
  C   C2095     1.0  0.58580  0.08700  0.30790  1.0000
  C   C2096     1.0  0.58580  0.66300  0.44210  1.0000
  C   C2097     1.0  0.30790  0.08580  0.58700  1.0000
  C   C2098     1.0  0.58700  0.94210  0.16420  1.0000
  C   C2099     1.0  0.16300  0.94210  0.58580  1.0000
  C   C2100     1.0  0.58700  0.80790  0.58580  1.0000
  C   C2101     1.0  0.16300  0.30790  0.66420  1.0000
  C   C2102     1.0  0.16420  0.16300  0.80790  1.0000
  C   C2103     1.0  0.30790  0.16420  0.66300  1.0000
  C   C2104     1.0  0.44210  0.58580  0.66300  1.0000
  C   C2105     1.0  0.16420  0.58700  0.94210  1.0000
  C   C2106     1.0  0.44210  0.16420  0.08700  1.0000
  C   C2107     1.0  0.58580  0.58700  0.80790  1.0000
  C   C2108     1.0  0.58580  0.16300  0.94210  1.0000
  C   C2109     1.0  0.30790  0.58580  0.08700  1.0000
  C   C2110     1.0  0.58700  0.44210  0.66420  1.0000
  C   C2111     1.0  0.16300  0.44210  0.08580  1.0000
  C   C2112     1.0  0.58700  0.30790  0.08580  1.0000
  H   H1185     1.0  0.33580  0.20610  0.35210  1.0000
  H   H1186     1.0  0.35210  0.33580  0.20610  1.0000
  H   H1187     1.0  0.20610  0.35210  0.33580  1.0000
  H   H1188     1.0  0.04390  0.89790  0.33580  1.0000
  H   H1189     1.0  0.35210  0.91420  0.04390  1.0000
  H   H1190     1.0  0.04390  0.35210  0.91420  1.0000
  H   H1191     1.0  0.89790  0.91420  0.20610  1.0000
  H   H1192     1.0  0.89790  0.33580  0.04390  1.0000
  H   H1193     1.0  0.20610  0.89790  0.91420  1.0000
  H   H1194     1.0  0.91420  0.04390  0.35210  1.0000
  H   H1195     1.0  0.33580  0.04390  0.89790  1.0000
  H   H1196     1.0  0.91420  0.20610  0.89790  1.0000
  H   H1197     1.0  0.33580  0.70610  0.85210  1.0000
  H   H1198     1.0  0.35210  0.83580  0.70610  1.0000
  H   H1199     1.0  0.20610  0.85210  0.83580  1.0000
  H   H1200     1.0  0.04390  0.39790  0.83580  1.0000
  H   H1201     1.0  0.35210  0.41420  0.54390  1.0000
  H   H1202     1.0  0.04390  0.85210  0.41420  1.0000
  H   H1203     1.0  0.89790  0.41420  0.70610  1.0000
  H   H1204     1.0  0.89790  0.83580  0.54390  1.0000
  H   H1205     1.0  0.20610  0.39790  0.41420  1.0000
  H   H1206     1.0  0.91420  0.54390  0.85210  1.0000
  H   H1207     1.0  0.33580  0.54390  0.39790  1.0000
  H   H1208     1.0  0.91420  0.70610  0.39790  1.0000
  H   H1209     1.0  0.83580  0.20610  0.85210  1.0000
  H   H1210     1.0  0.85210  0.33580  0.70610  1.0000
  H   H1211     1.0  0.70610  0.35210  0.83580  1.0000
  H   H1212     1.0  0.54390  0.89790  0.83580  1.0000
  H   H1213     1.0  0.85210  0.91420  0.54390  1.0000
  H   H1214     1.0  0.54390  0.35210  0.41420  1.0000
  H   H1215     1.0  0.39790  0.91420  0.70610  1.0000
  H   H1216     1.0  0.39790  0.33580  0.54390  1.0000
  H   H1217     1.0  0.70610  0.89790  0.41420  1.0000
  H   H1218     1.0  0.41420  0.04390  0.85210  1.0000
  H   H1219     1.0  0.83580  0.04390  0.39790  1.0000
  H   H1220     1.0  0.41420  0.20610  0.39790  1.0000
  H   H1221     1.0  0.83580  0.70610  0.35210  1.0000
  H   H1222     1.0  0.85210  0.83580  0.20610  1.0000
  H   H1223     1.0  0.70610  0.85210  0.33580  1.0000
  H   H1224     1.0  0.54390  0.39790  0.33580  1.0000
  H   H1225     1.0  0.85210  0.41420  0.04390  1.0000
  H   H1226     1.0  0.54390  0.85210  0.91420  1.0000
  H   H1227     1.0  0.39790  0.41420  0.20610  1.0000
  H   H1228     1.0  0.39790  0.83580  0.04390  1.0000
  H   H1229     1.0  0.70610  0.39790  0.91420  1.0000
  H   H1230     1.0  0.41420  0.54390  0.35210  1.0000
  H   H1231     1.0  0.83580  0.54390  0.89790  1.0000
  H   H1232     1.0  0.41420  0.70610  0.89790  1.0000
  H   H1233     1.0  0.66420  0.79390  0.64790  1.0000
  H   H1234     1.0  0.64790  0.66420  0.79390  1.0000
  H   H1235     1.0  0.79390  0.64790  0.66420  1.0000
  H   H1236     1.0  0.95610  0.10210  0.66420  1.0000
  H   H1237     1.0  0.64790  0.08580  0.95610  1.0000
  H   H1238     1.0  0.95610  0.64790  0.08580  1.0000
  H   H1239     1.0  0.10210  0.08580  0.79390  1.0000
  H   H1240     1.0  0.10210  0.66420  0.95610  1.0000
  H   H1241     1.0  0.79390  0.10210  0.08580  1.0000
  H   H1242     1.0  0.08580  0.95610  0.64790  1.0000
  H   H1243     1.0  0.66420  0.95610  0.10210  1.0000
  H   H1244     1.0  0.08580  0.79390  0.10210  1.0000
  H   H1245     1.0  0.66420  0.29390  0.14790  1.0000
  H   H1246     1.0  0.64790  0.16420  0.29390  1.0000
  H   H1247     1.0  0.79390  0.14790  0.16420  1.0000
  H   H1248     1.0  0.95610  0.60210  0.16420  1.0000
  H   H1249     1.0  0.64790  0.58580  0.45610  1.0000
  H   H1250     1.0  0.95610  0.14790  0.58580  1.0000
  H   H1251     1.0  0.10210  0.58580  0.29390  1.0000
  H   H1252     1.0  0.10210  0.16420  0.45610  1.0000
  H   H1253     1.0  0.79390  0.60210  0.58580  1.0000
  H   H1254     1.0  0.08580  0.45610  0.14790  1.0000
  H   H1255     1.0  0.66420  0.45610  0.60210  1.0000
  H   H1256     1.0  0.08580  0.29390  0.60210  1.0000
  H   H1257     1.0  0.16420  0.79390  0.14790  1.0000
  H   H1258     1.0  0.14790  0.66420  0.29390  1.0000
  H   H1259     1.0  0.29390  0.64790  0.16420  1.0000
  H   H1260     1.0  0.45610  0.10210  0.16420  1.0000
  H   H1261     1.0  0.14790  0.08580  0.45610  1.0000
  H   H1262     1.0  0.45610  0.64790  0.58580  1.0000
  H   H1263     1.0  0.60210  0.08580  0.29390  1.0000
  H   H1264     1.0  0.60210  0.66420  0.45610  1.0000
  H   H1265     1.0  0.29390  0.10210  0.58580  1.0000
  H   H1266     1.0  0.58580  0.95610  0.14790  1.0000
  H   H1267     1.0  0.16420  0.95610  0.60210  1.0000
  H   H1268     1.0  0.58580  0.79390  0.60210  1.0000
  H   H1269     1.0  0.16420  0.29390  0.64790  1.0000
  H   H1270     1.0  0.14790  0.16420  0.79390  1.0000
  H   H1271     1.0  0.29390  0.14790  0.66420  1.0000
  H   H1272     1.0  0.45610  0.60210  0.66420  1.0000
  H   H1273     1.0  0.14790  0.58580  0.95610  1.0000
  H   H1274     1.0  0.45610  0.14790  0.08580  1.0000
  H   H1275     1.0  0.60210  0.58580  0.79390  1.0000
  H   H1276     1.0  0.60210  0.16420  0.95610  1.0000
  H   H1277     1.0  0.29390  0.60210  0.08580  1.0000
  H   H1278     1.0  0.58580  0.45610  0.64790  1.0000
  H   H1279     1.0  0.16420  0.45610  0.10210  1.0000
  H   H1280     1.0  0.58580  0.29390  0.10210  1.0000
  H   H1281     1.0  0.32420  0.17530  0.34000  1.0000
  H   H1282     1.0  0.34000  0.32420  0.17530  1.0000
  H   H1283     1.0  0.17530  0.34000  0.32420  1.0000
  H   H1284     1.0  0.07470  0.91000  0.32420  1.0000
  H   H1285     1.0  0.34000  0.92580  0.07470  1.0000
  H   H1286     1.0  0.07470  0.34000  0.92580  1.0000
  H   H1287     1.0  0.91000  0.92580  0.17530  1.0000
  H   H1288     1.0  0.91000  0.32420  0.07470  1.0000
  H   H1289     1.0  0.17530  0.91000  0.92580  1.0000
  H   H1290     1.0  0.92580  0.07470  0.34000  1.0000
  H   H1291     1.0  0.32420  0.07470  0.91000  1.0000
  H   H1292     1.0  0.92580  0.17530  0.91000  1.0000
  H   H1293     1.0  0.32420  0.67530  0.84000  1.0000
  H   H1294     1.0  0.34000  0.82420  0.67530  1.0000
  H   H1295     1.0  0.17530  0.84000  0.82420  1.0000
  H   H1296     1.0  0.07470  0.41000  0.82420  1.0000
  H   H1297     1.0  0.34000  0.42580  0.57470  1.0000
  H   H1298     1.0  0.07470  0.84000  0.42580  1.0000
  H   H1299     1.0  0.91000  0.42580  0.67530  1.0000
  H   H1300     1.0  0.91000  0.82420  0.57470  1.0000
  H   H1301     1.0  0.17530  0.41000  0.42580  1.0000
  H   H1302     1.0  0.92580  0.57470  0.84000  1.0000
  H   H1303     1.0  0.32420  0.57470  0.41000  1.0000
  H   H1304     1.0  0.92580  0.67530  0.41000  1.0000
  H   H1305     1.0  0.82420  0.17530  0.84000  1.0000
  H   H1306     1.0  0.84000  0.32420  0.67530  1.0000
  H   H1307     1.0  0.67530  0.34000  0.82420  1.0000
  H   H1308     1.0  0.57470  0.91000  0.82420  1.0000
  H   H1309     1.0  0.84000  0.92580  0.57470  1.0000
  H   H1310     1.0  0.57470  0.34000  0.42580  1.0000
  H   H1311     1.0  0.41000  0.92580  0.67530  1.0000
  H   H1312     1.0  0.41000  0.32420  0.57470  1.0000
  H   H1313     1.0  0.67530  0.91000  0.42580  1.0000
  H   H1314     1.0  0.42580  0.07470  0.84000  1.0000
  H   H1315     1.0  0.82420  0.07470  0.41000  1.0000
  H   H1316     1.0  0.42580  0.17530  0.41000  1.0000
  H   H1317     1.0  0.82420  0.67530  0.34000  1.0000
  H   H1318     1.0  0.84000  0.82420  0.17530  1.0000
  H   H1319     1.0  0.67530  0.84000  0.32420  1.0000
  H   H1320     1.0  0.57470  0.41000  0.32420  1.0000
  H   H1321     1.0  0.84000  0.42580  0.07470  1.0000
  H   H1322     1.0  0.57470  0.84000  0.92580  1.0000
  H   H1323     1.0  0.41000  0.42580  0.17530  1.0000
  H   H1324     1.0  0.41000  0.82420  0.07470  1.0000
  H   H1325     1.0  0.67530  0.41000  0.92580  1.0000
  H   H1326     1.0  0.42580  0.57470  0.34000  1.0000
  H   H1327     1.0  0.82420  0.57470  0.91000  1.0000
  H   H1328     1.0  0.42580  0.67530  0.91000  1.0000
  H   H1329     1.0  0.67580  0.82470  0.66000  1.0000
  H   H1330     1.0  0.66000  0.67580  0.82470  1.0000
  H   H1331     1.0  0.82470  0.66000  0.67580  1.0000
  H   H1332     1.0  0.92530  0.09000  0.67580  1.0000
  H   H1333     1.0  0.66000  0.07420  0.92530  1.0000
  H   H1334     1.0  0.92530  0.66000  0.07420  1.0000
  H   H1335     1.0  0.09000  0.07420  0.82470  1.0000
  H   H1336     1.0  0.09000  0.67580  0.92530  1.0000
  H   H1337     1.0  0.82470  0.09000  0.07420  1.0000
  H   H1338     1.0  0.07420  0.92530  0.66000  1.0000
  H   H1339     1.0  0.67580  0.92530  0.09000  1.0000
  H   H1340     1.0  0.07420  0.82470  0.09000  1.0000
  H   H1341     1.0  0.67580  0.32470  0.16000  1.0000
  H   H1342     1.0  0.66000  0.17580  0.32470  1.0000
  H   H1343     1.0  0.82470  0.16000  0.17580  1.0000
  H   H1344     1.0  0.92530  0.59000  0.17580  1.0000
  H   H1345     1.0  0.66000  0.57420  0.42530  1.0000
  H   H1346     1.0  0.92530  0.16000  0.57420  1.0000
  H   H1347     1.0  0.09000  0.57420  0.32470  1.0000
  H   H1348     1.0  0.09000  0.17580  0.42530  1.0000
  H   H1349     1.0  0.82470  0.59000  0.57420  1.0000
  H   H1350     1.0  0.07420  0.42530  0.16000  1.0000
  H   H1351     1.0  0.67580  0.42530  0.59000  1.0000
  H   H1352     1.0  0.07420  0.32470  0.59000  1.0000
  H   H1353     1.0  0.17580  0.82470  0.16000  1.0000
  H   H1354     1.0  0.16000  0.67580  0.32470  1.0000
  H   H1355     1.0  0.32470  0.66000  0.17580  1.0000
  H   H1356     1.0  0.42530  0.09000  0.17580  1.0000
  H   H1357     1.0  0.16000  0.07420  0.42530  1.0000
  H   H1358     1.0  0.42530  0.66000  0.57420  1.0000
  H   H1359     1.0  0.59000  0.07420  0.32470  1.0000
  H   H1360     1.0  0.59000  0.67580  0.42530  1.0000
  H   H1361     1.0  0.32470  0.09000  0.57420  1.0000
  H   H1362     1.0  0.57420  0.92530  0.16000  1.0000
  H   H1363     1.0  0.17580  0.92530  0.59000  1.0000
  H   H1364     1.0  0.57420  0.82470  0.59000  1.0000
  H   H1365     1.0  0.17580  0.32470  0.66000  1.0000
  H   H1366     1.0  0.16000  0.17580  0.82470  1.0000
  H   H1367     1.0  0.32470  0.16000  0.67580  1.0000
  H   H1368     1.0  0.42530  0.59000  0.67580  1.0000
  H   H1369     1.0  0.16000  0.57420  0.92530  1.0000
  H   H1370     1.0  0.42530  0.16000  0.07420  1.0000
  H   H1371     1.0  0.59000  0.57420  0.82470  1.0000
  H   H1372     1.0  0.59000  0.17580  0.92530  1.0000
  H   H1373     1.0  0.32470  0.59000  0.07420  1.0000
  H   H1374     1.0  0.57420  0.42530  0.66000  1.0000
  H   H1375     1.0  0.17580  0.42530  0.09000  1.0000
  H   H1376     1.0  0.57420  0.32470  0.09000  1.0000
  H   H1377     1.0  0.33070  0.20160  0.31770  1.0000
  H   H1378     1.0  0.31770  0.33070  0.20160  1.0000
  H   H1379     1.0  0.20160  0.31770  0.33070  1.0000
  H   H1380     1.0  0.04840  0.93230  0.33070  1.0000
  H   H1381     1.0  0.31770  0.91930  0.04840  1.0000
  H   H1382     1.0  0.04840  0.31770  0.91930  1.0000
  H   H1383     1.0  0.93230  0.91930  0.20160  1.0000
  H   H1384     1.0  0.93230  0.33070  0.04840  1.0000
  H   H1385     1.0  0.20160  0.93230  0.91930  1.0000
  H   H1386     1.0  0.91930  0.04840  0.31770  1.0000
  H   H1387     1.0  0.33070  0.04840  0.93230  1.0000
  H   H1388     1.0  0.91930  0.20160  0.93230  1.0000
  H   H1389     1.0  0.33070  0.70160  0.81770  1.0000
  H   H1390     1.0  0.31770  0.83070  0.70160  1.0000
  H   H1391     1.0  0.20160  0.81770  0.83070  1.0000
  H   H1392     1.0  0.04840  0.43230  0.83070  1.0000
  H   H1393     1.0  0.31770  0.41930  0.54840  1.0000
  H   H1394     1.0  0.04840  0.81770  0.41930  1.0000
  H   H1395     1.0  0.93230  0.41930  0.70160  1.0000
  H   H1396     1.0  0.93230  0.83070  0.54840  1.0000
  H   H1397     1.0  0.20160  0.43230  0.41930  1.0000
  H   H1398     1.0  0.91930  0.54840  0.81770  1.0000
  H   H1399     1.0  0.33070  0.54840  0.43230  1.0000
  H   H1400     1.0  0.91930  0.70160  0.43230  1.0000
  H   H1401     1.0  0.83070  0.20160  0.81770  1.0000
  H   H1402     1.0  0.81770  0.33070  0.70160  1.0000
  H   H1403     1.0  0.70160  0.31770  0.83070  1.0000
  H   H1404     1.0  0.54840  0.93230  0.83070  1.0000
  H   H1405     1.0  0.81770  0.91930  0.54840  1.0000
  H   H1406     1.0  0.54840  0.31770  0.41930  1.0000
  H   H1407     1.0  0.43230  0.91930  0.70160  1.0000
  H   H1408     1.0  0.43230  0.33070  0.54840  1.0000
  H   H1409     1.0  0.70160  0.93230  0.41930  1.0000
  H   H1410     1.0  0.41930  0.04840  0.81770  1.0000
  H   H1411     1.0  0.83070  0.04840  0.43230  1.0000
  H   H1412     1.0  0.41930  0.20160  0.43230  1.0000
  H   H1413     1.0  0.83070  0.70160  0.31770  1.0000
  H   H1414     1.0  0.81770  0.83070  0.20160  1.0000
  H   H1415     1.0  0.70160  0.81770  0.33070  1.0000
  H   H1416     1.0  0.54840  0.43230  0.33070  1.0000
  H   H1417     1.0  0.81770  0.41930  0.04840  1.0000
  H   H1418     1.0  0.54840  0.81770  0.91930  1.0000
  H   H1419     1.0  0.43230  0.41930  0.20160  1.0000
  H   H1420     1.0  0.43230  0.83070  0.04840  1.0000
  H   H1421     1.0  0.70160  0.43230  0.91930  1.0000
  H   H1422     1.0  0.41930  0.54840  0.31770  1.0000
  H   H1423     1.0  0.83070  0.54840  0.93230  1.0000
  H   H1424     1.0  0.41930  0.70160  0.93230  1.0000
  H   H1425     1.0  0.66930  0.79840  0.68230  1.0000
  H   H1426     1.0  0.68230  0.66930  0.79840  1.0000
  H   H1427     1.0  0.79840  0.68230  0.66930  1.0000
  H   H1428     1.0  0.95160  0.06770  0.66930  1.0000
  H   H1429     1.0  0.68230  0.08070  0.95160  1.0000
  H   H1430     1.0  0.95160  0.68230  0.08070  1.0000
  H   H1431     1.0  0.06770  0.08070  0.79840  1.0000
  H   H1432     1.0  0.06770  0.66930  0.95160  1.0000
  H   H1433     1.0  0.79840  0.06770  0.08070  1.0000
  H   H1434     1.0  0.08070  0.95160  0.68230  1.0000
  H   H1435     1.0  0.66930  0.95160  0.06770  1.0000
  H   H1436     1.0  0.08070  0.79840  0.06770  1.0000
  H   H1437     1.0  0.66930  0.29840  0.18230  1.0000
  H   H1438     1.0  0.68230  0.16930  0.29840  1.0000
  H   H1439     1.0  0.79840  0.18230  0.16930  1.0000
  H   H1440     1.0  0.95160  0.56770  0.16930  1.0000
  H   H1441     1.0  0.68230  0.58070  0.45160  1.0000
  H   H1442     1.0  0.95160  0.18230  0.58070  1.0000
  H   H1443     1.0  0.06770  0.58070  0.29840  1.0000
  H   H1444     1.0  0.06770  0.16930  0.45160  1.0000
  H   H1445     1.0  0.79840  0.56770  0.58070  1.0000
  H   H1446     1.0  0.08070  0.45160  0.18230  1.0000
  H   H1447     1.0  0.66930  0.45160  0.56770  1.0000
  H   H1448     1.0  0.08070  0.29840  0.56770  1.0000
  H   H1449     1.0  0.16930  0.79840  0.18230  1.0000
  H   H1450     1.0  0.18230  0.66930  0.29840  1.0000
  H   H1451     1.0  0.29840  0.68230  0.16930  1.0000
  H   H1452     1.0  0.45160  0.06770  0.16930  1.0000
  H   H1453     1.0  0.18230  0.08070  0.45160  1.0000
  H   H1454     1.0  0.45160  0.68230  0.58070  1.0000
  H   H1455     1.0  0.56770  0.08070  0.29840  1.0000
  H   H1456     1.0  0.56770  0.66930  0.45160  1.0000
  H   H1457     1.0  0.29840  0.06770  0.58070  1.0000
  H   H1458     1.0  0.58070  0.95160  0.18230  1.0000
  H   H1459     1.0  0.16930  0.95160  0.56770  1.0000
  H   H1460     1.0  0.58070  0.79840  0.56770  1.0000
  H   H1461     1.0  0.16930  0.29840  0.68230  1.0000
  H   H1462     1.0  0.18230  0.16930  0.79840  1.0000
  H   H1463     1.0  0.29840  0.18230  0.66930  1.0000
  H   H1464     1.0  0.45160  0.56770  0.66930  1.0000
  H   H1465     1.0  0.18230  0.58070  0.95160  1.0000
  H   H1466     1.0  0.45160  0.18230  0.08070  1.0000
  H   H1467     1.0  0.56770  0.58070  0.79840  1.0000
  H   H1468     1.0  0.56770  0.16930  0.95160  1.0000
  H   H1469     1.0  0.29840  0.56770  0.08070  1.0000
  H   H1470     1.0  0.58070  0.45160  0.68230  1.0000
  H   H1471     1.0  0.16930  0.45160  0.06770  1.0000
  H   H1472     1.0  0.58070  0.29840  0.06770  1.0000
  C   C2113     1.0  0.36820  0.15050  0.33330  1.0000
  C   C2114     1.0  0.33330  0.36820  0.15050  1.0000
  C   C2115     1.0  0.15050  0.33330  0.36820  1.0000
  C   C2116     1.0  0.09950  0.91670  0.36820  1.0000
  C   C2117     1.0  0.33330  0.88180  0.09950  1.0000
  C   C2118     1.0  0.09950  0.33330  0.88180  1.0000
  C   C2119     1.0  0.91670  0.88180  0.15050  1.0000
  C   C2120     1.0  0.91670  0.36820  0.09950  1.0000
  C   C2121     1.0  0.15050  0.91670  0.88180  1.0000
  C   C2122     1.0  0.88180  0.09950  0.33330  1.0000
  C   C2123     1.0  0.36820  0.09950  0.91670  1.0000
  C   C2124     1.0  0.88180  0.15050  0.91670  1.0000
  C   C2125     1.0  0.36820  0.65050  0.83330  1.0000
  C   C2126     1.0  0.33330  0.86820  0.65050  1.0000
  C   C2127     1.0  0.15050  0.83330  0.86820  1.0000
  C   C2128     1.0  0.09950  0.41670  0.86820  1.0000
  C   C2129     1.0  0.33330  0.38180  0.59950  1.0000
  C   C2130     1.0  0.09950  0.83330  0.38180  1.0000
  C   C2131     1.0  0.91670  0.38180  0.65050  1.0000
  C   C2132     1.0  0.91670  0.86820  0.59950  1.0000
  C   C2133     1.0  0.15050  0.41670  0.38180  1.0000
  C   C2134     1.0  0.88180  0.59950  0.83330  1.0000
  C   C2135     1.0  0.36820  0.59950  0.41670  1.0000
  C   C2136     1.0  0.88180  0.65050  0.41670  1.0000
  C   C2137     1.0  0.86820  0.15050  0.83330  1.0000
  C   C2138     1.0  0.83330  0.36820  0.65050  1.0000
  C   C2139     1.0  0.65050  0.33330  0.86820  1.0000
  C   C2140     1.0  0.59950  0.91670  0.86820  1.0000
  C   C2141     1.0  0.83330  0.88180  0.59950  1.0000
  C   C2142     1.0  0.59950  0.33330  0.38180  1.0000
  C   C2143     1.0  0.41670  0.88180  0.65050  1.0000
  C   C2144     1.0  0.41670  0.36820  0.59950  1.0000
  C   C2145     1.0  0.65050  0.91670  0.38180  1.0000
  C   C2146     1.0  0.38180  0.09950  0.83330  1.0000
  C   C2147     1.0  0.86820  0.09950  0.41670  1.0000
  C   C2148     1.0  0.38180  0.15050  0.41670  1.0000
  C   C2149     1.0  0.86820  0.65050  0.33330  1.0000
  C   C2150     1.0  0.83330  0.86820  0.15050  1.0000
  C   C2151     1.0  0.65050  0.83330  0.36820  1.0000
  C   C2152     1.0  0.59950  0.41670  0.36820  1.0000
  C   C2153     1.0  0.83330  0.38180  0.09950  1.0000
  C   C2154     1.0  0.59950  0.83330  0.88180  1.0000
  C   C2155     1.0  0.41670  0.38180  0.15050  1.0000
  C   C2156     1.0  0.41670  0.86820  0.09950  1.0000
  C   C2157     1.0  0.65050  0.41670  0.88180  1.0000
  C   C2158     1.0  0.38180  0.59950  0.33330  1.0000
  C   C2159     1.0  0.86820  0.59950  0.91670  1.0000
  C   C2160     1.0  0.38180  0.65050  0.91670  1.0000
  C   C2161     1.0  0.63180  0.84950  0.66670  1.0000
  C   C2162     1.0  0.66670  0.63180  0.84950  1.0000
  C   C2163     1.0  0.84950  0.66670  0.63180  1.0000
  C   C2164     1.0  0.90050  0.08330  0.63180  1.0000
  C   C2165     1.0  0.66670  0.11820  0.90050  1.0000
  C   C2166     1.0  0.90050  0.66670  0.11820  1.0000
  C   C2167     1.0  0.08330  0.11820  0.84950  1.0000
  C   C2168     1.0  0.08330  0.63180  0.90050  1.0000
  C   C2169     1.0  0.84950  0.08330  0.11820  1.0000
  C   C2170     1.0  0.11820  0.90050  0.66670  1.0000
  C   C2171     1.0  0.63180  0.90050  0.08330  1.0000
  C   C2172     1.0  0.11820  0.84950  0.08330  1.0000
  C   C2173     1.0  0.63180  0.34950  0.16670  1.0000
  C   C2174     1.0  0.66670  0.13180  0.34950  1.0000
  C   C2175     1.0  0.84950  0.16670  0.13180  1.0000
  C   C2176     1.0  0.90050  0.58330  0.13180  1.0000
  C   C2177     1.0  0.66670  0.61820  0.40050  1.0000
  C   C2178     1.0  0.90050  0.16670  0.61820  1.0000
  C   C2179     1.0  0.08330  0.61820  0.34950  1.0000
  C   C2180     1.0  0.08330  0.13180  0.40050  1.0000
  C   C2181     1.0  0.84950  0.58330  0.61820  1.0000
  C   C2182     1.0  0.11820  0.40050  0.16670  1.0000
  C   C2183     1.0  0.63180  0.40050  0.58330  1.0000
  C   C2184     1.0  0.11820  0.34950  0.58330  1.0000
  C   C2185     1.0  0.13180  0.84950  0.16670  1.0000
  C   C2186     1.0  0.16670  0.63180  0.34950  1.0000
  C   C2187     1.0  0.34950  0.66670  0.13180  1.0000
  C   C2188     1.0  0.40050  0.08330  0.13180  1.0000
  C   C2189     1.0  0.16670  0.11820  0.40050  1.0000
  C   C2190     1.0  0.40050  0.66670  0.61820  1.0000
  C   C2191     1.0  0.58330  0.11820  0.34950  1.0000
  C   C2192     1.0  0.58330  0.63180  0.40050  1.0000
  C   C2193     1.0  0.34950  0.08330  0.61820  1.0000
  C   C2194     1.0  0.61820  0.90050  0.16670  1.0000
  C   C2195     1.0  0.13180  0.90050  0.58330  1.0000
  C   C2196     1.0  0.61820  0.84950  0.58330  1.0000
  C   C2197     1.0  0.13180  0.34950  0.66670  1.0000
  C   C2198     1.0  0.16670  0.13180  0.84950  1.0000
  C   C2199     1.0  0.34950  0.16670  0.63180  1.0000
  C   C2200     1.0  0.40050  0.58330  0.63180  1.0000
  C   C2201     1.0  0.16670  0.61820  0.90050  1.0000
  C   C2202     1.0  0.40050  0.16670  0.11820  1.0000
  C   C2203     1.0  0.58330  0.61820  0.84950  1.0000
  C   C2204     1.0  0.58330  0.13180  0.90050  1.0000
  C   C2205     1.0  0.34950  0.58330  0.11820  1.0000
  C   C2206     1.0  0.61820  0.40050  0.66670  1.0000
  C   C2207     1.0  0.13180  0.40050  0.08330  1.0000
  C   C2208     1.0  0.61820  0.34950  0.08330  1.0000
  H   H1473     1.0  0.37880  0.14350  0.31590  1.0000
  H   H1474     1.0  0.31590  0.37880  0.14350  1.0000
  H   H1475     1.0  0.14350  0.31590  0.37880  1.0000
  H   H1476     1.0  0.10650  0.93410  0.37880  1.0000
  H   H1477     1.0  0.31590  0.87120  0.10650  1.0000
  H   H1478     1.0  0.10650  0.31590  0.87120  1.0000
  H   H1479     1.0  0.93410  0.87120  0.14350  1.0000
  H   H1480     1.0  0.93410  0.37880  0.10650  1.0000
  H   H1481     1.0  0.14350  0.93410  0.87120  1.0000
  H   H1482     1.0  0.87120  0.10650  0.31590  1.0000
  H   H1483     1.0  0.37880  0.10650  0.93410  1.0000
  H   H1484     1.0  0.87120  0.14350  0.93410  1.0000
  H   H1485     1.0  0.37880  0.64350  0.81590  1.0000
  H   H1486     1.0  0.31590  0.87880  0.64350  1.0000
  H   H1487     1.0  0.14350  0.81590  0.87880  1.0000
  H   H1488     1.0  0.10650  0.43410  0.87880  1.0000
  H   H1489     1.0  0.31590  0.37120  0.60650  1.0000
  H   H1490     1.0  0.10650  0.81590  0.37120  1.0000
  H   H1491     1.0  0.93410  0.37120  0.64350  1.0000
  H   H1492     1.0  0.93410  0.87880  0.60650  1.0000
  H   H1493     1.0  0.14350  0.43410  0.37120  1.0000
  H   H1494     1.0  0.87120  0.60650  0.81590  1.0000
  H   H1495     1.0  0.37880  0.60650  0.43410  1.0000
  H   H1496     1.0  0.87120  0.64350  0.43410  1.0000
  H   H1497     1.0  0.87880  0.14350  0.81590  1.0000
  H   H1498     1.0  0.81590  0.37880  0.64350  1.0000
  H   H1499     1.0  0.64350  0.31590  0.87880  1.0000
  H   H1500     1.0  0.60650  0.93410  0.87880  1.0000
  H   H1501     1.0  0.81590  0.87120  0.60650  1.0000
  H   H1502     1.0  0.60650  0.31590  0.37120  1.0000
  H   H1503     1.0  0.43410  0.87120  0.64350  1.0000
  H   H1504     1.0  0.43410  0.37880  0.60650  1.0000
  H   H1505     1.0  0.64350  0.93410  0.37120  1.0000
  H   H1506     1.0  0.37120  0.10650  0.81590  1.0000
  H   H1507     1.0  0.87880  0.10650  0.43410  1.0000
  H   H1508     1.0  0.37120  0.14350  0.43410  1.0000
  H   H1509     1.0  0.87880  0.64350  0.31590  1.0000
  H   H1510     1.0  0.81590  0.87880  0.14350  1.0000
  H   H1511     1.0  0.64350  0.81590  0.37880  1.0000
  H   H1512     1.0  0.60650  0.43410  0.37880  1.0000
  H   H1513     1.0  0.81590  0.37120  0.10650  1.0000
  H   H1514     1.0  0.60650  0.81590  0.87120  1.0000
  H   H1515     1.0  0.43410  0.37120  0.14350  1.0000
  H   H1516     1.0  0.43410  0.87880  0.10650  1.0000
  H   H1517     1.0  0.64350  0.43410  0.87120  1.0000
  H   H1518     1.0  0.37120  0.60650  0.31590  1.0000
  H   H1519     1.0  0.87880  0.60650  0.93410  1.0000
  H   H1520     1.0  0.37120  0.64350  0.93410  1.0000
  H   H1521     1.0  0.62120  0.85650  0.68410  1.0000
  H   H1522     1.0  0.68410  0.62120  0.85650  1.0000
  H   H1523     1.0  0.85650  0.68410  0.62120  1.0000
  H   H1524     1.0  0.89350  0.06590  0.62120  1.0000
  H   H1525     1.0  0.68410  0.12880  0.89350  1.0000
  H   H1526     1.0  0.89350  0.68410  0.12880  1.0000
  H   H1527     1.0  0.06590  0.12880  0.85650  1.0000
  H   H1528     1.0  0.06590  0.62120  0.89350  1.0000
  H   H1529     1.0  0.85650  0.06590  0.12880  1.0000
  H   H1530     1.0  0.12880  0.89350  0.68410  1.0000
  H   H1531     1.0  0.62120  0.89350  0.06590  1.0000
  H   H1532     1.0  0.12880  0.85650  0.06590  1.0000
  H   H1533     1.0  0.62120  0.35650  0.18410  1.0000
  H   H1534     1.0  0.68410  0.12120  0.35650  1.0000
  H   H1535     1.0  0.85650  0.18410  0.12120  1.0000
  H   H1536     1.0  0.89350  0.56590  0.12120  1.0000
  H   H1537     1.0  0.68410  0.62880  0.39350  1.0000
  H   H1538     1.0  0.89350  0.18410  0.62880  1.0000
  H   H1539     1.0  0.06590  0.62880  0.35650  1.0000
  H   H1540     1.0  0.06590  0.12120  0.39350  1.0000
  H   H1541     1.0  0.85650  0.56590  0.62880  1.0000
  H   H1542     1.0  0.12880  0.39350  0.18410  1.0000
  H   H1543     1.0  0.62120  0.39350  0.56590  1.0000
  H   H1544     1.0  0.12880  0.35650  0.56590  1.0000
  H   H1545     1.0  0.12120  0.85650  0.18410  1.0000
  H   H1546     1.0  0.18410  0.62120  0.35650  1.0000
  H   H1547     1.0  0.35650  0.68410  0.12120  1.0000
  H   H1548     1.0  0.39350  0.06590  0.12120  1.0000
  H   H1549     1.0  0.18410  0.12880  0.39350  1.0000
  H   H1550     1.0  0.39350  0.68410  0.62880  1.0000
  H   H1551     1.0  0.56590  0.12880  0.35650  1.0000
  H   H1552     1.0  0.56590  0.62120  0.39350  1.0000
  H   H1553     1.0  0.35650  0.06590  0.62880  1.0000
  H   H1554     1.0  0.62880  0.89350  0.18410  1.0000
  H   H1555     1.0  0.12120  0.89350  0.56590  1.0000
  H   H1556     1.0  0.62880  0.85650  0.56590  1.0000
  H   H1557     1.0  0.12120  0.35650  0.68410  1.0000
  H   H1558     1.0  0.18410  0.12120  0.85650  1.0000
  H   H1559     1.0  0.35650  0.18410  0.62120  1.0000
  H   H1560     1.0  0.39350  0.56590  0.62120  1.0000
  H   H1561     1.0  0.18410  0.62880  0.89350  1.0000
  H   H1562     1.0  0.39350  0.18410  0.12880  1.0000
  H   H1563     1.0  0.56590  0.62880  0.85650  1.0000
  H   H1564     1.0  0.56590  0.12120  0.89350  1.0000
  H   H1565     1.0  0.35650  0.56590  0.12880  1.0000
  H   H1566     1.0  0.62880  0.39350  0.68410  1.0000
  H   H1567     1.0  0.12120  0.39350  0.06590  1.0000
  H   H1568     1.0  0.62880  0.35650  0.06590  1.0000
  H   H1569     1.0  0.34840  0.14240  0.33330  1.0000
  H   H1570     1.0  0.33330  0.34840  0.14240  1.0000
  H   H1571     1.0  0.14240  0.33330  0.34840  1.0000
  H   H1572     1.0  0.10760  0.91670  0.34840  1.0000
  H   H1573     1.0  0.33330  0.90160  0.10760  1.0000
  H   H1574     1.0  0.10760  0.33330  0.90160  1.0000
  H   H1575     1.0  0.91670  0.90160  0.14240  1.0000
  H   H1576     1.0  0.91670  0.34840  0.10760  1.0000
  H   H1577     1.0  0.14240  0.91670  0.90160  1.0000
  H   H1578     1.0  0.90160  0.10760  0.33330  1.0000
  H   H1579     1.0  0.34840  0.10760  0.91670  1.0000
  H   H1580     1.0  0.90160  0.14240  0.91670  1.0000
  H   H1581     1.0  0.34840  0.64240  0.83330  1.0000
  H   H1582     1.0  0.33330  0.84840  0.64240  1.0000
  H   H1583     1.0  0.14240  0.83330  0.84840  1.0000
  H   H1584     1.0  0.10760  0.41670  0.84840  1.0000
  H   H1585     1.0  0.33330  0.40160  0.60760  1.0000
  H   H1586     1.0  0.10760  0.83330  0.40160  1.0000
  H   H1587     1.0  0.91670  0.40160  0.64240  1.0000
  H   H1588     1.0  0.91670  0.84840  0.60760  1.0000
  H   H1589     1.0  0.14240  0.41670  0.40160  1.0000
  H   H1590     1.0  0.90160  0.60760  0.83330  1.0000
  H   H1591     1.0  0.34840  0.60760  0.41670  1.0000
  H   H1592     1.0  0.90160  0.64240  0.41670  1.0000
  H   H1593     1.0  0.84840  0.14240  0.83330  1.0000
  H   H1594     1.0  0.83330  0.34840  0.64240  1.0000
  H   H1595     1.0  0.64240  0.33330  0.84840  1.0000
  H   H1596     1.0  0.60760  0.91670  0.84840  1.0000
  H   H1597     1.0  0.83330  0.90160  0.60760  1.0000
  H   H1598     1.0  0.60760  0.33330  0.40160  1.0000
  H   H1599     1.0  0.41670  0.90160  0.64240  1.0000
  H   H1600     1.0  0.41670  0.34840  0.60760  1.0000
  H   H1601     1.0  0.64240  0.91670  0.40160  1.0000
  H   H1602     1.0  0.40160  0.10760  0.83330  1.0000
  H   H1603     1.0  0.84840  0.10760  0.41670  1.0000
  H   H1604     1.0  0.40160  0.14240  0.41670  1.0000
  H   H1605     1.0  0.84840  0.64240  0.33330  1.0000
  H   H1606     1.0  0.83330  0.84840  0.14240  1.0000
  H   H1607     1.0  0.64240  0.83330  0.34840  1.0000
  H   H1608     1.0  0.60760  0.41670  0.34840  1.0000
  H   H1609     1.0  0.83330  0.40160  0.10760  1.0000
  H   H1610     1.0  0.60760  0.83330  0.90160  1.0000
  H   H1611     1.0  0.41670  0.40160  0.14240  1.0000
  H   H1612     1.0  0.41670  0.84840  0.10760  1.0000
  H   H1613     1.0  0.64240  0.41670  0.90160  1.0000
  H   H1614     1.0  0.40160  0.60760  0.33330  1.0000
  H   H1615     1.0  0.84840  0.60760  0.91670  1.0000
  H   H1616     1.0  0.40160  0.64240  0.91670  1.0000
  H   H1617     1.0  0.65160  0.85760  0.66670  1.0000
  H   H1618     1.0  0.66670  0.65160  0.85760  1.0000
  H   H1619     1.0  0.85760  0.66670  0.65160  1.0000
  H   H1620     1.0  0.89240  0.08330  0.65160  1.0000
  H   H1621     1.0  0.66670  0.09840  0.89240  1.0000
  H   H1622     1.0  0.89240  0.66670  0.09840  1.0000
  H   H1623     1.0  0.08330  0.09840  0.85760  1.0000
  H   H1624     1.0  0.08330  0.65160  0.89240  1.0000
  H   H1625     1.0  0.85760  0.08330  0.09840  1.0000
  H   H1626     1.0  0.09840  0.89240  0.66670  1.0000
  H   H1627     1.0  0.65160  0.89240  0.08330  1.0000
  H   H1628     1.0  0.09840  0.85760  0.08330  1.0000
  H   H1629     1.0  0.65160  0.35760  0.16670  1.0000
  H   H1630     1.0  0.66670  0.15160  0.35760  1.0000
  H   H1631     1.0  0.85760  0.16670  0.15160  1.0000
  H   H1632     1.0  0.89240  0.58330  0.15160  1.0000
  H   H1633     1.0  0.66670  0.59840  0.39240  1.0000
  H   H1634     1.0  0.89240  0.16670  0.59840  1.0000
  H   H1635     1.0  0.08330  0.59840  0.35760  1.0000
  H   H1636     1.0  0.08330  0.15160  0.39240  1.0000
  H   H1637     1.0  0.85760  0.58330  0.59840  1.0000
  H   H1638     1.0  0.09840  0.39240  0.16670  1.0000
  H   H1639     1.0  0.65160  0.39240  0.58330  1.0000
  H   H1640     1.0  0.09840  0.35760  0.58330  1.0000
  H   H1641     1.0  0.15160  0.85760  0.16670  1.0000
  H   H1642     1.0  0.16670  0.65160  0.35760  1.0000
  H   H1643     1.0  0.35760  0.66670  0.15160  1.0000
  H   H1644     1.0  0.39240  0.08330  0.15160  1.0000
  H   H1645     1.0  0.16670  0.09840  0.39240  1.0000
  H   H1646     1.0  0.39240  0.66670  0.59840  1.0000
  H   H1647     1.0  0.58330  0.09840  0.35760  1.0000
  H   H1648     1.0  0.58330  0.65160  0.39240  1.0000
  H   H1649     1.0  0.35760  0.08330  0.59840  1.0000
  H   H1650     1.0  0.59840  0.89240  0.16670  1.0000
  H   H1651     1.0  0.15160  0.89240  0.58330  1.0000
  H   H1652     1.0  0.59840  0.85760  0.58330  1.0000
  H   H1653     1.0  0.15160  0.35760  0.66670  1.0000
  H   H1654     1.0  0.16670  0.15160  0.85760  1.0000
  H   H1655     1.0  0.35760  0.16670  0.65160  1.0000
  H   H1656     1.0  0.39240  0.58330  0.65160  1.0000
  H   H1657     1.0  0.16670  0.59840  0.89240  1.0000
  H   H1658     1.0  0.39240  0.16670  0.09840  1.0000
  H   H1659     1.0  0.58330  0.59840  0.85760  1.0000
  H   H1660     1.0  0.58330  0.15160  0.89240  1.0000
  H   H1661     1.0  0.35760  0.58330  0.09840  1.0000
  H   H1662     1.0  0.59840  0.39240  0.66670  1.0000
  H   H1663     1.0  0.15160  0.39240  0.08330  1.0000
  H   H1664     1.0  0.59840  0.35760  0.08330  1.0000
  H   H1665     1.0  0.37860  0.14410  0.35100  1.0000
  H   H1666     1.0  0.35100  0.37860  0.14410  1.0000
  H   H1667     1.0  0.14410  0.35100  0.37860  1.0000
  H   H1668     1.0  0.10590  0.89900  0.37860  1.0000
  H   H1669     1.0  0.35100  0.87140  0.10590  1.0000
  H   H1670     1.0  0.10590  0.35100  0.87140  1.0000
  H   H1671     1.0  0.89900  0.87140  0.14410  1.0000
  H   H1672     1.0  0.89900  0.37860  0.10590  1.0000
  H   H1673     1.0  0.14410  0.89900  0.87140  1.0000
  H   H1674     1.0  0.87140  0.10590  0.35100  1.0000
  H   H1675     1.0  0.37860  0.10590  0.89900  1.0000
  H   H1676     1.0  0.87140  0.14410  0.89900  1.0000
  H   H1677     1.0  0.37860  0.64410  0.85100  1.0000
  H   H1678     1.0  0.35100  0.87860  0.64410  1.0000
  H   H1679     1.0  0.14410  0.85100  0.87860  1.0000
  H   H1680     1.0  0.10590  0.39900  0.87860  1.0000
  H   H1681     1.0  0.35100  0.37140  0.60590  1.0000
  H   H1682     1.0  0.10590  0.85100  0.37140  1.0000
  H   H1683     1.0  0.89900  0.37140  0.64410  1.0000
  H   H1684     1.0  0.89900  0.87860  0.60590  1.0000
  H   H1685     1.0  0.14410  0.39900  0.37140  1.0000
  H   H1686     1.0  0.87140  0.60590  0.85100  1.0000
  H   H1687     1.0  0.37860  0.60590  0.39900  1.0000
  H   H1688     1.0  0.87140  0.64410  0.39900  1.0000
  H   H1689     1.0  0.87860  0.14410  0.85100  1.0000
  H   H1690     1.0  0.85100  0.37860  0.64410  1.0000
  H   H1691     1.0  0.64410  0.35100  0.87860  1.0000
  H   H1692     1.0  0.60590  0.89900  0.87860  1.0000
  H   H1693     1.0  0.85100  0.87140  0.60590  1.0000
  H   H1694     1.0  0.60590  0.35100  0.37140  1.0000
  H   H1695     1.0  0.39900  0.87140  0.64410  1.0000
  H   H1696     1.0  0.39900  0.37860  0.60590  1.0000
  H   H1697     1.0  0.64410  0.89900  0.37140  1.0000
  H   H1698     1.0  0.37140  0.10590  0.85100  1.0000
  H   H1699     1.0  0.87860  0.10590  0.39900  1.0000
  H   H1700     1.0  0.37140  0.14410  0.39900  1.0000
  H   H1701     1.0  0.87860  0.64410  0.35100  1.0000
  H   H1702     1.0  0.85100  0.87860  0.14410  1.0000
  H   H1703     1.0  0.64410  0.85100  0.37860  1.0000
  H   H1704     1.0  0.60590  0.39900  0.37860  1.0000
  H   H1705     1.0  0.85100  0.37140  0.10590  1.0000
  H   H1706     1.0  0.60590  0.85100  0.87140  1.0000
  H   H1707     1.0  0.39900  0.37140  0.14410  1.0000
  H   H1708     1.0  0.39900  0.87860  0.10590  1.0000
  H   H1709     1.0  0.64410  0.39900  0.87140  1.0000
  H   H1710     1.0  0.37140  0.60590  0.35100  1.0000
  H   H1711     1.0  0.87860  0.60590  0.89900  1.0000
  H   H1712     1.0  0.37140  0.64410  0.89900  1.0000
  H   H1713     1.0  0.62140  0.85590  0.64900  1.0000
  H   H1714     1.0  0.64900  0.62140  0.85590  1.0000
  H   H1715     1.0  0.85590  0.64900  0.62140  1.0000
  H   H1716     1.0  0.89410  0.10100  0.62140  1.0000
  H   H1717     1.0  0.64900  0.12860  0.89410  1.0000
  H   H1718     1.0  0.89410  0.64900  0.12860  1.0000
  H   H1719     1.0  0.10100  0.12860  0.85590  1.0000
  H   H1720     1.0  0.10100  0.62140  0.89410  1.0000
  H   H1721     1.0  0.85590  0.10100  0.12860  1.0000
  H   H1722     1.0  0.12860  0.89410  0.64900  1.0000
  H   H1723     1.0  0.62140  0.89410  0.10100  1.0000
  H   H1724     1.0  0.12860  0.85590  0.10100  1.0000
  H   H1725     1.0  0.62140  0.35590  0.14900  1.0000
  H   H1726     1.0  0.64900  0.12140  0.35590  1.0000
  H   H1727     1.0  0.85590  0.14900  0.12140  1.0000
  H   H1728     1.0  0.89410  0.60100  0.12140  1.0000
  H   H1729     1.0  0.64900  0.62860  0.39410  1.0000
  H   H1730     1.0  0.89410  0.14900  0.62860  1.0000
  H   H1731     1.0  0.10100  0.62860  0.35590  1.0000
  H   H1732     1.0  0.10100  0.12140  0.39410  1.0000
  H   H1733     1.0  0.85590  0.60100  0.62860  1.0000
  H   H1734     1.0  0.12860  0.39410  0.14900  1.0000
  H   H1735     1.0  0.62140  0.39410  0.60100  1.0000
  H   H1736     1.0  0.12860  0.35590  0.60100  1.0000
  H   H1737     1.0  0.12140  0.85590  0.14900  1.0000
  H   H1738     1.0  0.14900  0.62140  0.35590  1.0000
  H   H1739     1.0  0.35590  0.64900  0.12140  1.0000
  H   H1740     1.0  0.39410  0.10100  0.12140  1.0000
  H   H1741     1.0  0.14900  0.12860  0.39410  1.0000
  H   H1742     1.0  0.39410  0.64900  0.62860  1.0000
  H   H1743     1.0  0.60100  0.12860  0.35590  1.0000
  H   H1744     1.0  0.60100  0.62140  0.39410  1.0000
  H   H1745     1.0  0.35590  0.10100  0.62860  1.0000
  H   H1746     1.0  0.62860  0.89410  0.14900  1.0000
  H   H1747     1.0  0.12140  0.89410  0.60100  1.0000
  H   H1748     1.0  0.62860  0.85590  0.60100  1.0000
  H   H1749     1.0  0.12140  0.35590  0.64900  1.0000
  H   H1750     1.0  0.14900  0.12140  0.85590  1.0000
  H   H1751     1.0  0.35590  0.14900  0.62140  1.0000
  H   H1752     1.0  0.39410  0.60100  0.62140  1.0000
  H   H1753     1.0  0.14900  0.62860  0.89410  1.0000
  H   H1754     1.0  0.39410  0.14900  0.12860  1.0000
  H   H1755     1.0  0.60100  0.62860  0.85590  1.0000
  H   H1756     1.0  0.60100  0.12140  0.89410  1.0000
  H   H1757     1.0  0.35590  0.60100  0.12860  1.0000
  H   H1758     1.0  0.62860  0.39410  0.64900  1.0000
  H   H1759     1.0  0.12140  0.39410  0.10100  1.0000
  H   H1760     1.0  0.62860  0.35590  0.10100  1.0000
