data_image0
_chemical_formula_structural       Cd8O64C64H64
_chemical_formula_sum              "Cd8 O64 C64 H64"
_cell_length_a       7.4194
_cell_length_b       17.963
_cell_length_c       24.574
_cell_angle_alpha    90
_cell_angle_beta     90
_cell_angle_gamma    90

_space_group_name_H-M_alt    "P 1"
_space_group_IT_number       1

loop_
  _space_group_symop_operation_xyz
  'x, y, z'

loop_
  _atom_site_type_symbol
  _atom_site_label
  _atom_site_symmetry_multiplicity
  _atom_site_fract_x
  _atom_site_fract_y
  _atom_site_fract_z
  _atom_site_occupancy
  Cd  Cd1       1.0  0.12500  0.62500  0.12500  1.0000
  Cd  Cd2       1.0  0.12500  0.12500  0.62500  1.0000
  Cd  Cd3       1.0  0.62500  0.62500  0.62500  1.0000
  Cd  Cd4       1.0  0.62500  0.12500  0.12500  1.0000
  Cd  Cd5       1.0  0.37500  0.87500  0.87500  1.0000
  Cd  Cd6       1.0  0.37500  0.37500  0.37500  1.0000
  Cd  Cd7       1.0  0.87500  0.87500  0.37500  1.0000
  Cd  Cd8       1.0  0.87500  0.37500  0.87500  1.0000
  O   O1        1.0  0.91530  0.61553  0.05365  1.0000
  O   O2        1.0  0.91530  0.11553  0.55365  1.0000
  O   O3        1.0  0.91530  0.63447  0.19635  1.0000
  O   O4        1.0  0.41530  0.61553  0.55365  1.0000
  O   O5        1.0  0.33470  0.61553  0.19635  1.0000
  O   O6        1.0  0.41530  0.11553  0.05365  1.0000
  O   O7        1.0  0.33470  0.63447  0.05365  1.0000
  O   O8        1.0  0.16530  0.86553  0.94635  1.0000
  O   O9        1.0  0.16530  0.38447  0.30365  1.0000
  O   O10       1.0  0.08470  0.86553  0.30365  1.0000
  O   O11       1.0  0.16530  0.36553  0.44635  1.0000
  O   O12       1.0  0.16530  0.88447  0.80365  1.0000
  O   O13       1.0  0.66530  0.86553  0.44635  1.0000
  O   O14       1.0  0.58470  0.86553  0.80365  1.0000
  O   O15       1.0  0.66530  0.88447  0.30365  1.0000
  O   O16       1.0  0.58470  0.36553  0.30365  1.0000
  O   O17       1.0  0.08470  0.38447  0.94635  1.0000
  O   O18       1.0  0.08470  0.88447  0.44635  1.0000
  O   O19       1.0  0.08470  0.36553  0.80365  1.0000
  O   O20       1.0  0.58470  0.38447  0.44635  1.0000
  O   O21       1.0  0.66530  0.38447  0.80365  1.0000
  O   O22       1.0  0.58470  0.88447  0.94635  1.0000
  O   O23       1.0  0.66530  0.36553  0.94635  1.0000
  O   O24       1.0  0.83470  0.13447  0.05365  1.0000
  O   O25       1.0  0.83470  0.61553  0.69635  1.0000
  O   O26       1.0  0.91530  0.13447  0.69635  1.0000
  O   O27       1.0  0.83470  0.63447  0.55365  1.0000
  O   O28       1.0  0.83470  0.11553  0.19635  1.0000
  O   O29       1.0  0.33470  0.13447  0.55365  1.0000
  O   O30       1.0  0.41530  0.13447  0.19635  1.0000
  O   O31       1.0  0.33470  0.11553  0.69635  1.0000
  O   O32       1.0  0.41530  0.63447  0.69635  1.0000
  O   O33       1.0  0.96260  0.51932  0.16999  1.0000
  O   O34       1.0  0.96260  0.01932  0.66999  1.0000
  O   O35       1.0  0.96260  0.73068  0.08001  1.0000
  O   O36       1.0  0.46260  0.51932  0.66999  1.0000
  O   O37       1.0  0.28740  0.51932  0.08001  1.0000
  O   O38       1.0  0.46260  0.01932  0.16999  1.0000
  O   O39       1.0  0.28740  0.73068  0.16999  1.0000
  O   O40       1.0  0.21260  0.76932  0.83001  1.0000
  O   O41       1.0  0.21260  0.48068  0.41999  1.0000
  O   O42       1.0  0.03740  0.76932  0.41999  1.0000
  O   O43       1.0  0.21260  0.26932  0.33001  1.0000
  O   O44       1.0  0.21260  0.98068  0.91999  1.0000
  O   O45       1.0  0.71260  0.76932  0.33001  1.0000
  O   O46       1.0  0.53740  0.76932  0.91999  1.0000
  O   O47       1.0  0.71260  0.98068  0.41999  1.0000
  O   O48       1.0  0.53740  0.26932  0.41999  1.0000
  O   O49       1.0  0.03740  0.48068  0.83001  1.0000
  O   O50       1.0  0.03740  0.98068  0.33001  1.0000
  O   O51       1.0  0.03740  0.26932  0.91999  1.0000
  O   O52       1.0  0.53740  0.48068  0.33001  1.0000
  O   O53       1.0  0.71260  0.48068  0.91999  1.0000
  O   O54       1.0  0.53740  0.98068  0.83001  1.0000
  O   O55       1.0  0.71260  0.26932  0.83001  1.0000
  O   O56       1.0  0.78740  0.23068  0.16999  1.0000
  O   O57       1.0  0.78740  0.51932  0.58001  1.0000
  O   O58       1.0  0.96260  0.23068  0.58001  1.0000
  O   O59       1.0  0.78740  0.73068  0.66999  1.0000
  O   O60       1.0  0.78740  0.01932  0.08001  1.0000
  O   O61       1.0  0.28740  0.23068  0.66999  1.0000
  O   O62       1.0  0.46260  0.23068  0.08001  1.0000
  O   O63       1.0  0.28740  0.01932  0.58001  1.0000
  O   O64       1.0  0.46260  0.73068  0.58001  1.0000
  C   C1        1.0  0.88370  0.68465  0.05030  1.0000
  C   C2        1.0  0.88370  0.18465  0.55030  1.0000
  C   C3        1.0  0.88370  0.56535  0.19970  1.0000
  C   C4        1.0  0.38370  0.68465  0.55030  1.0000
  C   C5        1.0  0.36630  0.68465  0.19970  1.0000
  C   C6        1.0  0.38370  0.18465  0.05030  1.0000
  C   C7        1.0  0.36630  0.56535  0.05030  1.0000
  C   C8        1.0  0.13370  0.93465  0.94970  1.0000
  C   C9        1.0  0.13370  0.31535  0.30030  1.0000
  C   C10       1.0  0.11630  0.93465  0.30030  1.0000
  C   C11       1.0  0.13370  0.43465  0.44970  1.0000
  C   C12       1.0  0.13370  0.81535  0.80030  1.0000
  C   C13       1.0  0.63370  0.93465  0.44970  1.0000
  C   C14       1.0  0.61630  0.93465  0.80030  1.0000
  C   C15       1.0  0.63370  0.81535  0.30030  1.0000
  C   C16       1.0  0.61630  0.43465  0.30030  1.0000
  C   C17       1.0  0.11630  0.31535  0.94970  1.0000
  C   C18       1.0  0.11630  0.81535  0.44970  1.0000
  C   C19       1.0  0.11630  0.43465  0.80030  1.0000
  C   C20       1.0  0.61630  0.31535  0.44970  1.0000
  C   C21       1.0  0.63370  0.31535  0.80030  1.0000
  C   C22       1.0  0.61630  0.81535  0.94970  1.0000
  C   C23       1.0  0.63370  0.43465  0.94970  1.0000
  C   C24       1.0  0.86630  0.06535  0.05030  1.0000
  C   C25       1.0  0.86630  0.68465  0.69970  1.0000
  C   C26       1.0  0.88370  0.06535  0.69970  1.0000
  C   C27       1.0  0.86630  0.56535  0.55030  1.0000
  C   C28       1.0  0.86630  0.18465  0.19970  1.0000
  C   C29       1.0  0.36630  0.06535  0.55030  1.0000
  C   C30       1.0  0.38370  0.06535  0.19970  1.0000
  C   C31       1.0  0.36630  0.18465  0.69970  1.0000
  C   C32       1.0  0.38370  0.56535  0.69970  1.0000
  C   C33       1.0  0.74570  0.70927  0.00813  1.0000
  C   C34       1.0  0.74570  0.20927  0.50813  1.0000
  C   C35       1.0  0.74570  0.54073  0.24187  1.0000
  C   C36       1.0  0.24570  0.70927  0.50813  1.0000
  C   C37       1.0  0.50430  0.70927  0.24187  1.0000
  C   C38       1.0  0.24570  0.20927  0.00813  1.0000
  C   C39       1.0  0.50430  0.54073  0.00813  1.0000
  C   C40       1.0  0.99570  0.95927  0.99187  1.0000
  C   C41       1.0  0.99570  0.29073  0.25813  1.0000
  C   C42       1.0  0.25430  0.95927  0.25813  1.0000
  C   C43       1.0  0.99570  0.45927  0.49187  1.0000
  C   C44       1.0  0.99570  0.79073  0.75813  1.0000
  C   C45       1.0  0.49570  0.95927  0.49187  1.0000
  C   C46       1.0  0.75430  0.95927  0.75813  1.0000
  C   C47       1.0  0.49570  0.79073  0.25813  1.0000
  C   C48       1.0  0.75430  0.45927  0.25813  1.0000
  C   C49       1.0  0.25430  0.29073  0.99187  1.0000
  C   C50       1.0  0.25430  0.79073  0.49187  1.0000
  C   C51       1.0  0.25430  0.45927  0.75813  1.0000
  C   C52       1.0  0.75430  0.29073  0.49187  1.0000
  C   C53       1.0  0.49570  0.29073  0.75813  1.0000
  C   C54       1.0  0.75430  0.79073  0.99187  1.0000
  C   C55       1.0  0.49570  0.45927  0.99187  1.0000
  C   C56       1.0  0.00430  0.04073  0.00813  1.0000
  C   C57       1.0  0.00430  0.70927  0.74187  1.0000
  C   C58       1.0  0.74570  0.04073  0.74187  1.0000
  C   C59       1.0  0.00430  0.54073  0.50813  1.0000
  C   C60       1.0  0.00430  0.20927  0.24187  1.0000
  C   C61       1.0  0.50430  0.04073  0.50813  1.0000
  C   C62       1.0  0.24570  0.04073  0.24187  1.0000
  C   C63       1.0  0.50430  0.20927  0.74187  1.0000
  C   C64       1.0  0.24570  0.54073  0.74187  1.0000
  H   H1        1.0  0.63400  0.70020  0.02560  1.0000
  H   H2        1.0  0.63400  0.20020  0.52560  1.0000
  H   H3        1.0  0.63400  0.54980  0.22440  1.0000
  H   H4        1.0  0.13400  0.70020  0.52560  1.0000
  H   H5        1.0  0.61600  0.70020  0.22440  1.0000
  H   H6        1.0  0.13400  0.20020  0.02560  1.0000
  H   H7        1.0  0.61600  0.54980  0.02560  1.0000
  H   H8        1.0  0.88400  0.95020  0.97440  1.0000
  H   H9        1.0  0.88400  0.29980  0.27560  1.0000
  H   H10       1.0  0.36600  0.95020  0.27560  1.0000
  H   H11       1.0  0.88400  0.45020  0.47440  1.0000
  H   H12       1.0  0.88400  0.79980  0.77560  1.0000
  H   H13       1.0  0.38400  0.95020  0.47440  1.0000
  H   H14       1.0  0.86600  0.95020  0.77560  1.0000
  H   H15       1.0  0.38400  0.79980  0.27560  1.0000
  H   H16       1.0  0.86600  0.45020  0.27560  1.0000
  H   H17       1.0  0.36600  0.29980  0.97440  1.0000
  H   H18       1.0  0.36600  0.79980  0.47440  1.0000
  H   H19       1.0  0.36600  0.45020  0.77560  1.0000
  H   H20       1.0  0.86600  0.29980  0.47440  1.0000
  H   H21       1.0  0.38400  0.29980  0.77560  1.0000
  H   H22       1.0  0.86600  0.79980  0.97440  1.0000
  H   H23       1.0  0.38400  0.45020  0.97440  1.0000
  H   H24       1.0  0.11600  0.04980  0.02560  1.0000
  H   H25       1.0  0.11600  0.70020  0.72440  1.0000
  H   H26       1.0  0.63400  0.04980  0.72440  1.0000
  H   H27       1.0  0.11600  0.54980  0.52560  1.0000
  H   H28       1.0  0.11600  0.20020  0.22440  1.0000
  H   H29       1.0  0.61600  0.04980  0.52560  1.0000
  H   H30       1.0  0.13400  0.04980  0.22440  1.0000
  H   H31       1.0  0.61600  0.20020  0.72440  1.0000
  H   H32       1.0  0.13400  0.54980  0.72440  1.0000
  H   H33       1.0  0.76720  0.67770  0.97560  1.0000
  H   H34       1.0  0.76720  0.17770  0.47560  1.0000
  H   H35       1.0  0.76720  0.57230  0.27440  1.0000
  H   H36       1.0  0.26720  0.67770  0.47560  1.0000
  H   H37       1.0  0.48280  0.67770  0.27440  1.0000
  H   H38       1.0  0.26720  0.17770  0.97560  1.0000
  H   H39       1.0  0.48280  0.57230  0.97560  1.0000
  H   H40       1.0  0.01720  0.92770  0.02440  1.0000
  H   H41       1.0  0.01720  0.32230  0.22560  1.0000
  H   H42       1.0  0.23280  0.92770  0.22560  1.0000
  H   H43       1.0  0.01720  0.42770  0.52440  1.0000
  H   H44       1.0  0.01720  0.82230  0.72560  1.0000
  H   H45       1.0  0.51720  0.92770  0.52440  1.0000
  H   H46       1.0  0.73280  0.92770  0.72560  1.0000
  H   H47       1.0  0.51720  0.82230  0.22560  1.0000
  H   H48       1.0  0.73280  0.42770  0.22560  1.0000
  H   H49       1.0  0.23280  0.32230  0.02440  1.0000
  H   H50       1.0  0.23280  0.82230  0.52440  1.0000
  H   H51       1.0  0.23280  0.42770  0.72560  1.0000
  H   H52       1.0  0.73280  0.32230  0.52440  1.0000
  H   H53       1.0  0.51720  0.32230  0.72560  1.0000
  H   H54       1.0  0.73280  0.82230  0.02440  1.0000
  H   H55       1.0  0.51720  0.42770  0.02440  1.0000
  H   H56       1.0  0.98280  0.07230  0.97560  1.0000
  H   H57       1.0  0.98280  0.67770  0.77440  1.0000
  H   H58       1.0  0.76720  0.07230  0.77440  1.0000
  H   H59       1.0  0.98280  0.57230  0.47560  1.0000
  H   H60       1.0  0.98280  0.17770  0.27440  1.0000
  H   H61       1.0  0.48280  0.07230  0.47560  1.0000
  H   H62       1.0  0.26720  0.07230  0.27440  1.0000
  H   H63       1.0  0.48280  0.17770  0.77440  1.0000
  H   H64       1.0  0.26720  0.57230  0.77440  1.0000
