data_image0
_chemical_formula_structural       C6H2C2H2C2H2C4H2C8H2C2H2C2H2C4H2C8H2C2H2C2H2C6H2C2H2Eu4O28
_chemical_formula_sum              "C50 H26 Eu4 O28"
_cell_length_a       8.3936
_cell_length_b       10.5347
_cell_length_c       17.4093
_cell_angle_alpha    99.174
_cell_angle_beta     97.13
_cell_angle_gamma    100.348

_space_group_name_H-M_alt    "P 1"
_space_group_IT_number       1

loop_
  _space_group_symop_operation_xyz
  'x, y, z'

loop_
  _atom_site_type_symbol
  _atom_site_label
  _atom_site_symmetry_multiplicity
  _atom_site_fract_x
  _atom_site_fract_y
  _atom_site_fract_z
  _atom_site_occupancy
  C   C1        1.0  0.97490  0.55750  0.30462  1.0000
  C   C2        1.0  0.02510  0.44250  0.69538  1.0000
  C   C3        1.0  0.97230  0.42730  0.32890  1.0000
  C   C4        1.0  0.02770  0.57270  0.67110  1.0000
  C   C5        1.0  0.06370  0.42000  0.39990  1.0000
  C   C6        1.0  0.93630  0.58000  0.60010  1.0000
  H   H1        1.0  0.12870  0.49570  0.43140  1.0000
  H   H2        1.0  0.87130  0.50430  0.56860  1.0000
  C   C7        1.0  0.05810  0.30000  0.42380  1.0000
  C   C8        1.0  0.94190  0.70000  0.57620  1.0000
  H   H3        1.0  0.11760  0.29560  0.47170  1.0000
  H   H4        1.0  0.88240  0.70440  0.52830  1.0000
  C   C9        1.0  0.96380  0.18640  0.37620  1.0000
  C   C10       1.0  0.03620  0.81360  0.62380  1.0000
  H   H5        1.0  0.96250  0.10590  0.39180  1.0000
  H   H6        1.0  0.03750  0.89410  0.60820  1.0000
  C   C11       1.0  0.87160  0.19240  0.30550  1.0000
  C   C12       1.0  0.12840  0.80760  0.69450  1.0000
  C   C13       1.0  0.87680  0.31370  0.28250  1.0000
  C   C14       1.0  0.12320  0.68630  0.71750  1.0000
  H   H7        1.0  0.81510  0.31840  0.23520  1.0000
  H   H8        1.0  0.18490  0.68160  0.76480  1.0000
  C   C15       1.0  0.75650  0.07450  0.25720  1.0000
  C   C16       1.0  0.24350  0.92550  0.74280  1.0000
  C   C17       1.0  0.83820  0.00360  0.85932  1.0000
  C   C18       1.0  0.16180  0.99640  0.14068  1.0000
  C   C19       1.0  0.87230  0.90660  0.91074  1.0000
  C   C20       1.0  0.12770  0.09340  0.08926  1.0000
  C   C21       1.0  0.99700  0.83780  0.89980  1.0000
  C   C22       1.0  0.00300  0.16220  0.10020  1.0000
  H   H9        1.0  0.05980  0.85090  0.86030  1.0000
  H   H10       1.0  0.94020  0.14910  0.13970  1.0000
  C   C23       1.0  0.02690  0.74960  0.94830  1.0000
  C   C24       1.0  0.97310  0.25040  0.05170  1.0000
  H   H11       1.0  0.10770  0.70130  0.94000  1.0000
  H   H12       1.0  0.89230  0.29870  0.06000  1.0000
  C   C25       1.0  0.93740  0.73290  0.00880  1.0000
  C   C26       1.0  0.06260  0.26710  0.99120  1.0000
  H   H13       1.0  0.96010  0.67500  0.04180  1.0000
  H   H14       1.0  0.03990  0.32500  0.95820  1.0000
  C   C27       1.0  0.81490  0.80160  0.02047  1.0000
  C   C28       1.0  0.18510  0.19840  0.97953  1.0000
  C   C29       1.0  0.78060  0.88730  0.97033  1.0000
  C   C30       1.0  0.21940  0.11270  0.02967  1.0000
  H   H15       1.0  0.69570  0.93180  0.97690  1.0000
  H   H16       1.0  0.30430  0.06820  0.02310  1.0000
  C   C31       1.0  0.72240  0.79000  0.08796  1.0000
  C   C32       1.0  0.27760  0.21000  0.91204  1.0000
  C   C33       1.0  0.68900  0.00080  0.63713  1.0000
  C   C34       1.0  0.31100  0.99920  0.36287  1.0000
  C   C35       1.0  0.59910  0.90540  0.56475  1.0000
  C   C36       1.0  0.40090  0.09460  0.43525  1.0000
  C   C37       1.0  0.43650  0.84620  0.56320  1.0000
  C   C38       1.0  0.56350  0.15380  0.43680  1.0000
  H   H17       1.0  0.38730  0.86230  0.60780  1.0000
  H   H18       1.0  0.61270  0.13770  0.39220  1.0000
  C   C39       1.0  0.34730  0.76370  0.49610  1.0000
  C   C40       1.0  0.65270  0.23630  0.50390  1.0000
  H   H19       1.0  0.23830  0.72500  0.49540  1.0000
  H   H20       1.0  0.76170  0.27500  0.50460  1.0000
  C   C41       1.0  0.42040  0.73910  0.43050  1.0000
  C   C42       1.0  0.57960  0.26090  0.56950  1.0000
  H   H21       1.0  0.35970  0.68450  0.38510  1.0000
  H   H22       1.0  0.64030  0.31550  0.61490  1.0000
  C   C43       1.0  0.58300  0.79440  0.43108  1.0000
  C   C44       1.0  0.41700  0.20560  0.56892  1.0000
  C   C45       1.0  0.65950  0.76910  0.35878  1.0000
  C   C46       1.0  0.34050  0.23090  0.64122  1.0000
  C   C47       1.0  0.67270  0.87870  0.49879  1.0000
  C   C48       1.0  0.32730  0.12130  0.50121  1.0000
  H   H23       1.0  0.78190  0.91690  0.49950  1.0000
  H   H24       1.0  0.21810  0.08310  0.50050  1.0000
  C   C49       1.0  0.21450  0.62770  0.16140  1.0000
  C   C50       1.0  0.78550  0.37230  0.83860  1.0000
  H   H25       1.0  0.13320  0.55170  0.14750  1.0000
  H   H26       1.0  0.86680  0.44830  0.85250  1.0000
  Eu  Eu1       1.0  0.47769  0.86133  0.20330  1.0000
  Eu  Eu2       1.0  0.52231  0.13867  0.79670  1.0000
  Eu  Eu3       1.0  0.96636  0.80744  0.26231  1.0000
  Eu  Eu4       1.0  0.03364  0.19256  0.73769  1.0000
  O   O1        1.0  0.07070  0.65700  0.34339  1.0000
  O   O2        1.0  0.92930  0.34300  0.65661  1.0000
  O   O3        1.0  0.87690  0.56410  0.24341  1.0000
  O   O4        1.0  0.12310  0.43590  0.75659  1.0000
  O   O5        1.0  0.63850  0.08860  0.21063  1.0000
  O   O6        1.0  0.36150  0.91140  0.78937  1.0000
  O   O7        1.0  0.77420  0.95990  0.26770  1.0000
  O   O8        1.0  0.22580  0.04010  0.73230  1.0000
  O   O9        1.0  0.93820  0.03330  0.81391  1.0000
  O   O10       1.0  0.06180  0.96670  0.18609  1.0000
  O   O11       1.0  0.71050  0.04890  0.86598  1.0000
  O   O12       1.0  0.28950  0.95110  0.13402  1.0000
  O   O13       1.0  0.59350  0.83350  0.08689  1.0000
  O   O14       1.0  0.40650  0.16650  0.91311  1.0000
  O   O15       1.0  0.77680  0.73530  0.14286  1.0000
  O   O16       1.0  0.22320  0.26470  0.85714  1.0000
  O   O17       1.0  0.83850  0.04720  0.64084  1.0000
  O   O18       1.0  0.16150  0.95280  0.35916  1.0000
  O   O19       1.0  0.60540  0.03060  0.69045  1.0000
  O   O20       1.0  0.39460  0.96940  0.30955  1.0000
  O   O21       1.0  0.56520  0.73100  0.29226  1.0000
  O   O22       1.0  0.43480  0.26900  0.70774  1.0000
  O   O23       1.0  0.81200  0.78590  0.36658  1.0000
  O   O24       1.0  0.18800  0.21410  0.63342  1.0000
  O   O25       1.0  0.34850  0.62670  0.13763  1.0000
  O   O26       1.0  0.65150  0.37330  0.86237  1.0000
  O   O27       1.0  0.18440  0.72500  0.20253  1.0000
  O   O28       1.0  0.81560  0.27500  0.79747  1.0000
