data_image0
_chemical_formula_structural       U2P4O16C16H16
_chemical_formula_sum              "U2 P4 O16 C16 H16"
_cell_length_a       7.9833
_cell_length_b       9.8561
_cell_length_c       10.0391
_cell_angle_alpha    88.592
_cell_angle_beta     74.351
_cell_angle_gamma    72.027

_space_group_name_H-M_alt    "P 1"
_space_group_IT_number       1

loop_
  _space_group_symop_operation_xyz
  'x, y, z'

loop_
  _atom_site_type_symbol
  _atom_site_label
  _atom_site_symmetry_multiplicity
  _atom_site_fract_x
  _atom_site_fract_y
  _atom_site_fract_z
  _atom_site_occupancy
  U   U1        1.0  0.02424  0.70512  0.97036  1.0000
  U   U2        1.0  0.97576  0.29488  0.02964  1.0000
  P   P1        1.0  0.30020  0.44580  0.77415  1.0000
  P   P2        1.0  0.69980  0.55420  0.22585  1.0000
  P   P3        1.0  0.76500  0.02788  0.18540  1.0000
  P   P4        1.0  0.23500  0.97212  0.81460  1.0000
  O   O1        1.0  0.47050  0.36740  0.81530  1.0000
  O   O2        1.0  0.52950  0.63260  0.18470  1.0000
  O   O3        1.0  0.27200  0.60610  0.76270  1.0000
  O   O4        1.0  0.72800  0.39390  0.23730  1.0000
  O   O5        1.0  0.12250  0.44260  0.88390  1.0000
  O   O6        1.0  0.87750  0.55740  0.11610  1.0000
  O   O7        1.0  0.84990  0.86640  0.15620  1.0000
  O   O8        1.0  0.15010  0.13360  0.84380  1.0000
  O   O9        1.0  0.59330  0.08640  0.13820  1.0000
  O   O10       1.0  0.40670  0.91360  0.86180  1.0000
  O   O11       1.0  0.90950  0.10140  0.12250  1.0000
  O   O12       1.0  0.09050  0.89860  0.87750  1.0000
  O   O13       1.0  0.84750  0.74660  0.88410  1.0000
  O   O14       1.0  0.15250  0.25340  0.11590  1.0000
  O   O15       1.0  0.20140  0.66090  0.05500  1.0000
  O   O16       1.0  0.79860  0.33910  0.94500  1.0000
  C   C1        1.0  0.30800  0.36540  0.61280  1.0000
  C   C2        1.0  0.69200  0.63460  0.38720  1.0000
  C   C3        1.0  0.14860  0.43590  0.55480  1.0000
  C   C4        1.0  0.85140  0.56410  0.44520  1.0000
  C   C5        1.0  0.16470  0.52280  0.44530  1.0000
  C   C6        1.0  0.83530  0.47720  0.55470  1.0000
  C   C7        1.0  0.01930  0.58640  0.39160  1.0000
  C   C8        1.0  0.98070  0.41360  0.60840  1.0000
  C   C9        1.0  0.69990  0.06840  0.37020  1.0000
  C   C10       1.0  0.30010  0.93160  0.62980  1.0000
  C   C11       1.0  0.85400  0.03340  0.43810  1.0000
  C   C12       1.0  0.14600  0.96660  0.56190  1.0000
  C   C13       1.0  0.89010  0.91430  0.51510  1.0000
  C   C14       1.0  0.10990  0.08570  0.48490  1.0000
  C   C15       1.0  0.96700  0.11860  0.42470  1.0000
  C   C16       1.0  0.03300  0.88140  0.57530  1.0000
  H   H1        1.0  0.25900  0.55000  0.42000  1.0000
  H   H2        1.0  0.74100  0.45000  0.58000  1.0000
  H   H3        1.0  0.02600  0.64100  0.34100  1.0000
  H   H4        1.0  0.97400  0.35900  0.65900  1.0000
  H   H5        1.0  0.80600  0.86500  0.53700  1.0000
  H   H6        1.0  0.19400  0.13500  0.46300  1.0000
  H   H7        1.0  0.93400  0.20300  0.39100  1.0000
  H   H8        1.0  0.06600  0.79700  0.60900  1.0000
  H   H9        1.0  0.31200  0.27300  0.63400  1.0000
  H   H10       1.0  0.68800  0.72700  0.36600  1.0000
  H   H11       1.0  0.61000  0.02400  0.41200  1.0000
  H   H12       1.0  0.39000  0.97600  0.58800  1.0000
  H   H13       1.0  0.41300  0.37600  0.54200  1.0000
  H   H14       1.0  0.58700  0.62400  0.45800  1.0000
  H   H15       1.0  0.64600  0.16000  0.38300  1.0000
  H   H16       1.0  0.35400  0.84000  0.61700  1.0000
