data_image0
_chemical_formula_structural       Tb12O96N48C12H12C12H12C12H12C12H12C12H12C12H12C12H12C12H12C12H12C12H12C12H12C12H12C12H12C12H12C12H12C12H12C96
_chemical_formula_sum              "Tb12 O96 N48 C288 H192"
_cell_length_a       12.7708
_cell_length_b       12.7708
_cell_length_c       62.46
_cell_angle_alpha    90
_cell_angle_beta     90
_cell_angle_gamma    120

_space_group_name_H-M_alt    "P 1"
_space_group_IT_number       1

loop_
  _space_group_symop_operation_xyz
  'x, y, z'

loop_
  _atom_site_type_symbol
  _atom_site_label
  _atom_site_symmetry_multiplicity
  _atom_site_fract_x
  _atom_site_fract_y
  _atom_site_fract_z
  _atom_site_occupancy
  Tb  Tb1       1.0  0.92856  0.46163  0.00553  1.0000
  Tb  Tb2       1.0  0.46693  0.92856  0.83886  1.0000
  Tb  Tb3       1.0  0.53837  0.46693  0.67220  1.0000
  Tb  Tb4       1.0  0.07144  0.53837  0.50553  1.0000
  Tb  Tb5       1.0  0.53307  0.07144  0.33886  1.0000
  Tb  Tb6       1.0  0.46163  0.53307  0.17220  1.0000
  Tb  Tb7       1.0  0.46693  0.53837  0.99447  1.0000
  Tb  Tb8       1.0  0.07144  0.53307  0.32780  1.0000
  Tb  Tb9       1.0  0.46163  0.92856  0.66114  1.0000
  Tb  Tb10      1.0  0.53837  0.07144  0.16114  1.0000
  Tb  Tb11      1.0  0.53307  0.46163  0.49447  1.0000
  Tb  Tb12      1.0  0.92856  0.46693  0.82780  1.0000
  O   O1        1.0  0.83040  0.37340  0.97350  1.0000
  O   O2        1.0  0.45700  0.83040  0.80683  1.0000
  O   O3        1.0  0.62660  0.45700  0.64017  1.0000
  O   O4        1.0  0.16960  0.62660  0.47350  1.0000
  O   O5        1.0  0.54300  0.16960  0.30683  1.0000
  O   O6        1.0  0.37340  0.54300  0.14017  1.0000
  O   O7        1.0  0.45700  0.62660  0.02650  1.0000
  O   O8        1.0  0.16960  0.54300  0.35983  1.0000
  O   O9        1.0  0.37340  0.83040  0.69317  1.0000
  O   O10       1.0  0.62660  0.16960  0.19317  1.0000
  O   O11       1.0  0.54300  0.37340  0.52650  1.0000
  O   O12       1.0  0.83040  0.45700  0.85983  1.0000
  O   O13       1.0  0.07790  0.65280  0.01930  1.0000
  O   O14       1.0  0.42510  0.07790  0.85263  1.0000
  O   O15       1.0  0.34720  0.42510  0.68597  1.0000
  O   O16       1.0  0.92210  0.34720  0.51930  1.0000
  O   O17       1.0  0.57490  0.92210  0.35263  1.0000
  O   O18       1.0  0.65280  0.57490  0.18597  1.0000
  O   O19       1.0  0.42510  0.34720  0.98070  1.0000
  O   O20       1.0  0.92210  0.57490  0.31403  1.0000
  O   O21       1.0  0.65280  0.07790  0.64737  1.0000
  O   O22       1.0  0.34720  0.92210  0.14737  1.0000
  O   O23       1.0  0.57490  0.65280  0.48070  1.0000
  O   O24       1.0  0.07790  0.42510  0.81403  1.0000
  O   O25       1.0  0.75400  0.47570  0.00152  1.0000
  O   O26       1.0  0.27830  0.75400  0.83485  1.0000
  O   O27       1.0  0.52430  0.27830  0.66819  1.0000
  O   O28       1.0  0.24600  0.52430  0.50152  1.0000
  O   O29       1.0  0.72170  0.24600  0.33485  1.0000
  O   O30       1.0  0.47570  0.72170  0.16819  1.0000
  O   O31       1.0  0.27830  0.52430  0.99848  1.0000
  O   O32       1.0  0.24600  0.72170  0.33181  1.0000
  O   O33       1.0  0.47570  0.75400  0.66515  1.0000
  O   O34       1.0  0.52430  0.24600  0.16515  1.0000
  O   O35       1.0  0.72170  0.47570  0.49848  1.0000
  O   O36       1.0  0.75400  0.27830  0.83181  1.0000
  O   O37       1.0  0.98820  0.38820  0.03480  1.0000
  O   O38       1.0  0.60000  0.98820  0.86813  1.0000
  O   O39       1.0  0.61180  0.60000  0.70147  1.0000
  O   O40       1.0  0.01180  0.61180  0.53480  1.0000
  O   O41       1.0  0.40000  0.01180  0.36813  1.0000
  O   O42       1.0  0.38820  0.40000  0.20147  1.0000
  O   O43       1.0  0.60000  0.61180  0.96520  1.0000
  O   O44       1.0  0.01180  0.40000  0.29853  1.0000
  O   O45       1.0  0.38820  0.98820  0.63187  1.0000
  O   O46       1.0  0.61180  0.01180  0.13187  1.0000
  O   O47       1.0  0.40000  0.38820  0.46520  1.0000
  O   O48       1.0  0.98820  0.60000  0.79853  1.0000
  O   O49       1.0  0.76100  0.24000  0.94760  1.0000
  O   O50       1.0  0.52100  0.76100  0.78093  1.0000
  O   O51       1.0  0.76000  0.52100  0.61427  1.0000
  O   O52       1.0  0.23900  0.76000  0.44760  1.0000
  O   O53       1.0  0.47900  0.23900  0.28093  1.0000
  O   O54       1.0  0.24000  0.47900  0.11427  1.0000
  O   O55       1.0  0.52100  0.76000  0.05240  1.0000
  O   O56       1.0  0.23900  0.47900  0.38573  1.0000
  O   O57       1.0  0.24000  0.76100  0.71907  1.0000
  O   O58       1.0  0.76000  0.23900  0.21907  1.0000
  O   O59       1.0  0.47900  0.24000  0.55240  1.0000
  O   O60       1.0  0.76100  0.52100  0.88573  1.0000
  O   O61       1.0  0.22330  0.84190  0.01700  1.0000
  O   O62       1.0  0.38140  0.22330  0.85033  1.0000
  O   O63       1.0  0.15810  0.38140  0.68367  1.0000
  O   O64       1.0  0.77670  0.15810  0.51700  1.0000
  O   O65       1.0  0.61860  0.77670  0.35033  1.0000
  O   O66       1.0  0.84190  0.61860  0.18367  1.0000
  O   O67       1.0  0.38140  0.15810  0.98300  1.0000
  O   O68       1.0  0.77670  0.61860  0.31633  1.0000
  O   O69       1.0  0.84190  0.22330  0.64967  1.0000
  O   O70       1.0  0.15810  0.77670  0.14967  1.0000
  O   O71       1.0  0.61860  0.84190  0.48300  1.0000
  O   O72       1.0  0.22330  0.38140  0.81633  1.0000
  O   O73       1.0  0.58760  0.48260  0.01190  1.0000
  O   O74       1.0  0.10500  0.58760  0.84523  1.0000
  O   O75       1.0  0.51740  0.10500  0.67857  1.0000
  O   O76       1.0  0.41240  0.51740  0.51190  1.0000
  O   O77       1.0  0.89500  0.41240  0.34523  1.0000
  O   O78       1.0  0.48260  0.89500  0.17857  1.0000
  O   O79       1.0  0.10500  0.51740  0.98810  1.0000
  O   O80       1.0  0.41240  0.89500  0.32143  1.0000
  O   O81       1.0  0.48260  0.58760  0.65477  1.0000
  O   O82       1.0  0.51740  0.41240  0.15477  1.0000
  O   O83       1.0  0.89500  0.48260  0.48810  1.0000
  O   O84       1.0  0.58760  0.10500  0.82143  1.0000
  O   O85       1.0  0.95870  0.25940  0.06070  1.0000
  O   O86       1.0  0.69930  0.95870  0.89403  1.0000
  O   O87       1.0  0.74060  0.69930  0.72737  1.0000
  O   O88       1.0  0.04130  0.74060  0.56070  1.0000
  O   O89       1.0  0.30070  0.04130  0.39403  1.0000
  O   O90       1.0  0.25940  0.30070  0.22737  1.0000
  O   O91       1.0  0.69930  0.74060  0.93930  1.0000
  O   O92       1.0  0.04130  0.30070  0.27263  1.0000
  O   O93       1.0  0.25940  0.95870  0.60597  1.0000
  O   O94       1.0  0.74060  0.04130  0.10597  1.0000
  O   O95       1.0  0.30070  0.25940  0.43930  1.0000
  O   O96       1.0  0.95870  0.69930  0.77263  1.0000
  N   N1        1.0  0.95080  0.27010  0.99120  1.0000
  N   N2        1.0  0.68070  0.95080  0.82453  1.0000
  N   N3        1.0  0.72990  0.68070  0.65787  1.0000
  N   N4        1.0  0.04920  0.72990  0.49120  1.0000
  N   N5        1.0  0.31930  0.04920  0.32453  1.0000
  N   N6        1.0  0.27010  0.31930  0.15787  1.0000
  N   N7        1.0  0.68070  0.72990  0.00880  1.0000
  N   N8        1.0  0.04920  0.31930  0.34213  1.0000
  N   N9        1.0  0.27010  0.95080  0.67547  1.0000
  N   N10       1.0  0.72990  0.04920  0.17547  1.0000
  N   N11       1.0  0.31930  0.27010  0.50880  1.0000
  N   N12       1.0  0.95080  0.68070  0.84213  1.0000
  N   N13       1.0  0.99240  0.65670  0.98220  1.0000
  N   N14       1.0  0.33570  0.99240  0.81553  1.0000
  N   N15       1.0  0.34330  0.33570  0.64887  1.0000
  N   N16       1.0  0.00760  0.34330  0.48220  1.0000
  N   N17       1.0  0.66430  0.00760  0.31553  1.0000
  N   N18       1.0  0.65670  0.66430  0.14887  1.0000
  N   N19       1.0  0.33570  0.34330  0.01780  1.0000
  N   N20       1.0  0.00760  0.66430  0.35113  1.0000
  N   N21       1.0  0.65670  0.99240  0.68447  1.0000
  N   N22       1.0  0.34330  0.00760  0.18447  1.0000
  N   N23       1.0  0.66430  0.65670  0.51780  1.0000
  N   N24       1.0  0.99240  0.33570  0.85113  1.0000
  N   N25       1.0  0.84500  0.51190  0.04030  1.0000
  N   N26       1.0  0.33310  0.84500  0.87363  1.0000
  N   N27       1.0  0.48810  0.33310  0.70697  1.0000
  N   N28       1.0  0.15500  0.48810  0.54030  1.0000
  N   N29       1.0  0.66690  0.15500  0.37363  1.0000
  N   N30       1.0  0.51190  0.66690  0.20697  1.0000
  N   N31       1.0  0.33310  0.48810  0.95970  1.0000
  N   N32       1.0  0.15500  0.66690  0.29303  1.0000
  N   N33       1.0  0.51190  0.84500  0.62637  1.0000
  N   N34       1.0  0.48810  0.15500  0.12637  1.0000
  N   N35       1.0  0.66690  0.51190  0.45970  1.0000
  N   N36       1.0  0.84500  0.33310  0.79303  1.0000
  N   N37       1.0  0.75940  0.26210  0.02100  1.0000
  N   N38       1.0  0.49730  0.75940  0.85433  1.0000
  N   N39       1.0  0.73790  0.49730  0.68767  1.0000
  N   N40       1.0  0.24060  0.73790  0.52100  1.0000
  N   N41       1.0  0.50270  0.24060  0.35433  1.0000
  N   N42       1.0  0.26210  0.50270  0.18767  1.0000
  N   N43       1.0  0.49730  0.73790  0.97900  1.0000
  N   N44       1.0  0.24060  0.50270  0.31233  1.0000
  N   N45       1.0  0.26210  0.75940  0.64567  1.0000
  N   N46       1.0  0.73790  0.24060  0.14567  1.0000
  N   N47       1.0  0.50270  0.26210  0.47900  1.0000
  N   N48       1.0  0.75940  0.49730  0.81233  1.0000
  C   C1        1.0  0.01990  0.22840  0.99800  1.0000
  C   C2        1.0  0.79150  0.01990  0.83133  1.0000
  C   C3        1.0  0.77160  0.79150  0.66467  1.0000
  C   C4        1.0  0.98010  0.77160  0.49800  1.0000
  C   C5        1.0  0.20850  0.98010  0.33133  1.0000
  C   C6        1.0  0.22840  0.20850  0.16467  1.0000
  C   C7        1.0  0.79150  0.77160  0.00200  1.0000
  C   C8        1.0  0.98010  0.20850  0.33533  1.0000
  C   C9        1.0  0.22840  0.01990  0.66867  1.0000
  C   C10       1.0  0.77160  0.98010  0.16867  1.0000
  C   C11       1.0  0.20850  0.22840  0.50200  1.0000
  C   C12       1.0  0.01990  0.79150  0.83533  1.0000
  H   H1        1.0  0.05750  0.25310  0.01140  1.0000
  H   H2        1.0  0.80440  0.05750  0.84473  1.0000
  H   H3        1.0  0.74690  0.80440  0.67807  1.0000
  H   H4        1.0  0.94250  0.74690  0.51140  1.0000
  H   H5        1.0  0.19560  0.94250  0.34473  1.0000
  H   H6        1.0  0.25310  0.19560  0.17807  1.0000
  H   H7        1.0  0.80440  0.74690  0.98860  1.0000
  H   H8        1.0  0.94250  0.19560  0.32193  1.0000
  H   H9        1.0  0.25310  0.05750  0.65527  1.0000
  H   H10       1.0  0.74690  0.94250  0.15527  1.0000
  H   H11       1.0  0.19560  0.25310  0.48860  1.0000
  H   H12       1.0  0.05750  0.80440  0.82193  1.0000
  C   C13       1.0  0.94500  0.65700  0.96230  1.0000
  C   C14       1.0  0.28800  0.94500  0.79563  1.0000
  C   C15       1.0  0.34300  0.28800  0.62897  1.0000
  C   C16       1.0  0.05500  0.34300  0.46230  1.0000
  C   C17       1.0  0.71200  0.05500  0.29563  1.0000
  C   C18       1.0  0.65700  0.71200  0.12897  1.0000
  C   C19       1.0  0.28800  0.34300  0.03770  1.0000
  C   C20       1.0  0.05500  0.71200  0.37103  1.0000
  C   C21       1.0  0.65700  0.94500  0.70437  1.0000
  C   C22       1.0  0.34300  0.05500  0.20437  1.0000
  C   C23       1.0  0.71200  0.65700  0.53770  1.0000
  C   C24       1.0  0.94500  0.28800  0.87103  1.0000
  H   H13       1.0  0.87840  0.58530  0.95700  1.0000
  H   H14       1.0  0.29310  0.87840  0.79033  1.0000
  H   H15       1.0  0.41470  0.29310  0.62367  1.0000
  H   H16       1.0  0.12160  0.41470  0.45700  1.0000
  H   H17       1.0  0.70690  0.12160  0.29033  1.0000
  H   H18       1.0  0.58530  0.70690  0.12367  1.0000
  H   H19       1.0  0.29310  0.41470  0.04300  1.0000
  H   H20       1.0  0.12160  0.70690  0.37633  1.0000
  H   H21       1.0  0.58530  0.87840  0.70967  1.0000
  H   H22       1.0  0.41470  0.12160  0.20967  1.0000
  H   H23       1.0  0.70690  0.58530  0.54300  1.0000
  H   H24       1.0  0.87840  0.29310  0.87633  1.0000
  C   C25       1.0  0.89600  0.53500  0.06010  1.0000
  C   C26       1.0  0.36100  0.89600  0.89343  1.0000
  C   C27       1.0  0.46500  0.36100  0.72677  1.0000
  C   C28       1.0  0.10400  0.46500  0.56010  1.0000
  C   C29       1.0  0.63900  0.10400  0.39343  1.0000
  C   C30       1.0  0.53500  0.63900  0.22677  1.0000
  C   C31       1.0  0.36100  0.46500  0.93990  1.0000
  C   C32       1.0  0.10400  0.63900  0.27323  1.0000
  C   C33       1.0  0.53500  0.89600  0.60657  1.0000
  C   C34       1.0  0.46500  0.10400  0.10657  1.0000
  C   C35       1.0  0.63900  0.53500  0.43990  1.0000
  C   C36       1.0  0.89600  0.36100  0.77323  1.0000
  H   H25       1.0  0.96780  0.53350  0.06220  1.0000
  H   H26       1.0  0.43430  0.96780  0.89553  1.0000
  H   H27       1.0  0.46650  0.43430  0.72887  1.0000
  H   H28       1.0  0.03220  0.46650  0.56220  1.0000
  H   H29       1.0  0.56570  0.03220  0.39553  1.0000
  H   H30       1.0  0.53350  0.56570  0.22887  1.0000
  H   H31       1.0  0.43430  0.46650  0.93780  1.0000
  H   H32       1.0  0.03220  0.56570  0.27113  1.0000
  H   H33       1.0  0.53350  0.96780  0.60447  1.0000
  H   H34       1.0  0.46650  0.03220  0.10447  1.0000
  H   H35       1.0  0.56570  0.53350  0.43780  1.0000
  H   H36       1.0  0.96780  0.43430  0.77113  1.0000
  C   C37       1.0  0.64000  0.20500  0.01510  1.0000
  C   C38       1.0  0.43500  0.64000  0.84843  1.0000
  C   C39       1.0  0.79500  0.43500  0.68177  1.0000
  C   C40       1.0  0.36000  0.79500  0.51510  1.0000
  C   C41       1.0  0.56500  0.36000  0.34843  1.0000
  C   C42       1.0  0.20500  0.56500  0.18177  1.0000
  C   C43       1.0  0.43500  0.79500  0.98490  1.0000
  C   C44       1.0  0.36000  0.56500  0.31823  1.0000
  C   C45       1.0  0.20500  0.64000  0.65157  1.0000
  C   C46       1.0  0.79500  0.36000  0.15157  1.0000
  C   C47       1.0  0.56500  0.20500  0.48490  1.0000
  C   C48       1.0  0.64000  0.43500  0.81823  1.0000
  H   H37       1.0  0.61290  0.23780  0.00430  1.0000
  H   H38       1.0  0.37510  0.61290  0.83763  1.0000
  H   H39       1.0  0.76220  0.37510  0.67097  1.0000
  H   H40       1.0  0.38710  0.76220  0.50430  1.0000
  H   H41       1.0  0.62490  0.38710  0.33763  1.0000
  H   H42       1.0  0.23780  0.62490  0.17097  1.0000
  H   H43       1.0  0.37510  0.76220  0.99570  1.0000
  H   H44       1.0  0.38710  0.62490  0.32903  1.0000
  H   H45       1.0  0.23780  0.61290  0.66237  1.0000
  H   H46       1.0  0.76220  0.38710  0.16237  1.0000
  H   H47       1.0  0.62490  0.23780  0.49570  1.0000
  H   H48       1.0  0.61290  0.37510  0.82903  1.0000
  C   C49       1.0  0.03800  0.15300  0.98650  1.0000
  C   C50       1.0  0.88500  0.03800  0.81983  1.0000
  C   C51       1.0  0.84700  0.88500  0.65317  1.0000
  C   C52       1.0  0.96200  0.84700  0.48650  1.0000
  C   C53       1.0  0.11500  0.96200  0.31983  1.0000
  C   C54       1.0  0.15300  0.11500  0.15317  1.0000
  C   C55       1.0  0.88500  0.84700  0.01350  1.0000
  C   C56       1.0  0.96200  0.11500  0.34683  1.0000
  C   C57       1.0  0.15300  0.03800  0.68017  1.0000
  C   C58       1.0  0.84700  0.96200  0.18017  1.0000
  C   C59       1.0  0.11500  0.15300  0.51350  1.0000
  C   C60       1.0  0.03800  0.88500  0.84683  1.0000
  H   H49       1.0  0.09660  0.13490  0.99110  1.0000
  H   H50       1.0  0.96170  0.09660  0.82443  1.0000
  H   H51       1.0  0.86510  0.96170  0.65777  1.0000
  H   H52       1.0  0.90340  0.86510  0.49110  1.0000
  H   H53       1.0  0.03830  0.90340  0.32443  1.0000
  H   H54       1.0  0.13490  0.03830  0.15777  1.0000
  H   H55       1.0  0.96170  0.86510  0.00890  1.0000
  H   H56       1.0  0.90340  0.03830  0.34223  1.0000
  H   H57       1.0  0.13490  0.09660  0.67557  1.0000
  H   H58       1.0  0.86510  0.90340  0.17557  1.0000
  H   H59       1.0  0.03830  0.13490  0.50890  1.0000
  H   H60       1.0  0.09660  0.96170  0.84223  1.0000
  C   C61       1.0  0.99300  0.75900  0.95040  1.0000
  C   C62       1.0  0.23400  0.99300  0.78373  1.0000
  C   C63       1.0  0.24100  0.23400  0.61707  1.0000
  C   C64       1.0  0.00700  0.24100  0.45040  1.0000
  C   C65       1.0  0.76600  0.00700  0.28373  1.0000
  C   C66       1.0  0.75900  0.76600  0.11707  1.0000
  C   C67       1.0  0.23400  0.24100  0.04960  1.0000
  C   C68       1.0  0.00700  0.76600  0.38293  1.0000
  C   C69       1.0  0.75900  0.99300  0.71627  1.0000
  C   C70       1.0  0.24100  0.00700  0.21627  1.0000
  C   C71       1.0  0.76600  0.75900  0.54960  1.0000
  C   C72       1.0  0.99300  0.23400  0.88293  1.0000
  H   H61       1.0  0.95910  0.75810  0.93710  1.0000
  H   H62       1.0  0.20100  0.95910  0.77043  1.0000
  H   H63       1.0  0.24190  0.20100  0.60377  1.0000
  H   H64       1.0  0.04090  0.24190  0.43710  1.0000
  H   H65       1.0  0.79900  0.04090  0.27043  1.0000
  H   H66       1.0  0.75810  0.79900  0.10377  1.0000
  H   H67       1.0  0.20100  0.24190  0.06290  1.0000
  H   H68       1.0  0.04090  0.79900  0.39623  1.0000
  H   H69       1.0  0.75810  0.95910  0.72957  1.0000
  H   H70       1.0  0.24190  0.04090  0.22957  1.0000
  H   H71       1.0  0.79900  0.75810  0.56290  1.0000
  H   H72       1.0  0.95910  0.20100  0.89623  1.0000
  C   C73       1.0  0.84600  0.56100  0.07680  1.0000
  C   C74       1.0  0.28500  0.84600  0.91013  1.0000
  C   C75       1.0  0.43900  0.28500  0.74347  1.0000
  C   C76       1.0  0.15400  0.43900  0.57680  1.0000
  C   C77       1.0  0.71500  0.15400  0.41013  1.0000
  C   C78       1.0  0.56100  0.71500  0.24347  1.0000
  C   C79       1.0  0.28500  0.43900  0.92320  1.0000
  C   C80       1.0  0.15400  0.71500  0.25653  1.0000
  C   C81       1.0  0.56100  0.84600  0.58987  1.0000
  C   C82       1.0  0.43900  0.15400  0.08987  1.0000
  C   C83       1.0  0.71500  0.56100  0.42320  1.0000
  C   C84       1.0  0.84600  0.28500  0.75653  1.0000
  H   H73       1.0  0.88860  0.59050  0.08970  1.0000
  H   H74       1.0  0.29810  0.88860  0.92303  1.0000
  H   H75       1.0  0.40950  0.29810  0.75637  1.0000
  H   H76       1.0  0.11140  0.40950  0.58970  1.0000
  H   H77       1.0  0.70190  0.11140  0.42303  1.0000
  H   H78       1.0  0.59050  0.70190  0.25637  1.0000
  H   H79       1.0  0.29810  0.40950  0.91030  1.0000
  H   H80       1.0  0.11140  0.70190  0.24363  1.0000
  H   H81       1.0  0.59050  0.88860  0.57697  1.0000
  H   H82       1.0  0.40950  0.11140  0.07697  1.0000
  H   H83       1.0  0.70190  0.59050  0.41030  1.0000
  H   H84       1.0  0.88860  0.29810  0.74363  1.0000
  C   C85       1.0  0.56100  0.10100  0.02540  1.0000
  C   C86       1.0  0.46000  0.56100  0.85873  1.0000
  C   C87       1.0  0.89900  0.46000  0.69207  1.0000
  C   C88       1.0  0.43900  0.89900  0.52540  1.0000
  C   C89       1.0  0.54000  0.43900  0.35873  1.0000
  C   C90       1.0  0.10100  0.54000  0.19207  1.0000
  C   C91       1.0  0.46000  0.89900  0.97460  1.0000
  C   C92       1.0  0.43900  0.54000  0.30793  1.0000
  C   C93       1.0  0.10100  0.56100  0.64127  1.0000
  C   C94       1.0  0.89900  0.43900  0.14127  1.0000
  C   C95       1.0  0.54000  0.10100  0.47460  1.0000
  C   C96       1.0  0.56100  0.46000  0.80793  1.0000
  H   H85       1.0  0.48210  0.05440  0.01990  1.0000
  H   H86       1.0  0.42770  0.48210  0.85323  1.0000
  H   H87       1.0  0.94560  0.42770  0.68657  1.0000
  H   H88       1.0  0.51790  0.94560  0.51990  1.0000
  H   H89       1.0  0.57230  0.51790  0.35323  1.0000
  H   H90       1.0  0.05440  0.57230  0.18657  1.0000
  H   H91       1.0  0.42770  0.94560  0.98010  1.0000
  H   H92       1.0  0.51790  0.57230  0.31343  1.0000
  H   H93       1.0  0.05440  0.48210  0.64677  1.0000
  H   H94       1.0  0.94560  0.51790  0.14677  1.0000
  H   H95       1.0  0.57230  0.05440  0.48010  1.0000
  H   H96       1.0  0.48210  0.42770  0.81343  1.0000
  C   C97       1.0  0.97700  0.10100  0.96860  1.0000
  C   C98       1.0  0.87600  0.97700  0.80193  1.0000
  C   C99       1.0  0.89900  0.87600  0.63527  1.0000
  C   C100      1.0  0.02300  0.89900  0.46860  1.0000
  C   C101      1.0  0.12400  0.02300  0.30193  1.0000
  C   C102      1.0  0.10100  0.12400  0.13527  1.0000
  C   C103      1.0  0.87600  0.89900  0.03140  1.0000
  C   C104      1.0  0.02300  0.12400  0.36473  1.0000
  C   C105      1.0  0.10100  0.97700  0.69807  1.0000
  C   C106      1.0  0.89900  0.02300  0.19807  1.0000
  C   C107      1.0  0.12400  0.10100  0.53140  1.0000
  C   C108      1.0  0.97700  0.87600  0.86473  1.0000
  H   H97       1.0  0.98700  0.04160  0.96160  1.0000
  H   H98       1.0  0.94540  0.98700  0.79493  1.0000
  H   H99       1.0  0.95840  0.94540  0.62827  1.0000
  H   H100      1.0  0.01300  0.95840  0.46160  1.0000
  H   H101      1.0  0.05460  0.01300  0.29493  1.0000
  H   H102      1.0  0.04160  0.05460  0.12827  1.0000
  H   H103      1.0  0.94540  0.95840  0.03840  1.0000
  H   H104      1.0  0.01300  0.05460  0.37173  1.0000
  H   H105      1.0  0.04160  0.98700  0.70507  1.0000
  H   H106      1.0  0.95840  0.01300  0.20507  1.0000
  H   H107      1.0  0.05460  0.04160  0.53840  1.0000
  H   H108      1.0  0.98700  0.94540  0.87173  1.0000
  C   C109      1.0  0.08500  0.85700  0.95690  1.0000
  C   C110      1.0  0.22800  0.08500  0.79023  1.0000
  C   C111      1.0  0.14300  0.22800  0.62357  1.0000
  C   C112      1.0  0.91500  0.14300  0.45690  1.0000
  C   C113      1.0  0.77200  0.91500  0.29023  1.0000
  C   C114      1.0  0.85700  0.77200  0.12357  1.0000
  C   C115      1.0  0.22800  0.14300  0.04310  1.0000
  C   C116      1.0  0.91500  0.77200  0.37643  1.0000
  C   C117      1.0  0.85700  0.08500  0.70977  1.0000
  C   C118      1.0  0.14300  0.91500  0.20977  1.0000
  C   C119      1.0  0.77200  0.85700  0.54310  1.0000
  C   C120      1.0  0.08500  0.22800  0.87643  1.0000
  H   H109      1.0  0.11920  0.92790  0.94850  1.0000
  H   H110      1.0  0.19130  0.11920  0.78183  1.0000
  H   H111      1.0  0.07210  0.19130  0.61517  1.0000
  H   H112      1.0  0.88080  0.07210  0.44850  1.0000
  H   H113      1.0  0.80870  0.88080  0.28183  1.0000
  H   H114      1.0  0.92790  0.80870  0.11517  1.0000
  H   H115      1.0  0.19130  0.07210  0.05150  1.0000
  H   H116      1.0  0.88080  0.80870  0.38483  1.0000
  H   H117      1.0  0.92790  0.11920  0.71817  1.0000
  H   H118      1.0  0.07210  0.88080  0.21817  1.0000
  H   H119      1.0  0.80870  0.92790  0.55150  1.0000
  H   H120      1.0  0.11920  0.19130  0.88483  1.0000
  C   C121      1.0  0.72900  0.54400  0.07470  1.0000
  C   C122      1.0  0.18500  0.72900  0.90803  1.0000
  C   C123      1.0  0.45600  0.18500  0.74137  1.0000
  C   C124      1.0  0.27100  0.45600  0.57470  1.0000
  C   C125      1.0  0.81500  0.27100  0.40803  1.0000
  C   C126      1.0  0.54400  0.81500  0.24137  1.0000
  C   C127      1.0  0.18500  0.45600  0.92530  1.0000
  C   C128      1.0  0.27100  0.81500  0.25863  1.0000
  C   C129      1.0  0.54400  0.72900  0.59197  1.0000
  C   C130      1.0  0.45600  0.27100  0.09197  1.0000
  C   C131      1.0  0.81500  0.54400  0.42530  1.0000
  C   C132      1.0  0.72900  0.18500  0.75863  1.0000
  H   H121      1.0  0.68790  0.55030  0.08670  1.0000
  H   H122      1.0  0.13760  0.68790  0.92003  1.0000
  H   H123      1.0  0.44970  0.13760  0.75337  1.0000
  H   H124      1.0  0.31210  0.44970  0.58670  1.0000
  H   H125      1.0  0.86240  0.31210  0.42003  1.0000
  H   H126      1.0  0.55030  0.86240  0.25337  1.0000
  H   H127      1.0  0.13760  0.44970  0.91330  1.0000
  H   H128      1.0  0.31210  0.86240  0.24663  1.0000
  H   H129      1.0  0.55030  0.68790  0.57997  1.0000
  H   H130      1.0  0.44970  0.31210  0.07997  1.0000
  H   H131      1.0  0.86240  0.55030  0.41330  1.0000
  H   H132      1.0  0.68790  0.13760  0.74663  1.0000
  C   C133      1.0  0.59200  0.06000  0.04390  1.0000
  C   C134      1.0  0.53200  0.59200  0.87723  1.0000
  C   C135      1.0  0.94000  0.53200  0.71057  1.0000
  C   C136      1.0  0.40800  0.94000  0.54390  1.0000
  C   C137      1.0  0.46800  0.40800  0.37723  1.0000
  C   C138      1.0  0.06000  0.46800  0.21057  1.0000
  C   C139      1.0  0.53200  0.94000  0.95610  1.0000
  C   C140      1.0  0.40800  0.46800  0.28943  1.0000
  C   C141      1.0  0.06000  0.59200  0.62277  1.0000
  C   C142      1.0  0.94000  0.40800  0.12277  1.0000
  C   C143      1.0  0.46800  0.06000  0.45610  1.0000
  C   C144      1.0  0.59200  0.53200  0.78943  1.0000
  H   H133      1.0  0.53520  0.99320  0.05180  1.0000
  H   H134      1.0  0.54200  0.53520  0.88513  1.0000
  H   H135      1.0  0.00680  0.54200  0.71847  1.0000
  H   H136      1.0  0.46480  0.00680  0.55180  1.0000
  H   H137      1.0  0.45800  0.46480  0.38513  1.0000
  H   H138      1.0  0.99320  0.45800  0.21847  1.0000
  H   H139      1.0  0.54200  0.00680  0.94820  1.0000
  H   H140      1.0  0.46480  0.45800  0.28153  1.0000
  H   H141      1.0  0.99320  0.53520  0.61487  1.0000
  H   H142      1.0  0.00680  0.46480  0.11487  1.0000
  H   H143      1.0  0.45800  0.99320  0.44820  1.0000
  H   H144      1.0  0.53520  0.54200  0.78153  1.0000
  C   C145      1.0  0.90200  0.13500  0.96100  1.0000
  C   C146      1.0  0.76700  0.90200  0.79433  1.0000
  C   C147      1.0  0.86500  0.76700  0.62767  1.0000
  C   C148      1.0  0.09800  0.86500  0.46100  1.0000
  C   C149      1.0  0.23300  0.09800  0.29433  1.0000
  C   C150      1.0  0.13500  0.23300  0.12767  1.0000
  C   C151      1.0  0.76700  0.86500  0.03900  1.0000
  C   C152      1.0  0.09800  0.23300  0.37233  1.0000
  C   C153      1.0  0.13500  0.90200  0.70567  1.0000
  C   C154      1.0  0.86500  0.09800  0.20567  1.0000
  C   C155      1.0  0.23300  0.13500  0.53900  1.0000
  C   C156      1.0  0.90200  0.76700  0.87233  1.0000
  H   H145      1.0  0.85380  0.09680  0.94900  1.0000
  H   H146      1.0  0.75700  0.85380  0.78233  1.0000
  H   H147      1.0  0.90320  0.75700  0.61567  1.0000
  H   H148      1.0  0.14620  0.90320  0.44900  1.0000
  H   H149      1.0  0.24300  0.14620  0.28233  1.0000
  H   H150      1.0  0.09680  0.24300  0.11567  1.0000
  H   H151      1.0  0.75700  0.90320  0.05100  1.0000
  H   H152      1.0  0.14620  0.24300  0.38433  1.0000
  H   H153      1.0  0.09680  0.85380  0.71767  1.0000
  H   H154      1.0  0.90320  0.14620  0.21767  1.0000
  H   H155      1.0  0.24300  0.09680  0.55100  1.0000
  H   H156      1.0  0.85380  0.75700  0.88433  1.0000
  C   C157      1.0  0.13000  0.85500  0.97640  1.0000
  C   C158      1.0  0.27500  0.13000  0.80973  1.0000
  C   C159      1.0  0.14500  0.27500  0.64307  1.0000
  C   C160      1.0  0.87000  0.14500  0.47640  1.0000
  C   C161      1.0  0.72500  0.87000  0.30973  1.0000
  C   C162      1.0  0.85500  0.72500  0.14307  1.0000
  C   C163      1.0  0.27500  0.14500  0.02360  1.0000
  C   C164      1.0  0.87000  0.72500  0.35693  1.0000
  C   C165      1.0  0.85500  0.13000  0.69027  1.0000
  C   C166      1.0  0.14500  0.87000  0.19027  1.0000
  C   C167      1.0  0.72500  0.85500  0.52360  1.0000
  C   C168      1.0  0.13000  0.27500  0.85693  1.0000
  H   H157      1.0  0.19610  0.92740  0.98160  1.0000
  H   H158      1.0  0.26870  0.19610  0.81493  1.0000
  H   H159      1.0  0.07260  0.26870  0.64827  1.0000
  H   H160      1.0  0.80390  0.07260  0.48160  1.0000
  H   H161      1.0  0.73130  0.80390  0.31493  1.0000
  H   H162      1.0  0.92740  0.73130  0.14827  1.0000
  H   H163      1.0  0.26870  0.07260  0.01840  1.0000
  H   H164      1.0  0.80390  0.73130  0.35173  1.0000
  H   H165      1.0  0.92740  0.19610  0.68507  1.0000
  H   H166      1.0  0.07260  0.80390  0.18507  1.0000
  H   H167      1.0  0.73130  0.92740  0.51840  1.0000
  H   H168      1.0  0.19610  0.26870  0.85173  1.0000
  C   C169      1.0  0.67500  0.51800  0.05480  1.0000
  C   C170      1.0  0.15700  0.67500  0.88813  1.0000
  C   C171      1.0  0.48200  0.15700  0.72147  1.0000
  C   C172      1.0  0.32500  0.48200  0.55480  1.0000
  C   C173      1.0  0.84300  0.32500  0.38813  1.0000
  C   C174      1.0  0.51800  0.84300  0.22147  1.0000
  C   C175      1.0  0.15700  0.48200  0.94520  1.0000
  C   C176      1.0  0.32500  0.84300  0.27853  1.0000
  C   C177      1.0  0.51800  0.67500  0.61187  1.0000
  C   C178      1.0  0.48200  0.32500  0.11187  1.0000
  C   C179      1.0  0.84300  0.51800  0.44520  1.0000
  C   C180      1.0  0.67500  0.15700  0.77853  1.0000
  H   H169      1.0  0.59780  0.50900  0.05280  1.0000
  H   H170      1.0  0.08880  0.59780  0.88613  1.0000
  H   H171      1.0  0.49100  0.08880  0.71947  1.0000
  H   H172      1.0  0.40220  0.49100  0.55280  1.0000
  H   H173      1.0  0.91120  0.40220  0.38613  1.0000
  H   H174      1.0  0.50900  0.91120  0.21947  1.0000
  H   H175      1.0  0.08880  0.49100  0.94720  1.0000
  H   H176      1.0  0.40220  0.91120  0.28053  1.0000
  H   H177      1.0  0.50900  0.59780  0.61387  1.0000
  H   H178      1.0  0.49100  0.40220  0.11387  1.0000
  H   H179      1.0  0.91120  0.50900  0.44720  1.0000
  H   H180      1.0  0.59780  0.08880  0.78053  1.0000
  C   C181      1.0  0.70800  0.12400  0.04950  1.0000
  C   C182      1.0  0.58400  0.70800  0.88283  1.0000
  C   C183      1.0  0.87600  0.58400  0.71617  1.0000
  C   C184      1.0  0.29200  0.87600  0.54950  1.0000
  C   C185      1.0  0.41600  0.29200  0.38283  1.0000
  C   C186      1.0  0.12400  0.41600  0.21617  1.0000
  C   C187      1.0  0.58400  0.87600  0.95050  1.0000
  C   C188      1.0  0.29200  0.41600  0.28383  1.0000
  C   C189      1.0  0.12400  0.70800  0.61717  1.0000
  C   C190      1.0  0.87600  0.29200  0.11717  1.0000
  C   C191      1.0  0.41600  0.12400  0.45050  1.0000
  C   C192      1.0  0.70800  0.58400  0.78383  1.0000
  H   H181      1.0  0.73370  0.10160  0.06190  1.0000
  H   H182      1.0  0.63210  0.73370  0.89523  1.0000
  H   H183      1.0  0.89840  0.63210  0.72857  1.0000
  H   H184      1.0  0.26630  0.89840  0.56190  1.0000
  H   H185      1.0  0.36790  0.26630  0.39523  1.0000
  H   H186      1.0  0.10160  0.36790  0.22857  1.0000
  H   H187      1.0  0.63210  0.89840  0.93810  1.0000
  H   H188      1.0  0.26630  0.36790  0.27143  1.0000
  H   H189      1.0  0.10160  0.73370  0.60477  1.0000
  H   H190      1.0  0.89840  0.26630  0.10477  1.0000
  H   H191      1.0  0.36790  0.10160  0.43810  1.0000
  H   H192      1.0  0.73370  0.63210  0.77143  1.0000
  C   C193      1.0  0.89750  0.23010  0.97160  1.0000
  C   C194      1.0  0.66740  0.89750  0.80493  1.0000
  C   C195      1.0  0.76990  0.66740  0.63827  1.0000
  C   C196      1.0  0.10250  0.76990  0.47160  1.0000
  C   C197      1.0  0.33260  0.10250  0.30493  1.0000
  C   C198      1.0  0.23010  0.33260  0.13827  1.0000
  C   C199      1.0  0.66740  0.76990  0.02840  1.0000
  C   C200      1.0  0.10250  0.33260  0.36173  1.0000
  C   C201      1.0  0.23010  0.89750  0.69507  1.0000
  C   C202      1.0  0.76990  0.10250  0.19507  1.0000
  C   C203      1.0  0.33260  0.23010  0.52840  1.0000
  C   C204      1.0  0.89750  0.66740  0.86173  1.0000
  C   C205      1.0  0.08900  0.76180  0.98820  1.0000
  C   C206      1.0  0.32720  0.08900  0.82153  1.0000
  C   C207      1.0  0.23820  0.32720  0.65487  1.0000
  C   C208      1.0  0.91100  0.23820  0.48820  1.0000
  C   C209      1.0  0.67280  0.91100  0.32153  1.0000
  C   C210      1.0  0.76180  0.67280  0.15487  1.0000
  C   C211      1.0  0.32720  0.23820  0.01180  1.0000
  C   C212      1.0  0.91100  0.67280  0.34513  1.0000
  C   C213      1.0  0.76180  0.08900  0.67847  1.0000
  C   C214      1.0  0.23820  0.91100  0.17847  1.0000
  C   C215      1.0  0.67280  0.76180  0.51180  1.0000
  C   C216      1.0  0.08900  0.32720  0.84513  1.0000
  C   C217      1.0  0.73710  0.50740  0.03850  1.0000
  C   C218      1.0  0.22970  0.73710  0.87183  1.0000
  C   C219      1.0  0.49260  0.22970  0.70517  1.0000
  C   C220      1.0  0.26290  0.49260  0.53850  1.0000
  C   C221      1.0  0.77030  0.26290  0.37183  1.0000
  C   C222      1.0  0.50740  0.77030  0.20517  1.0000
  C   C223      1.0  0.22970  0.49260  0.96150  1.0000
  C   C224      1.0  0.26290  0.77030  0.29483  1.0000
  C   C225      1.0  0.50740  0.73710  0.62817  1.0000
  C   C226      1.0  0.49260  0.26290  0.12817  1.0000
  C   C227      1.0  0.77030  0.50740  0.46150  1.0000
  C   C228      1.0  0.73710  0.22970  0.79483  1.0000
  C   C229      1.0  0.78900  0.21900  0.03780  1.0000
  C   C230      1.0  0.57000  0.78900  0.87113  1.0000
  C   C231      1.0  0.78100  0.57000  0.70447  1.0000
  C   C232      1.0  0.21100  0.78100  0.53780  1.0000
  C   C233      1.0  0.43000  0.21100  0.37113  1.0000
  C   C234      1.0  0.21900  0.43000  0.20447  1.0000
  C   C235      1.0  0.57000  0.78100  0.96220  1.0000
  C   C236      1.0  0.21100  0.43000  0.29553  1.0000
  C   C237      1.0  0.21900  0.78900  0.62887  1.0000
  C   C238      1.0  0.78100  0.21100  0.12887  1.0000
  C   C239      1.0  0.43000  0.21900  0.46220  1.0000
  C   C240      1.0  0.78900  0.57000  0.79553  1.0000
  C   C241      1.0  0.82800  0.28500  0.96360  1.0000
  C   C242      1.0  0.54300  0.82800  0.79693  1.0000
  C   C243      1.0  0.71500  0.54300  0.63027  1.0000
  C   C244      1.0  0.17200  0.71500  0.46360  1.0000
  C   C245      1.0  0.45700  0.17200  0.29693  1.0000
  C   C246      1.0  0.28500  0.45700  0.13027  1.0000
  C   C247      1.0  0.54300  0.71500  0.03640  1.0000
  C   C248      1.0  0.17200  0.45700  0.36973  1.0000
  C   C249      1.0  0.28500  0.82800  0.70307  1.0000
  C   C250      1.0  0.71500  0.17200  0.20307  1.0000
  C   C251      1.0  0.45700  0.28500  0.53640  1.0000
  C   C252      1.0  0.82800  0.54300  0.86973  1.0000
  C   C253      1.0  0.13240  0.74730  0.01060  1.0000
  C   C254      1.0  0.38510  0.13240  0.84393  1.0000
  C   C255      1.0  0.25270  0.38510  0.67727  1.0000
  C   C256      1.0  0.86760  0.25270  0.51060  1.0000
  C   C257      1.0  0.61490  0.86760  0.34393  1.0000
  C   C258      1.0  0.74730  0.61490  0.17727  1.0000
  C   C259      1.0  0.38510  0.25270  0.98940  1.0000
  C   C260      1.0  0.86760  0.61490  0.32273  1.0000
  C   C261      1.0  0.74730  0.13240  0.65607  1.0000
  C   C262      1.0  0.25270  0.86760  0.15607  1.0000
  C   C263      1.0  0.61490  0.74730  0.48940  1.0000
  C   C264      1.0  0.13240  0.38510  0.82273  1.0000
  C   C265      1.0  0.68550  0.48090  0.01660  1.0000
  C   C266      1.0  0.20460  0.68550  0.84993  1.0000
  C   C267      1.0  0.51910  0.20460  0.68327  1.0000
  C   C268      1.0  0.31450  0.51910  0.51660  1.0000
  C   C269      1.0  0.79540  0.31450  0.34993  1.0000
  C   C270      1.0  0.48090  0.79540  0.18327  1.0000
  C   C271      1.0  0.20460  0.51910  0.98340  1.0000
  C   C272      1.0  0.31450  0.79540  0.31673  1.0000
  C   C273      1.0  0.48090  0.68550  0.65007  1.0000
  C   C274      1.0  0.51910  0.31450  0.15007  1.0000
  C   C275      1.0  0.79540  0.48090  0.48340  1.0000
  C   C276      1.0  0.68550  0.20460  0.81673  1.0000
  C   C277      1.0  0.92250  0.29440  0.04480  1.0000
  C   C278      1.0  0.62810  0.92250  0.87813  1.0000
  C   C279      1.0  0.70560  0.62810  0.71147  1.0000
  C   C280      1.0  0.07750  0.70560  0.54480  1.0000
  C   C281      1.0  0.37190  0.07750  0.37813  1.0000
  C   C282      1.0  0.29440  0.37190  0.21147  1.0000
  C   C283      1.0  0.62810  0.70560  0.95520  1.0000
  C   C284      1.0  0.07750  0.37190  0.28853  1.0000
  C   C285      1.0  0.29440  0.92250  0.62187  1.0000
  C   C286      1.0  0.70560  0.07750  0.12187  1.0000
  C   C287      1.0  0.37190  0.29440  0.45520  1.0000
  C   C288      1.0  0.92250  0.62810  0.78853  1.0000
