data_image0
_chemical_formula_structural       U8C24H16C16H16C8O24H16O48H8O8
_chemical_formula_sum              "U8 C48 H56 O80"
_cell_length_a       15.1299
_cell_length_b       16.553
_cell_length_c       18.1704
_cell_angle_alpha    90
_cell_angle_beta     90
_cell_angle_gamma    90

_space_group_name_H-M_alt    "P 1"
_space_group_IT_number       1

loop_
  _space_group_symop_operation_xyz
  'x, y, z'

loop_
  _atom_site_type_symbol
  _atom_site_label
  _atom_site_symmetry_multiplicity
  _atom_site_fract_x
  _atom_site_fract_y
  _atom_site_fract_z
  _atom_site_occupancy
  U   U1        1.0  0.57531  0.90513  0.09698  1.0000
  U   U2        1.0  0.42469  0.09487  0.09698  1.0000
  U   U3        1.0  0.07531  0.59487  0.09698  1.0000
  U   U4        1.0  0.92469  0.40513  0.09698  1.0000
  U   U5        1.0  0.07531  0.40513  0.59698  1.0000
  U   U6        1.0  0.92469  0.59487  0.59698  1.0000
  U   U7        1.0  0.57531  0.09487  0.59698  1.0000
  U   U8        1.0  0.42469  0.90513  0.59698  1.0000
  C   C1        1.0  0.39000  0.81030  0.07150  1.0000
  C   C2        1.0  0.61000  0.18970  0.07150  1.0000
  C   C3        1.0  0.89000  0.68970  0.07150  1.0000
  C   C4        1.0  0.11000  0.31030  0.07150  1.0000
  C   C5        1.0  0.89000  0.31030  0.57150  1.0000
  C   C6        1.0  0.11000  0.68970  0.57150  1.0000
  C   C7        1.0  0.39000  0.18970  0.57150  1.0000
  C   C8        1.0  0.61000  0.81030  0.57150  1.0000
  C   C9        1.0  0.35720  0.89900  0.06980  1.0000
  C   C10       1.0  0.64280  0.10100  0.06980  1.0000
  C   C11       1.0  0.85720  0.60100  0.06980  1.0000
  C   C12       1.0  0.14280  0.39900  0.06980  1.0000
  C   C13       1.0  0.85720  0.39900  0.56980  1.0000
  C   C14       1.0  0.14280  0.60100  0.56980  1.0000
  C   C15       1.0  0.35720  0.10100  0.56980  1.0000
  C   C16       1.0  0.64280  0.89900  0.56980  1.0000
  C   C17       1.0  0.29700  0.90850  0.13870  1.0000
  C   C18       1.0  0.70300  0.09150  0.13870  1.0000
  C   C19       1.0  0.79700  0.59150  0.13870  1.0000
  C   C20       1.0  0.20300  0.40850  0.13870  1.0000
  C   C21       1.0  0.79700  0.40850  0.63870  1.0000
  C   C22       1.0  0.20300  0.59150  0.63870  1.0000
  C   C23       1.0  0.29700  0.09150  0.63870  1.0000
  C   C24       1.0  0.70300  0.90850  0.63870  1.0000
  H   H1        1.0  0.25790  0.86230  0.14220  1.0000
  H   H2        1.0  0.74210  0.13770  0.14220  1.0000
  H   H3        1.0  0.75790  0.63770  0.14220  1.0000
  H   H4        1.0  0.24210  0.36230  0.14220  1.0000
  H   H5        1.0  0.75790  0.36230  0.64220  1.0000
  H   H6        1.0  0.24210  0.63770  0.64220  1.0000
  H   H7        1.0  0.25790  0.13770  0.64220  1.0000
  H   H8        1.0  0.74210  0.86230  0.64220  1.0000
  H   H9        1.0  0.33350  0.90960  0.18260  1.0000
  H   H10       1.0  0.66650  0.09040  0.18260  1.0000
  H   H11       1.0  0.83350  0.59040  0.18260  1.0000
  H   H12       1.0  0.16650  0.40960  0.18260  1.0000
  H   H13       1.0  0.83350  0.40960  0.68260  1.0000
  H   H14       1.0  0.16650  0.59040  0.68260  1.0000
  H   H15       1.0  0.33350  0.09040  0.68260  1.0000
  H   H16       1.0  0.66650  0.90960  0.68260  1.0000
  C   C25       1.0  0.24120  0.98670  0.13510  1.0000
  C   C26       1.0  0.75880  0.01330  0.13510  1.0000
  C   C27       1.0  0.74120  0.51330  0.13510  1.0000
  C   C28       1.0  0.25880  0.48670  0.13510  1.0000
  C   C29       1.0  0.74120  0.48670  0.63510  1.0000
  C   C30       1.0  0.25880  0.51330  0.63510  1.0000
  C   C31       1.0  0.24120  0.01330  0.63510  1.0000
  C   C32       1.0  0.75880  0.98670  0.63510  1.0000
  C   C33       1.0  0.30640  0.91360  0.99700  1.0000
  C   C34       1.0  0.69360  0.08640  0.99700  1.0000
  C   C35       1.0  0.80640  0.58640  0.99700  1.0000
  C   C36       1.0  0.19360  0.41360  0.99700  1.0000
  C   C37       1.0  0.80640  0.41360  0.49700  1.0000
  C   C38       1.0  0.19360  0.58640  0.49700  1.0000
  C   C39       1.0  0.30640  0.08640  0.49700  1.0000
  C   C40       1.0  0.69360  0.91360  0.49700  1.0000
  H   H17       1.0  0.26510  0.86960  0.98940  1.0000
  H   H18       1.0  0.73490  0.13040  0.98940  1.0000
  H   H19       1.0  0.76510  0.63040  0.98940  1.0000
  H   H20       1.0  0.23490  0.36960  0.98940  1.0000
  H   H21       1.0  0.76510  0.36960  0.48940  1.0000
  H   H22       1.0  0.23490  0.63040  0.48940  1.0000
  H   H23       1.0  0.26510  0.13040  0.48940  1.0000
  H   H24       1.0  0.73490  0.86960  0.48940  1.0000
  H   H25       1.0  0.27240  0.96310  0.00130  1.0000
  H   H26       1.0  0.72760  0.03690  0.00130  1.0000
  H   H27       1.0  0.77240  0.53690  0.00130  1.0000
  H   H28       1.0  0.22760  0.46310  0.00130  1.0000
  H   H29       1.0  0.77240  0.46310  0.50130  1.0000
  H   H30       1.0  0.22760  0.53690  0.50130  1.0000
  H   H31       1.0  0.27240  0.03690  0.50130  1.0000
  H   H32       1.0  0.72760  0.96310  0.50130  1.0000
  C   C41       1.0  0.36600  0.91990  0.93080  1.0000
  C   C42       1.0  0.63400  0.08010  0.93080  1.0000
  C   C43       1.0  0.86600  0.58010  0.93080  1.0000
  C   C44       1.0  0.13400  0.41990  0.93080  1.0000
  C   C45       1.0  0.86600  0.41990  0.43080  1.0000
  C   C46       1.0  0.13400  0.58010  0.43080  1.0000
  C   C47       1.0  0.36600  0.08010  0.43080  1.0000
  C   C48       1.0  0.63400  0.91990  0.43080  1.0000
  O   O1        1.0  0.60010  0.89600  0.00090  1.0000
  O   O2        1.0  0.39990  0.10400  0.00090  1.0000
  O   O3        1.0  0.10010  0.60400  0.00090  1.0000
  O   O4        1.0  0.89990  0.39600  0.00090  1.0000
  O   O5        1.0  0.10010  0.39600  0.50090  1.0000
  O   O6        1.0  0.89990  0.60400  0.50090  1.0000
  O   O7        1.0  0.60010  0.10400  0.50090  1.0000
  O   O8        1.0  0.39990  0.89600  0.50090  1.0000
  O   O9        1.0  0.55600  0.91200  0.19130  1.0000
  O   O10       1.0  0.44400  0.08800  0.19130  1.0000
  O   O11       1.0  0.05600  0.58800  0.19130  1.0000
  O   O12       1.0  0.94400  0.41200  0.19130  1.0000
  O   O13       1.0  0.05600  0.41200  0.69130  1.0000
  O   O14       1.0  0.94400  0.58800  0.69130  1.0000
  O   O15       1.0  0.55600  0.08800  0.69130  1.0000
  O   O16       1.0  0.44400  0.91200  0.69130  1.0000
  O   O17       1.0  0.66320  0.78330  0.11400  1.0000
  O   O18       1.0  0.33680  0.21670  0.11400  1.0000
  O   O19       1.0  0.16320  0.71670  0.11400  1.0000
  O   O20       1.0  0.83680  0.28330  0.11400  1.0000
  O   O21       1.0  0.16320  0.28330  0.61400  1.0000
  O   O22       1.0  0.83680  0.71670  0.61400  1.0000
  O   O23       1.0  0.66320  0.21670  0.61400  1.0000
  O   O24       1.0  0.33680  0.78330  0.61400  1.0000
  H   H33       1.0  0.72060  0.79660  0.11890  1.0000
  H   H34       1.0  0.27940  0.20340  0.11890  1.0000
  H   H35       1.0  0.22060  0.70340  0.11890  1.0000
  H   H36       1.0  0.77940  0.29660  0.11890  1.0000
  H   H37       1.0  0.22060  0.29660  0.61890  1.0000
  H   H38       1.0  0.77940  0.70340  0.61890  1.0000
  H   H39       1.0  0.72060  0.20340  0.61890  1.0000
  H   H40       1.0  0.27940  0.79660  0.61890  1.0000
  H   H41       1.0  0.65650  0.75070  0.07480  1.0000
  H   H42       1.0  0.34350  0.24930  0.07480  1.0000
  H   H43       1.0  0.15650  0.74930  0.07480  1.0000
  H   H44       1.0  0.84350  0.25070  0.07480  1.0000
  H   H45       1.0  0.15650  0.25070  0.57480  1.0000
  H   H46       1.0  0.84350  0.74930  0.57480  1.0000
  H   H47       1.0  0.65650  0.24930  0.57480  1.0000
  H   H48       1.0  0.34350  0.75070  0.57480  1.0000
  O   O25       1.0  0.42980  0.95330  0.07750  1.0000
  O   O26       1.0  0.57020  0.04670  0.07750  1.0000
  O   O27       1.0  0.92980  0.54670  0.07750  1.0000
  O   O28       1.0  0.07020  0.45330  0.07750  1.0000
  O   O29       1.0  0.92980  0.45330  0.57750  1.0000
  O   O30       1.0  0.07020  0.54670  0.57750  1.0000
  O   O31       1.0  0.42980  0.04670  0.57750  1.0000
  O   O32       1.0  0.57020  0.95330  0.57750  1.0000
  O   O33       1.0  0.47180  0.80140  0.08600  1.0000
  O   O34       1.0  0.52820  0.19860  0.08600  1.0000
  O   O35       1.0  0.97180  0.69860  0.08600  1.0000
  O   O36       1.0  0.02820  0.30140  0.08600  1.0000
  O   O37       1.0  0.97180  0.30140  0.58600  1.0000
  O   O38       1.0  0.02820  0.69860  0.58600  1.0000
  O   O39       1.0  0.47180  0.19860  0.58600  1.0000
  O   O40       1.0  0.52820  0.80140  0.58600  1.0000
  O   O41       1.0  0.33650  0.75530  0.06310  1.0000
  O   O42       1.0  0.66350  0.24470  0.06310  1.0000
  O   O43       1.0  0.83650  0.74470  0.06310  1.0000
  O   O44       1.0  0.16350  0.25530  0.06310  1.0000
  O   O45       1.0  0.83650  0.25530  0.56310  1.0000
  O   O46       1.0  0.16350  0.74470  0.56310  1.0000
  O   O47       1.0  0.33650  0.24470  0.56310  1.0000
  O   O48       1.0  0.66350  0.75530  0.56310  1.0000
  O   O49       1.0  0.16190  0.98330  0.14720  1.0000
  O   O50       1.0  0.83810  0.01670  0.14720  1.0000
  O   O51       1.0  0.66190  0.51670  0.14720  1.0000
  O   O52       1.0  0.33810  0.48330  0.14720  1.0000
  O   O53       1.0  0.66190  0.48330  0.64720  1.0000
  O   O54       1.0  0.33810  0.51670  0.64720  1.0000
  O   O55       1.0  0.16190  0.01670  0.64720  1.0000
  O   O56       1.0  0.83810  0.98330  0.64720  1.0000
  O   O57       1.0  0.28040  0.05210  0.11890  1.0000
  O   O58       1.0  0.71960  0.94790  0.11890  1.0000
  O   O59       1.0  0.78040  0.44790  0.11890  1.0000
  O   O60       1.0  0.21960  0.55210  0.11890  1.0000
  O   O61       1.0  0.78040  0.55210  0.61890  1.0000
  O   O62       1.0  0.21960  0.44790  0.61890  1.0000
  O   O63       1.0  0.28040  0.94790  0.61890  1.0000
  O   O64       1.0  0.71960  0.05210  0.61890  1.0000
  O   O65       1.0  0.42490  0.86250  0.92620  1.0000
  O   O66       1.0  0.57510  0.13750  0.92620  1.0000
  O   O67       1.0  0.92490  0.63750  0.92620  1.0000
  O   O68       1.0  0.07510  0.36250  0.92620  1.0000
  O   O69       1.0  0.92490  0.36250  0.42620  1.0000
  O   O70       1.0  0.07510  0.63750  0.42620  1.0000
  O   O71       1.0  0.42490  0.13750  0.42620  1.0000
  O   O72       1.0  0.57510  0.86250  0.42620  1.0000
  H   H49       1.0  0.40920  0.82390  0.95130  1.0000
  H   H50       1.0  0.59080  0.17610  0.95130  1.0000
  H   H51       1.0  0.90920  0.67610  0.95130  1.0000
  H   H52       1.0  0.09080  0.32390  0.95130  1.0000
  H   H53       1.0  0.90920  0.32390  0.45130  1.0000
  H   H54       1.0  0.09080  0.67610  0.45130  1.0000
  H   H55       1.0  0.40920  0.17610  0.45130  1.0000
  H   H56       1.0  0.59080  0.82390  0.45130  1.0000
  O   O73       1.0  0.35750  0.97250  0.88480  1.0000
  O   O74       1.0  0.64250  0.02750  0.88480  1.0000
  O   O75       1.0  0.85750  0.52750  0.88480  1.0000
  O   O76       1.0  0.14250  0.47250  0.88480  1.0000
  O   O77       1.0  0.85750  0.47250  0.38480  1.0000
  O   O78       1.0  0.14250  0.52750  0.38480  1.0000
  O   O79       1.0  0.35750  0.02750  0.38480  1.0000
  O   O80       1.0  0.64250  0.97250  0.38480  1.0000
