data_image0
_chemical_formula_structural       U4P4O28C2H4C4H4C2
_chemical_formula_sum              "U4 P4 O28 C8 H8"
_cell_length_a       7.0758
_cell_length_b       10.8016
_cell_length_c       14.871
_cell_angle_alpha    82.893
_cell_angle_beta     87.135
_cell_angle_gamma    85.813

_space_group_name_H-M_alt    "P 1"
_space_group_IT_number       1

loop_
  _space_group_symop_operation_xyz
  'x, y, z'

loop_
  _atom_site_type_symbol
  _atom_site_label
  _atom_site_symmetry_multiplicity
  _atom_site_fract_x
  _atom_site_fract_y
  _atom_site_fract_z
  _atom_site_occupancy
  U   U1        1.0  0.26440  0.02765  0.33841  1.0000
  U   U2        1.0  0.73560  0.97235  0.66159  1.0000
  U   U3        1.0  0.74334  0.39009  0.14511  1.0000
  U   U4        1.0  0.25666  0.60991  0.85489  1.0000
  P   P1        1.0  0.75830  0.11410  0.31290  1.0000
  P   P2        1.0  0.24170  0.88590  0.68710  1.0000
  P   P3        1.0  0.25420  0.28180  0.14630  1.0000
  P   P4        1.0  0.74580  0.71820  0.85370  1.0000
  O   O1        1.0  0.29140  0.89570  0.27980  1.0000
  O   O2        1.0  0.70860  0.10430  0.72020  1.0000
  O   O3        1.0  0.23960  0.16060  0.39640  1.0000
  O   O4        1.0  0.76040  0.83940  0.60360  1.0000
  O   O5        1.0  0.26610  0.15080  0.20290  1.0000
  O   O6        1.0  0.73390  0.84920  0.79710  1.0000
  O   O7        1.0  0.94290  0.03280  0.32370  1.0000
  O   O8        1.0  0.05710  0.96720  0.67630  1.0000
  O   O9        1.0  0.88840  0.11280  0.53380  1.0000
  O   O10       1.0  0.11160  0.88720  0.46620  1.0000
  O   O11       1.0  0.58100  0.11470  0.53380  1.0000
  O   O12       1.0  0.41900  0.88530  0.46620  1.0000
  O   O13       1.0  0.71910  0.46240  0.24690  1.0000
  O   O14       1.0  0.28090  0.53760  0.75310  1.0000
  O   O15       1.0  0.76720  0.31200  0.04350  1.0000
  O   O16       1.0  0.23280  0.68800  0.95650  1.0000
  O   O17       1.0  0.75490  0.19520  0.22180  1.0000
  O   O18       1.0  0.24510  0.80480  0.77820  1.0000
  O   O19       1.0  0.42410  0.35820  0.16040  1.0000
  O   O20       1.0  0.57590  0.64180  0.83960  1.0000
  O   O21       1.0  0.06900  0.35820  0.16390  1.0000
  O   O22       1.0  0.93100  0.64180  0.83610  1.0000
  O   O23       1.0  0.41420  0.42000  0.93770  1.0000
  O   O24       1.0  0.58580  0.58000  0.06230  1.0000
  O   O25       1.0  0.10760  0.41950  0.93060  1.0000
  O   O26       1.0  0.89240  0.58050  0.06940  1.0000
  O   O27       1.0  0.58900  0.03420  0.32720  1.0000
  O   O28       1.0  0.41100  0.96580  0.67280  1.0000
  C   C1        1.0  0.26160  0.25180  0.02950  1.0000
  C   C2        1.0  0.73840  0.74820  0.97050  1.0000
  H   H1        1.0  0.37590  0.20000  0.01800  1.0000
  H   H2        1.0  0.62410  0.80000  0.98200  1.0000
  H   H3        1.0  0.15420  0.20450  0.02040  1.0000
  H   H4        1.0  0.84580  0.79550  0.97960  1.0000
  C   C3        1.0  0.25800  0.36930  0.95980  1.0000
  C   C4        1.0  0.74200  0.63070  0.04020  1.0000
  C   C5        1.0  0.74100  0.21810  0.40260  1.0000
  C   C6        1.0  0.25900  0.78190  0.59740  1.0000
  H   H5        1.0  0.84870  0.26960  0.39600  1.0000
  H   H6        1.0  0.15130  0.73040  0.60400  1.0000
  H   H7        1.0  0.62670  0.27330  0.39550  1.0000
  H   H8        1.0  0.37330  0.72670  0.60450  1.0000
  C   C7        1.0  0.73610  0.14660  0.49520  1.0000
  C   C8        1.0  0.26390  0.85340  0.50480  1.0000
