data_image0
_chemical_formula_structural       Bi8Cl8O56C24H16C16H16C8
_chemical_formula_sum              "Bi8 Cl8 O56 C48 H32"
_cell_length_a       17.3879
_cell_length_b       8.3464
_cell_length_c       17.7306
_cell_angle_alpha    90
_cell_angle_beta     99.9194
_cell_angle_gamma    90

_space_group_name_H-M_alt    "P 1"
_space_group_IT_number       1

loop_
  _space_group_symop_operation_xyz
  'x, y, z'

loop_
  _atom_site_type_symbol
  _atom_site_label
  _atom_site_symmetry_multiplicity
  _atom_site_fract_x
  _atom_site_fract_y
  _atom_site_fract_z
  _atom_site_occupancy
  Bi  Bi1       1.0  0.74129  0.13523  0.65635  1.0000
  Bi  Bi2       1.0  0.25871  0.13523  0.84365  1.0000
  Bi  Bi3       1.0  0.24129  0.63523  0.65635  1.0000
  Bi  Bi4       1.0  0.75871  0.63523  0.84365  1.0000
  Bi  Bi5       1.0  0.25871  0.86477  0.34365  1.0000
  Bi  Bi6       1.0  0.74129  0.86477  0.15635  1.0000
  Bi  Bi7       1.0  0.75871  0.36477  0.34365  1.0000
  Bi  Bi8       1.0  0.24129  0.36477  0.15635  1.0000
  Cl  Cl1       1.0  0.81872  0.32940  0.78591  1.0000
  Cl  Cl2       1.0  0.18128  0.32940  0.71409  1.0000
  Cl  Cl3       1.0  0.31872  0.82940  0.78591  1.0000
  Cl  Cl4       1.0  0.68128  0.82940  0.71409  1.0000
  Cl  Cl5       1.0  0.18128  0.67060  0.21409  1.0000
  Cl  Cl6       1.0  0.81872  0.67060  0.28591  1.0000
  Cl  Cl7       1.0  0.68128  0.17060  0.21409  1.0000
  Cl  Cl8       1.0  0.31872  0.17060  0.28591  1.0000
  O   O1        1.0  0.63200  0.10260  0.57120  1.0000
  O   O2        1.0  0.36800  0.10260  0.92880  1.0000
  O   O3        1.0  0.13200  0.60260  0.57120  1.0000
  O   O4        1.0  0.86800  0.60260  0.92880  1.0000
  O   O5        1.0  0.36800  0.89740  0.42880  1.0000
  O   O6        1.0  0.63200  0.89740  0.07120  1.0000
  O   O7        1.0  0.86800  0.39740  0.42880  1.0000
  O   O8        1.0  0.13200  0.39740  0.07120  1.0000
  O   O9        1.0  0.52540  0.23470  0.51660  1.0000
  O   O10       1.0  0.47460  0.23470  0.98340  1.0000
  O   O11       1.0  0.02540  0.73470  0.51660  1.0000
  O   O12       1.0  0.97460  0.73470  0.98340  1.0000
  O   O13       1.0  0.47460  0.76530  0.48340  1.0000
  O   O14       1.0  0.52540  0.76530  0.01660  1.0000
  O   O15       1.0  0.97460  0.26530  0.48340  1.0000
  O   O16       1.0  0.02540  0.26530  0.01660  1.0000
  O   O17       1.0  0.60710  0.44290  0.78280  1.0000
  O   O18       1.0  0.39290  0.44290  0.71720  1.0000
  O   O19       1.0  0.10710  0.94290  0.78280  1.0000
  O   O20       1.0  0.89290  0.94290  0.71720  1.0000
  O   O21       1.0  0.39290  0.55710  0.21720  1.0000
  O   O22       1.0  0.60710  0.55710  0.28280  1.0000
  O   O23       1.0  0.89290  0.05710  0.21720  1.0000
  O   O24       1.0  0.10710  0.05710  0.28280  1.0000
  O   O25       1.0  0.63220  0.22050  0.72180  1.0000
  O   O26       1.0  0.36780  0.22050  0.77820  1.0000
  O   O27       1.0  0.13220  0.72050  0.72180  1.0000
  O   O28       1.0  0.86780  0.72050  0.77820  1.0000
  O   O29       1.0  0.36780  0.77950  0.27820  1.0000
  O   O30       1.0  0.63220  0.77950  0.22180  1.0000
  O   O31       1.0  0.86780  0.27950  0.27820  1.0000
  O   O32       1.0  0.13220  0.27950  0.22180  1.0000
  O   O33       1.0  0.71200  0.36980  0.60890  1.0000
  O   O34       1.0  0.28800  0.36980  0.89110  1.0000
  O   O35       1.0  0.21200  0.86980  0.60890  1.0000
  O   O36       1.0  0.78800  0.86980  0.89110  1.0000
  O   O37       1.0  0.28800  0.63020  0.39110  1.0000
  O   O38       1.0  0.71200  0.63020  0.10890  1.0000
  O   O39       1.0  0.78800  0.13020  0.39110  1.0000
  O   O40       1.0  0.21200  0.13020  0.10890  1.0000
  O   O41       1.0  0.66100  0.33310  0.42460  1.0000
  O   O42       1.0  0.33900  0.33310  0.07540  1.0000
  O   O43       1.0  0.16100  0.83310  0.42460  1.0000
  O   O44       1.0  0.83900  0.83310  0.07540  1.0000
  O   O45       1.0  0.33900  0.66690  0.57540  1.0000
  O   O46       1.0  0.66100  0.66690  0.92460  1.0000
  O   O47       1.0  0.83900  0.16690  0.57540  1.0000
  O   O48       1.0  0.16100  0.16690  0.92460  1.0000
  O   O49       1.0  0.72700  0.55840  0.44430  1.0000
  O   O50       1.0  0.27300  0.55840  0.05570  1.0000
  O   O51       1.0  0.22700  0.05840  0.44430  1.0000
  O   O52       1.0  0.77300  0.05840  0.05570  1.0000
  O   O53       1.0  0.27300  0.44160  0.55570  1.0000
  O   O54       1.0  0.72700  0.44160  0.94430  1.0000
  O   O55       1.0  0.77300  0.94160  0.55570  1.0000
  O   O56       1.0  0.22700  0.94160  0.94430  1.0000
  C   C1        1.0  0.59220  0.23180  0.55230  1.0000
  C   C2        1.0  0.40780  0.23180  0.94770  1.0000
  C   C3        1.0  0.09220  0.73180  0.55230  1.0000
  C   C4        1.0  0.90780  0.73180  0.94770  1.0000
  C   C5        1.0  0.40780  0.76820  0.44770  1.0000
  C   C6        1.0  0.59220  0.76820  0.05230  1.0000
  C   C7        1.0  0.90780  0.26820  0.44770  1.0000
  C   C8        1.0  0.09220  0.26820  0.05230  1.0000
  C   C9        1.0  0.61140  0.36880  0.72100  1.0000
  C   C10       1.0  0.38860  0.36880  0.77900  1.0000
  C   C11       1.0  0.11140  0.86880  0.72100  1.0000
  C   C12       1.0  0.88860  0.86880  0.77900  1.0000
  C   C13       1.0  0.38860  0.63120  0.27900  1.0000
  C   C14       1.0  0.61140  0.63120  0.22100  1.0000
  C   C15       1.0  0.88860  0.13120  0.27900  1.0000
  C   C16       1.0  0.11140  0.13120  0.22100  1.0000
  C   C17       1.0  0.59120  0.45530  0.64640  1.0000
  C   C18       1.0  0.40880  0.45530  0.85360  1.0000
  C   C19       1.0  0.09120  0.95530  0.64640  1.0000
  C   C20       1.0  0.90880  0.95530  0.85360  1.0000
  C   C21       1.0  0.40880  0.54470  0.35360  1.0000
  C   C22       1.0  0.59120  0.54470  0.14640  1.0000
  C   C23       1.0  0.90880  0.04470  0.35360  1.0000
  C   C24       1.0  0.09120  0.04470  0.14640  1.0000
  H   H1        1.0  0.60450  0.56750  0.65470  1.0000
  H   H2        1.0  0.39550  0.56750  0.84530  1.0000
  H   H3        1.0  0.10450  0.06750  0.65470  1.0000
  H   H4        1.0  0.89550  0.06750  0.84530  1.0000
  H   H5        1.0  0.39550  0.43250  0.34530  1.0000
  H   H6        1.0  0.60450  0.43250  0.15470  1.0000
  H   H7        1.0  0.89550  0.93250  0.34530  1.0000
  H   H8        1.0  0.10450  0.93250  0.15470  1.0000
  H   H9        1.0  0.53510  0.44890  0.62940  1.0000
  H   H10       1.0  0.46490  0.44890  0.87060  1.0000
  H   H11       1.0  0.03510  0.94890  0.62940  1.0000
  H   H12       1.0  0.96490  0.94890  0.87060  1.0000
  H   H13       1.0  0.46490  0.55110  0.37060  1.0000
  H   H14       1.0  0.53510  0.55110  0.12940  1.0000
  H   H15       1.0  0.96490  0.05110  0.37060  1.0000
  H   H16       1.0  0.03510  0.05110  0.12940  1.0000
  C   C25       1.0  0.63200  0.39160  0.58210  1.0000
  C   C26       1.0  0.36800  0.39160  0.91790  1.0000
  C   C27       1.0  0.13200  0.89160  0.58210  1.0000
  C   C28       1.0  0.86800  0.89160  0.91790  1.0000
  C   C29       1.0  0.36800  0.60840  0.41790  1.0000
  C   C30       1.0  0.63200  0.60840  0.08210  1.0000
  C   C31       1.0  0.86800  0.10840  0.41790  1.0000
  C   C32       1.0  0.13200  0.10840  0.08210  1.0000
  C   C33       1.0  0.62390  0.51370  0.51650  1.0000
  C   C34       1.0  0.37610  0.51370  0.98350  1.0000
  C   C35       1.0  0.12390  0.01370  0.51650  1.0000
  C   C36       1.0  0.87610  0.01370  0.98350  1.0000
  C   C37       1.0  0.37610  0.48630  0.48350  1.0000
  C   C38       1.0  0.62390  0.48630  0.01650  1.0000
  C   C39       1.0  0.87610  0.98630  0.48350  1.0000
  C   C40       1.0  0.12390  0.98630  0.01650  1.0000
  H   H17       1.0  0.56960  0.52040  0.49200  1.0000
  H   H18       1.0  0.43040  0.52040  0.00800  1.0000
  H   H19       1.0  0.06960  0.02040  0.49200  1.0000
  H   H20       1.0  0.93040  0.02040  0.00800  1.0000
  H   H21       1.0  0.43040  0.47960  0.50800  1.0000
  H   H22       1.0  0.56960  0.47960  0.99200  1.0000
  H   H23       1.0  0.93040  0.97960  0.50800  1.0000
  H   H24       1.0  0.06960  0.97960  0.99200  1.0000
  H   H25       1.0  0.63990  0.61860  0.53690  1.0000
  H   H26       1.0  0.36010  0.61860  0.96310  1.0000
  H   H27       1.0  0.13990  0.11860  0.53690  1.0000
  H   H28       1.0  0.86010  0.11860  0.96310  1.0000
  H   H29       1.0  0.36010  0.38140  0.46310  1.0000
  H   H30       1.0  0.63990  0.38140  0.03690  1.0000
  H   H31       1.0  0.86010  0.88140  0.46310  1.0000
  H   H32       1.0  0.13990  0.88140  0.03690  1.0000
  C   C41       1.0  0.67340  0.46620  0.45760  1.0000
  C   C42       1.0  0.32660  0.46620  0.04240  1.0000
  C   C43       1.0  0.17340  0.96620  0.45760  1.0000
  C   C44       1.0  0.82660  0.96620  0.04240  1.0000
  C   C45       1.0  0.32660  0.53380  0.54240  1.0000
  C   C46       1.0  0.67340  0.53380  0.95760  1.0000
  C   C47       1.0  0.82660  0.03380  0.54240  1.0000
  C   C48       1.0  0.17340  0.03380  0.95760  1.0000
