data_image0
_chemical_formula_structural       C16H16C16H16C16H8C24H8C24H16C16H16C8H8C24H8C24H8C16H8C8H8C16H24C8H8C8H8C8H8C16H8C8H8C16H24C8H8C8H8O96Cd8
_chemical_formula_sum              "C288 H224 O96 Cd8"
_cell_length_a       29.046
_cell_length_b       21.436
_cell_length_c       14.682
_cell_angle_alpha    90
_cell_angle_beta     93.618
_cell_angle_gamma    90

_space_group_name_H-M_alt    "P 1"
_space_group_IT_number       1

loop_
  _space_group_symop_operation_xyz
  'x, y, z'

loop_
  _atom_site_type_symbol
  _atom_site_label
  _atom_site_symmetry_multiplicity
  _atom_site_fract_x
  _atom_site_fract_y
  _atom_site_fract_z
  _atom_site_occupancy
  C   C1        1.0  0.84710  0.27810  0.13830  1.0000
  C   C2        1.0  0.15290  0.27810  0.36170  1.0000
  C   C3        1.0  0.34710  0.77810  0.13830  1.0000
  C   C4        1.0  0.65290  0.77810  0.36170  1.0000
  C   C5        1.0  0.15290  0.72190  0.86170  1.0000
  C   C6        1.0  0.84710  0.72190  0.63830  1.0000
  C   C7        1.0  0.65290  0.22190  0.86170  1.0000
  C   C8        1.0  0.34710  0.22190  0.63830  1.0000
  C   C9        1.0  0.81290  0.26090  0.20620  1.0000
  C   C10       1.0  0.18710  0.26090  0.29380  1.0000
  C   C11       1.0  0.31290  0.76090  0.20620  1.0000
  C   C12       1.0  0.68710  0.76090  0.29380  1.0000
  C   C13       1.0  0.18710  0.73910  0.79380  1.0000
  C   C14       1.0  0.81290  0.73910  0.70620  1.0000
  C   C15       1.0  0.68710  0.23910  0.79380  1.0000
  C   C16       1.0  0.31290  0.23910  0.70620  1.0000
  H   H1        1.0  0.81090  0.29480  0.24950  1.0000
  H   H2        1.0  0.18910  0.29480  0.25050  1.0000
  H   H3        1.0  0.31090  0.79480  0.24950  1.0000
  H   H4        1.0  0.68910  0.79480  0.25050  1.0000
  H   H5        1.0  0.18910  0.70520  0.75050  1.0000
  H   H6        1.0  0.81090  0.70520  0.74950  1.0000
  H   H7        1.0  0.68910  0.20520  0.75050  1.0000
  H   H8        1.0  0.31090  0.20520  0.74950  1.0000
  H   H9        1.0  0.78280  0.25610  0.17440  1.0000
  H   H10       1.0  0.21720  0.25610  0.32560  1.0000
  H   H11       1.0  0.28280  0.75610  0.17440  1.0000
  H   H12       1.0  0.71720  0.75610  0.32560  1.0000
  H   H13       1.0  0.21720  0.74390  0.82560  1.0000
  H   H14       1.0  0.78280  0.74390  0.67440  1.0000
  H   H15       1.0  0.71720  0.24390  0.82560  1.0000
  H   H16       1.0  0.28280  0.24390  0.67440  1.0000
  C   C17       1.0  0.63916  0.16450  0.16750  1.0000
  C   C18       1.0  0.36084  0.16450  0.33250  1.0000
  C   C19       1.0  0.13916  0.66450  0.16750  1.0000
  C   C20       1.0  0.86084  0.66450  0.33250  1.0000
  C   C21       1.0  0.36084  0.83550  0.83250  1.0000
  C   C22       1.0  0.63916  0.83550  0.66750  1.0000
  C   C23       1.0  0.86084  0.33550  0.83250  1.0000
  C   C24       1.0  0.13916  0.33550  0.66750  1.0000
  C   C25       1.0  0.64755  0.18690  0.26340  1.0000
  C   C26       1.0  0.35245  0.18690  0.23660  1.0000
  C   C27       1.0  0.14755  0.68690  0.26340  1.0000
  C   C28       1.0  0.85245  0.68690  0.23660  1.0000
  C   C29       1.0  0.35245  0.81310  0.73660  1.0000
  C   C30       1.0  0.64755  0.81310  0.76340  1.0000
  C   C31       1.0  0.85245  0.31310  0.73660  1.0000
  C   C32       1.0  0.14755  0.31310  0.76340  1.0000
  H   H17       1.0  0.66530  0.22520  0.26300  1.0000
  H   H18       1.0  0.33470  0.22520  0.23700  1.0000
  H   H19       1.0  0.16530  0.72520  0.26300  1.0000
  H   H20       1.0  0.83470  0.72520  0.23700  1.0000
  H   H21       1.0  0.33470  0.77480  0.73700  1.0000
  H   H22       1.0  0.66530  0.77480  0.76300  1.0000
  H   H23       1.0  0.83470  0.27480  0.73700  1.0000
  H   H24       1.0  0.16530  0.27480  0.76300  1.0000
  H   H25       1.0  0.61810  0.19650  0.28780  1.0000
  H   H26       1.0  0.38190  0.19650  0.21220  1.0000
  H   H27       1.0  0.11810  0.69650  0.28780  1.0000
  H   H28       1.0  0.88190  0.69650  0.21220  1.0000
  H   H29       1.0  0.38190  0.80350  0.71220  1.0000
  H   H30       1.0  0.61810  0.80350  0.78780  1.0000
  H   H31       1.0  0.88190  0.30350  0.71220  1.0000
  H   H32       1.0  0.11810  0.30350  0.78780  1.0000
  C   C33       1.0  0.71680  0.15335  0.34410  1.0000
  C   C34       1.0  0.28320  0.15335  0.15590  1.0000
  C   C35       1.0  0.21680  0.65335  0.34410  1.0000
  C   C36       1.0  0.78320  0.65335  0.15590  1.0000
  C   C37       1.0  0.28320  0.84665  0.65590  1.0000
  C   C38       1.0  0.71680  0.84665  0.84410  1.0000
  C   C39       1.0  0.78320  0.34665  0.65590  1.0000
  C   C40       1.0  0.21680  0.34665  0.84410  1.0000
  C   C41       1.0  0.74598  0.17872  0.28430  1.0000
  C   C42       1.0  0.25402  0.17872  0.21570  1.0000
  C   C43       1.0  0.24598  0.67872  0.28430  1.0000
  C   C44       1.0  0.75402  0.67872  0.21570  1.0000
  C   C45       1.0  0.25402  0.82128  0.71570  1.0000
  C   C46       1.0  0.74598  0.82128  0.78430  1.0000
  C   C47       1.0  0.75402  0.32128  0.71570  1.0000
  C   C48       1.0  0.24598  0.32128  0.78430  1.0000
  H   H33       1.0  0.73480  0.19140  0.22650  1.0000
  H   H34       1.0  0.26520  0.19140  0.27350  1.0000
  H   H35       1.0  0.23480  0.69140  0.22650  1.0000
  H   H36       1.0  0.76520  0.69140  0.27350  1.0000
  H   H37       1.0  0.26520  0.80860  0.77350  1.0000
  H   H38       1.0  0.73480  0.80860  0.72650  1.0000
  H   H39       1.0  0.76520  0.30860  0.77350  1.0000
  H   H40       1.0  0.23480  0.30860  0.72650  1.0000
  C   C49       1.0  0.79241  0.18529  0.31080  1.0000
  C   C50       1.0  0.20759  0.18529  0.18920  1.0000
  C   C51       1.0  0.29241  0.68529  0.31080  1.0000
  C   C52       1.0  0.70759  0.68529  0.18920  1.0000
  C   C53       1.0  0.20759  0.81471  0.68920  1.0000
  C   C54       1.0  0.79241  0.81471  0.81080  1.0000
  C   C55       1.0  0.70759  0.31471  0.68920  1.0000
  C   C56       1.0  0.29241  0.31471  0.81080  1.0000
  C   C57       1.0  0.80961  0.16736  0.39610  1.0000
  C   C58       1.0  0.19039  0.16736  0.10390  1.0000
  C   C59       1.0  0.30961  0.66736  0.39610  1.0000
  C   C60       1.0  0.69039  0.66736  0.10390  1.0000
  C   C61       1.0  0.19039  0.83264  0.60390  1.0000
  C   C62       1.0  0.80961  0.83264  0.89610  1.0000
  C   C63       1.0  0.69039  0.33264  0.60390  1.0000
  C   C64       1.0  0.30961  0.33264  0.89610  1.0000
  C   C65       1.0  0.77944  0.14153  0.45250  1.0000
  C   C66       1.0  0.22056  0.14153  0.04750  1.0000
  C   C67       1.0  0.27944  0.64153  0.45250  1.0000
  C   C68       1.0  0.72056  0.64153  0.04750  1.0000
  C   C69       1.0  0.22056  0.85847  0.54750  1.0000
  C   C70       1.0  0.77944  0.85847  0.95250  1.0000
  C   C71       1.0  0.72056  0.35847  0.54750  1.0000
  C   C72       1.0  0.27944  0.35847  0.95250  1.0000
  H   H41       1.0  0.79100  0.12810  0.50970  1.0000
  H   H42       1.0  0.20900  0.12810  0.99030  1.0000
  H   H43       1.0  0.29100  0.62810  0.50970  1.0000
  H   H44       1.0  0.70900  0.62810  0.99030  1.0000
  H   H45       1.0  0.20900  0.87190  0.49030  1.0000
  H   H46       1.0  0.79100  0.87190  0.00970  1.0000
  H   H47       1.0  0.70900  0.37190  0.49030  1.0000
  H   H48       1.0  0.29100  0.37190  0.00970  1.0000
  C   C73       1.0  0.73251  0.13380  0.43040  1.0000
  C   C74       1.0  0.26749  0.13380  0.06960  1.0000
  C   C75       1.0  0.23251  0.63380  0.43040  1.0000
  C   C76       1.0  0.76749  0.63380  0.06960  1.0000
  C   C77       1.0  0.26749  0.86620  0.56960  1.0000
  C   C78       1.0  0.73251  0.86620  0.93040  1.0000
  C   C79       1.0  0.76749  0.36620  0.56960  1.0000
  C   C80       1.0  0.23251  0.36620  0.93040  1.0000
  C   C81       1.0  0.01767  0.29151  0.40900  1.0000
  C   C82       1.0  0.98233  0.29151  0.09100  1.0000
  C   C83       1.0  0.51767  0.79151  0.40900  1.0000
  C   C84       1.0  0.48233  0.79151  0.09100  1.0000
  C   C85       1.0  0.98233  0.70849  0.59100  1.0000
  C   C86       1.0  0.01767  0.70849  0.90900  1.0000
  C   C87       1.0  0.48233  0.20849  0.59100  1.0000
  C   C88       1.0  0.51767  0.20849  0.90900  1.0000
  C   C89       1.0  0.97772  0.26135  0.35530  1.0000
  C   C90       1.0  0.02228  0.26135  0.14470  1.0000
  C   C91       1.0  0.47772  0.76135  0.35530  1.0000
  C   C92       1.0  0.52228  0.76135  0.14470  1.0000
  C   C93       1.0  0.02228  0.73865  0.64470  1.0000
  C   C94       1.0  0.97772  0.73865  0.85530  1.0000
  C   C95       1.0  0.52228  0.23865  0.64470  1.0000
  C   C96       1.0  0.47772  0.23865  0.85530  1.0000
  H   H49       1.0  0.96300  0.29240  0.31510  1.0000
  H   H50       1.0  0.03700  0.29240  0.18490  1.0000
  H   H51       1.0  0.46300  0.79240  0.31510  1.0000
  H   H52       1.0  0.53700  0.79240  0.18490  1.0000
  H   H53       1.0  0.03700  0.70760  0.68490  1.0000
  H   H54       1.0  0.96300  0.70760  0.81510  1.0000
  H   H55       1.0  0.53700  0.20760  0.68490  1.0000
  H   H56       1.0  0.46300  0.20760  0.81510  1.0000
  H   H57       1.0  0.98960  0.22880  0.31730  1.0000
  H   H58       1.0  0.01040  0.22880  0.18270  1.0000
  H   H59       1.0  0.48960  0.72880  0.31730  1.0000
  H   H60       1.0  0.51040  0.72880  0.18270  1.0000
  H   H61       1.0  0.01040  0.77120  0.68270  1.0000
  H   H62       1.0  0.98960  0.77120  0.81730  1.0000
  H   H63       1.0  0.51040  0.27120  0.68270  1.0000
  H   H64       1.0  0.48960  0.27120  0.81730  1.0000
  C   C97       1.0  0.92630  0.53555  0.48680  1.0000
  C   C98       1.0  0.07370  0.53555  0.01320  1.0000
  C   C99       1.0  0.42630  0.03555  0.48680  1.0000
  C   C100      1.0  0.57370  0.03555  0.01320  1.0000
  C   C101      1.0  0.07370  0.46445  0.51320  1.0000
  C   C102      1.0  0.92630  0.46445  0.98680  1.0000
  C   C103      1.0  0.57370  0.96445  0.51320  1.0000
  C   C104      1.0  0.42630  0.96445  0.98680  1.0000
  C   C105      1.0  0.93175  0.46690  0.47370  1.0000
  C   C106      1.0  0.06825  0.46690  0.02630  1.0000
  C   C107      1.0  0.43175  0.96690  0.47370  1.0000
  C   C108      1.0  0.56825  0.96690  0.02630  1.0000
  C   C109      1.0  0.06825  0.53310  0.52630  1.0000
  C   C110      1.0  0.93175  0.53310  0.97370  1.0000
  C   C111      1.0  0.56825  0.03310  0.52630  1.0000
  C   C112      1.0  0.43175  0.03310  0.97370  1.0000
  H   H65       1.0  0.93920  0.45810  0.41150  1.0000
  H   H66       1.0  0.06080  0.45810  0.08850  1.0000
  H   H67       1.0  0.43920  0.95810  0.41150  1.0000
  H   H68       1.0  0.56080  0.95810  0.08850  1.0000
  H   H69       1.0  0.06080  0.54190  0.58850  1.0000
  H   H70       1.0  0.93920  0.54190  0.91150  1.0000
  H   H71       1.0  0.56080  0.04190  0.58850  1.0000
  H   H72       1.0  0.43920  0.04190  0.91150  1.0000
  H   H73       1.0  0.95650  0.45110  0.51470  1.0000
  H   H74       1.0  0.04350  0.45110  0.98530  1.0000
  H   H75       1.0  0.45650  0.95110  0.51470  1.0000
  H   H76       1.0  0.54350  0.95110  0.98530  1.0000
  H   H77       1.0  0.04350  0.54890  0.48530  1.0000
  H   H78       1.0  0.95650  0.54890  0.01470  1.0000
  H   H79       1.0  0.54350  0.04890  0.48530  1.0000
  H   H80       1.0  0.45650  0.04890  0.01470  1.0000
  C   C113      1.0  0.91862  0.33711  0.44990  1.0000
  C   C114      1.0  0.08138  0.33711  0.05010  1.0000
  C   C115      1.0  0.41862  0.83711  0.44990  1.0000
  C   C116      1.0  0.58138  0.83711  0.05010  1.0000
  C   C117      1.0  0.08138  0.66289  0.55010  1.0000
  C   C118      1.0  0.91862  0.66289  0.94990  1.0000
  C   C119      1.0  0.58138  0.16289  0.55010  1.0000
  C   C120      1.0  0.41862  0.16289  0.94990  1.0000
  H   H81       1.0  0.94790  0.35360  0.44350  1.0000
  H   H82       1.0  0.05210  0.35360  0.05650  1.0000
  H   H83       1.0  0.44790  0.85360  0.44350  1.0000
  H   H84       1.0  0.55210  0.85360  0.05650  1.0000
  H   H85       1.0  0.05210  0.64640  0.55650  1.0000
  H   H86       1.0  0.94790  0.64640  0.94350  1.0000
  H   H87       1.0  0.55210  0.14640  0.55650  1.0000
  H   H88       1.0  0.44790  0.14640  0.94350  1.0000
  C   C121      1.0  0.91048  0.27469  0.43400  1.0000
  C   C122      1.0  0.08952  0.27469  0.06600  1.0000
  C   C123      1.0  0.41048  0.77469  0.43400  1.0000
  C   C124      1.0  0.58952  0.77469  0.06600  1.0000
  C   C125      1.0  0.08952  0.72531  0.56600  1.0000
  C   C126      1.0  0.91048  0.72531  0.93400  1.0000
  C   C127      1.0  0.58952  0.22531  0.56600  1.0000
  C   C128      1.0  0.41048  0.22531  0.93400  1.0000
  C   C129      1.0  0.86777  0.24913  0.44420  1.0000
  C   C130      1.0  0.13223  0.24913  0.05580  1.0000
  C   C131      1.0  0.36777  0.74913  0.44420  1.0000
  C   C132      1.0  0.63223  0.74913  0.05580  1.0000
  C   C133      1.0  0.13223  0.75087  0.55580  1.0000
  C   C134      1.0  0.86777  0.75087  0.94420  1.0000
  C   C135      1.0  0.63223  0.25087  0.55580  1.0000
  C   C136      1.0  0.36777  0.25087  0.94420  1.0000
  C   C137      1.0  0.83377  0.28857  0.47070  1.0000
  C   C138      1.0  0.16623  0.28857  0.02930  1.0000
  C   C139      1.0  0.33377  0.78857  0.47070  1.0000
  C   C140      1.0  0.66623  0.78857  0.02930  1.0000
  C   C141      1.0  0.16623  0.71143  0.52930  1.0000
  C   C142      1.0  0.83377  0.71143  0.97070  1.0000
  C   C143      1.0  0.66623  0.21143  0.52930  1.0000
  C   C144      1.0  0.33377  0.21143  0.97070  1.0000
  H   H89       1.0  0.80490  0.27170  0.47930  1.0000
  H   H90       1.0  0.19510  0.27170  0.02070  1.0000
  H   H91       1.0  0.30490  0.77170  0.47930  1.0000
  H   H92       1.0  0.69510  0.77170  0.02070  1.0000
  H   H93       1.0  0.19510  0.72830  0.52070  1.0000
  H   H94       1.0  0.80490  0.72830  0.97930  1.0000
  H   H95       1.0  0.69510  0.22830  0.52070  1.0000
  H   H96       1.0  0.30490  0.22830  0.97930  1.0000
  C   C145      1.0  0.84003  0.35205  0.48540  1.0000
  C   C146      1.0  0.15997  0.35205  0.01460  1.0000
  C   C147      1.0  0.34003  0.85205  0.48540  1.0000
  C   C148      1.0  0.65997  0.85205  0.01460  1.0000
  C   C149      1.0  0.15997  0.64795  0.51460  1.0000
  C   C150      1.0  0.84003  0.64795  0.98540  1.0000
  C   C151      1.0  0.65997  0.14795  0.51460  1.0000
  C   C152      1.0  0.34003  0.14795  0.98540  1.0000
  C   C153      1.0  0.88365  0.37495  0.47520  1.0000
  C   C154      1.0  0.11635  0.37495  0.02480  1.0000
  C   C155      1.0  0.38365  0.87495  0.47520  1.0000
  C   C156      1.0  0.61635  0.87495  0.02480  1.0000
  C   C157      1.0  0.11635  0.62505  0.52480  1.0000
  C   C158      1.0  0.88365  0.62505  0.97520  1.0000
  C   C159      1.0  0.61635  0.12505  0.52480  1.0000
  C   C160      1.0  0.38365  0.12505  0.97520  1.0000
  C   C161      1.0  0.85989  0.17971  0.42720  1.0000
  C   C162      1.0  0.14011  0.17971  0.07280  1.0000
  C   C163      1.0  0.35989  0.67971  0.42720  1.0000
  C   C164      1.0  0.64011  0.67971  0.07280  1.0000
  C   C165      1.0  0.14011  0.82029  0.57280  1.0000
  C   C166      1.0  0.85989  0.82029  0.92720  1.0000
  C   C167      1.0  0.64011  0.32029  0.57280  1.0000
  C   C168      1.0  0.35989  0.32029  0.92720  1.0000
  H   H97       1.0  0.87870  0.16760  0.37690  1.0000
  H   H98       1.0  0.12130  0.16760  0.12310  1.0000
  H   H99       1.0  0.37870  0.66760  0.37690  1.0000
  H   H100      1.0  0.62130  0.66760  0.12310  1.0000
  H   H101      1.0  0.12130  0.83240  0.62310  1.0000
  H   H102      1.0  0.87870  0.83240  0.87690  1.0000
  H   H103      1.0  0.62130  0.33240  0.62310  1.0000
  H   H104      1.0  0.37870  0.33240  0.87690  1.0000
  C   C169      1.0  0.87676  0.14155  0.51030  1.0000
  C   C170      1.0  0.12324  0.14155  0.98970  1.0000
  C   C171      1.0  0.37676  0.64155  0.51030  1.0000
  C   C172      1.0  0.62324  0.64155  0.98970  1.0000
  C   C173      1.0  0.12324  0.85845  0.48970  1.0000
  C   C174      1.0  0.87676  0.85845  0.01030  1.0000
  C   C175      1.0  0.62324  0.35845  0.48970  1.0000
  C   C176      1.0  0.37676  0.35845  0.01030  1.0000
  C   C177      1.0  0.86980  0.15860  0.59650  1.0000
  C   C178      1.0  0.13020  0.15860  0.90350  1.0000
  C   C179      1.0  0.36980  0.65860  0.59650  1.0000
  C   C180      1.0  0.63020  0.65860  0.90350  1.0000
  C   C181      1.0  0.13020  0.84140  0.40350  1.0000
  C   C182      1.0  0.86980  0.84140  0.09650  1.0000
  C   C183      1.0  0.63020  0.34140  0.40350  1.0000
  C   C184      1.0  0.36980  0.34140  0.09650  1.0000
  H   H105      1.0  0.85480  0.19610  0.60620  1.0000
  H   H106      1.0  0.14520  0.19610  0.89380  1.0000
  H   H107      1.0  0.35480  0.69610  0.60620  1.0000
  H   H108      1.0  0.64520  0.69610  0.89380  1.0000
  H   H109      1.0  0.14520  0.80390  0.39380  1.0000
  H   H110      1.0  0.85480  0.80390  0.10620  1.0000
  H   H111      1.0  0.64520  0.30390  0.39380  1.0000
  H   H112      1.0  0.35480  0.30390  0.10620  1.0000
  C   C185      1.0  0.88420  0.12180  0.67300  1.0000
  C   C186      1.0  0.11580  0.12180  0.82700  1.0000
  C   C187      1.0  0.38420  0.62180  0.67300  1.0000
  C   C188      1.0  0.61580  0.62180  0.82700  1.0000
  C   C189      1.0  0.11580  0.87820  0.32700  1.0000
  C   C190      1.0  0.88420  0.87820  0.17300  1.0000
  C   C191      1.0  0.61580  0.37820  0.32700  1.0000
  C   C192      1.0  0.38420  0.37820  0.17300  1.0000
  H   H113      1.0  0.87780  0.13340  0.73190  1.0000
  H   H114      1.0  0.12220  0.13340  0.76810  1.0000
  H   H115      1.0  0.37780  0.63340  0.73190  1.0000
  H   H116      1.0  0.62220  0.63340  0.76810  1.0000
  H   H117      1.0  0.12220  0.86660  0.26810  1.0000
  H   H118      1.0  0.87780  0.86660  0.23190  1.0000
  H   H119      1.0  0.62220  0.36660  0.26810  1.0000
  H   H120      1.0  0.37780  0.36660  0.23190  1.0000
  C   C193      1.0  0.90790  0.06870  0.65670  1.0000
  C   C194      1.0  0.09210  0.06870  0.84330  1.0000
  C   C195      1.0  0.40790  0.56870  0.65670  1.0000
  C   C196      1.0  0.59210  0.56870  0.84330  1.0000
  C   C197      1.0  0.09210  0.93130  0.34330  1.0000
  C   C198      1.0  0.90790  0.93130  0.15670  1.0000
  C   C199      1.0  0.59210  0.43130  0.34330  1.0000
  C   C200      1.0  0.40790  0.43130  0.15670  1.0000
  C   C201      1.0  0.92660  0.03080  0.74310  1.0000
  C   C202      1.0  0.07340  0.03080  0.75690  1.0000
  C   C203      1.0  0.42660  0.53080  0.74310  1.0000
  C   C204      1.0  0.57340  0.53080  0.75690  1.0000
  C   C205      1.0  0.07340  0.96920  0.25690  1.0000
  C   C206      1.0  0.92660  0.96920  0.24310  1.0000
  C   C207      1.0  0.57340  0.46920  0.25690  1.0000
  C   C208      1.0  0.42660  0.46920  0.24310  1.0000
  H   H121      1.0  0.94280  0.99450  0.72400  1.0000
  H   H122      1.0  0.05720  0.99450  0.77600  1.0000
  H   H123      1.0  0.44280  0.49450  0.72400  1.0000
  H   H124      1.0  0.55720  0.49450  0.77600  1.0000
  H   H125      1.0  0.05720  0.00550  0.27600  1.0000
  H   H126      1.0  0.94280  0.00550  0.22400  1.0000
  H   H127      1.0  0.55720  0.50550  0.27600  1.0000
  H   H128      1.0  0.44280  0.50550  0.22400  1.0000
  H   H129      1.0  0.90120  0.01820  0.77770  1.0000
  H   H130      1.0  0.09880  0.01820  0.72230  1.0000
  H   H131      1.0  0.40120  0.51820  0.77770  1.0000
  H   H132      1.0  0.59880  0.51820  0.72230  1.0000
  H   H133      1.0  0.09880  0.98180  0.22230  1.0000
  H   H134      1.0  0.90120  0.98180  0.27770  1.0000
  H   H135      1.0  0.59880  0.48180  0.22230  1.0000
  H   H136      1.0  0.40120  0.48180  0.27770  1.0000
  H   H137      1.0  0.94720  0.05660  0.78030  1.0000
  H   H138      1.0  0.05280  0.05660  0.71970  1.0000
  H   H139      1.0  0.44720  0.55660  0.78030  1.0000
  H   H140      1.0  0.55280  0.55660  0.71970  1.0000
  H   H141      1.0  0.05280  0.94340  0.21970  1.0000
  H   H142      1.0  0.94720  0.94340  0.28030  1.0000
  H   H143      1.0  0.55280  0.44340  0.21970  1.0000
  H   H144      1.0  0.44720  0.44340  0.28030  1.0000
  C   C209      1.0  0.91620  0.04980  0.56750  1.0000
  C   C210      1.0  0.08380  0.04980  0.93250  1.0000
  C   C211      1.0  0.41620  0.54980  0.56750  1.0000
  C   C212      1.0  0.58380  0.54980  0.93250  1.0000
  C   C213      1.0  0.08380  0.95020  0.43250  1.0000
  C   C214      1.0  0.91620  0.95020  0.06750  1.0000
  C   C215      1.0  0.58380  0.45020  0.43250  1.0000
  C   C216      1.0  0.41620  0.45020  0.06750  1.0000
  H   H145      1.0  0.93210  0.01310  0.55750  1.0000
  H   H146      1.0  0.06790  0.01310  0.94250  1.0000
  H   H147      1.0  0.43210  0.51310  0.55750  1.0000
  H   H148      1.0  0.56790  0.51310  0.94250  1.0000
  H   H149      1.0  0.06790  0.98690  0.44250  1.0000
  H   H150      1.0  0.93210  0.98690  0.05750  1.0000
  H   H151      1.0  0.56790  0.48690  0.44250  1.0000
  H   H152      1.0  0.43210  0.48690  0.05750  1.0000
  C   C217      1.0  0.90040  0.08670  0.49500  1.0000
  C   C218      1.0  0.09960  0.08670  0.00500  1.0000
  C   C219      1.0  0.40040  0.58670  0.49500  1.0000
  C   C220      1.0  0.59960  0.58670  0.00500  1.0000
  C   C221      1.0  0.09960  0.91330  0.50500  1.0000
  C   C222      1.0  0.90040  0.91330  0.99500  1.0000
  C   C223      1.0  0.59960  0.41330  0.50500  1.0000
  C   C224      1.0  0.40040  0.41330  0.99500  1.0000
  H   H153      1.0  0.90560  0.07460  0.43570  1.0000
  H   H154      1.0  0.09440  0.07460  0.06430  1.0000
  H   H155      1.0  0.40560  0.57460  0.43570  1.0000
  H   H156      1.0  0.59440  0.57460  0.06430  1.0000
  H   H157      1.0  0.09440  0.92540  0.56430  1.0000
  H   H158      1.0  0.90560  0.92540  0.93570  1.0000
  H   H159      1.0  0.59440  0.42540  0.56430  1.0000
  H   H160      1.0  0.40560  0.42540  0.93570  1.0000
  C   C225      1.0  0.80057  0.39511  0.50560  1.0000
  C   C226      1.0  0.19943  0.39511  0.99440  1.0000
  C   C227      1.0  0.30057  0.89511  0.50560  1.0000
  C   C228      1.0  0.69943  0.89511  0.99440  1.0000
  C   C229      1.0  0.19943  0.60489  0.49440  1.0000
  C   C230      1.0  0.80057  0.60489  0.00560  1.0000
  C   C231      1.0  0.69943  0.10489  0.49440  1.0000
  C   C232      1.0  0.30057  0.10489  0.00560  1.0000
  H   H161      1.0  0.81450  0.43120  0.53780  1.0000
  H   H162      1.0  0.18550  0.43120  0.96220  1.0000
  H   H163      1.0  0.31450  0.93120  0.53780  1.0000
  H   H164      1.0  0.68550  0.93120  0.96220  1.0000
  H   H165      1.0  0.18550  0.56880  0.46220  1.0000
  H   H166      1.0  0.81450  0.56880  0.03780  1.0000
  H   H167      1.0  0.68550  0.06880  0.46220  1.0000
  H   H168      1.0  0.31450  0.06880  0.03780  1.0000
  C   C233      1.0  0.77762  0.41982  0.41840  1.0000
  C   C234      1.0  0.22238  0.41982  0.08160  1.0000
  C   C235      1.0  0.27762  0.91982  0.41840  1.0000
  C   C236      1.0  0.72238  0.91982  0.08160  1.0000
  C   C237      1.0  0.22238  0.58018  0.58160  1.0000
  C   C238      1.0  0.77762  0.58018  0.91840  1.0000
  C   C239      1.0  0.72238  0.08018  0.58160  1.0000
  C   C240      1.0  0.27762  0.08018  0.91840  1.0000
  C   C241      1.0  0.75813  0.38160  0.35110  1.0000
  C   C242      1.0  0.24187  0.38160  0.14890  1.0000
  C   C243      1.0  0.25813  0.88160  0.35110  1.0000
  C   C244      1.0  0.74187  0.88160  0.14890  1.0000
  C   C245      1.0  0.24187  0.61840  0.64890  1.0000
  C   C246      1.0  0.75813  0.61840  0.85110  1.0000
  C   C247      1.0  0.74187  0.11840  0.64890  1.0000
  C   C248      1.0  0.25813  0.11840  0.85110  1.0000
  H   H169      1.0  0.75970  0.33860  0.35950  1.0000
  H   H170      1.0  0.24030  0.33860  0.14050  1.0000
  H   H171      1.0  0.25970  0.83860  0.35950  1.0000
  H   H172      1.0  0.74030  0.83860  0.14050  1.0000
  H   H173      1.0  0.24030  0.66140  0.64050  1.0000
  H   H174      1.0  0.75970  0.66140  0.85950  1.0000
  H   H175      1.0  0.74030  0.16140  0.64050  1.0000
  H   H176      1.0  0.25970  0.16140  0.85950  1.0000
  C   C249      1.0  0.73683  0.40380  0.27360  1.0000
  C   C250      1.0  0.26317  0.40380  0.22640  1.0000
  C   C251      1.0  0.23683  0.90380  0.27360  1.0000
  C   C252      1.0  0.76317  0.90380  0.22640  1.0000
  C   C253      1.0  0.26317  0.59620  0.72640  1.0000
  C   C254      1.0  0.73683  0.59620  0.77360  1.0000
  C   C255      1.0  0.76317  0.09620  0.72640  1.0000
  C   C256      1.0  0.23683  0.09620  0.77360  1.0000
  H   H177      1.0  0.72340  0.37620  0.23090  1.0000
  H   H178      1.0  0.27660  0.37620  0.26910  1.0000
  H   H179      1.0  0.22340  0.87620  0.23090  1.0000
  H   H180      1.0  0.77660  0.87620  0.26910  1.0000
  H   H181      1.0  0.27660  0.62380  0.76910  1.0000
  H   H182      1.0  0.72340  0.62380  0.73090  1.0000
  H   H183      1.0  0.77660  0.12380  0.76910  1.0000
  H   H184      1.0  0.22340  0.12380  0.73090  1.0000
  C   C257      1.0  0.73470  0.46640  0.25700  1.0000
  C   C258      1.0  0.26530  0.46640  0.24300  1.0000
  C   C259      1.0  0.23470  0.96640  0.25700  1.0000
  C   C260      1.0  0.76530  0.96640  0.24300  1.0000
  C   C261      1.0  0.26530  0.53360  0.74300  1.0000
  C   C262      1.0  0.73470  0.53360  0.75700  1.0000
  C   C263      1.0  0.76530  0.03360  0.74300  1.0000
  C   C264      1.0  0.23470  0.03360  0.75700  1.0000
  C   C265      1.0  0.71130  0.49360  0.16720  1.0000
  C   C266      1.0  0.28870  0.49360  0.33280  1.0000
  C   C267      1.0  0.21130  0.99360  0.16720  1.0000
  C   C268      1.0  0.78870  0.99360  0.33280  1.0000
  C   C269      1.0  0.28870  0.50640  0.83280  1.0000
  C   C270      1.0  0.71130  0.50640  0.66720  1.0000
  C   C271      1.0  0.78870  0.00640  0.83280  1.0000
  C   C272      1.0  0.21130  0.00640  0.66720  1.0000
  H   H185      1.0  0.70060  0.46010  0.12800  1.0000
  H   H186      1.0  0.29940  0.46010  0.37200  1.0000
  H   H187      1.0  0.20060  0.96010  0.12800  1.0000
  H   H188      1.0  0.79940  0.96010  0.37200  1.0000
  H   H189      1.0  0.29940  0.53990  0.87200  1.0000
  H   H190      1.0  0.70060  0.53990  0.62800  1.0000
  H   H191      1.0  0.79940  0.03990  0.87200  1.0000
  H   H192      1.0  0.20060  0.03990  0.62800  1.0000
  H   H193      1.0  0.73330  0.51830  0.13670  1.0000
  H   H194      1.0  0.26670  0.51830  0.36330  1.0000
  H   H195      1.0  0.23330  0.01830  0.13670  1.0000
  H   H196      1.0  0.76670  0.01830  0.36330  1.0000
  H   H197      1.0  0.26670  0.48170  0.86330  1.0000
  H   H198      1.0  0.73330  0.48170  0.63670  1.0000
  H   H199      1.0  0.76670  0.98170  0.86330  1.0000
  H   H200      1.0  0.23330  0.98170  0.63670  1.0000
  H   H201      1.0  0.68570  0.51930  0.18140  1.0000
  H   H202      1.0  0.31430  0.51930  0.31860  1.0000
  H   H203      1.0  0.18570  0.01930  0.18140  1.0000
  H   H204      1.0  0.81430  0.01930  0.31860  1.0000
  H   H205      1.0  0.31430  0.48070  0.81860  1.0000
  H   H206      1.0  0.68570  0.48070  0.68140  1.0000
  H   H207      1.0  0.81430  0.98070  0.81860  1.0000
  H   H208      1.0  0.18570  0.98070  0.68140  1.0000
  C   C273      1.0  0.75400  0.50510  0.32230  1.0000
  C   C274      1.0  0.24600  0.50510  0.17770  1.0000
  C   C275      1.0  0.25400  0.00510  0.32230  1.0000
  C   C276      1.0  0.74600  0.00510  0.17770  1.0000
  C   C277      1.0  0.24600  0.49490  0.67770  1.0000
  C   C278      1.0  0.75400  0.49490  0.82230  1.0000
  C   C279      1.0  0.74600  0.99490  0.67770  1.0000
  C   C280      1.0  0.25400  0.99490  0.82230  1.0000
  H   H209      1.0  0.75320  0.54790  0.31190  1.0000
  H   H210      1.0  0.24680  0.54790  0.18810  1.0000
  H   H211      1.0  0.25320  0.04790  0.31190  1.0000
  H   H212      1.0  0.74680  0.04790  0.18810  1.0000
  H   H213      1.0  0.24680  0.45210  0.68810  1.0000
  H   H214      1.0  0.75320  0.45210  0.81190  1.0000
  H   H215      1.0  0.74680  0.95210  0.68810  1.0000
  H   H216      1.0  0.25320  0.95210  0.81190  1.0000
  C   C281      1.0  0.77444  0.48330  0.40270  1.0000
  C   C282      1.0  0.22556  0.48330  0.09730  1.0000
  C   C283      1.0  0.27444  0.98330  0.40270  1.0000
  C   C284      1.0  0.72556  0.98330  0.09730  1.0000
  C   C285      1.0  0.22556  0.51670  0.59730  1.0000
  C   C286      1.0  0.77444  0.51670  0.90270  1.0000
  C   C287      1.0  0.72556  0.01670  0.59730  1.0000
  C   C288      1.0  0.27444  0.01670  0.90270  1.0000
  H   H217      1.0  0.78620  0.51110  0.44680  1.0000
  H   H218      1.0  0.21380  0.51110  0.05320  1.0000
  H   H219      1.0  0.28620  0.01110  0.44680  1.0000
  H   H220      1.0  0.71380  0.01110  0.05320  1.0000
  H   H221      1.0  0.21380  0.48890  0.55320  1.0000
  H   H222      1.0  0.78620  0.48890  0.94680  1.0000
  H   H223      1.0  0.71380  0.98890  0.55320  1.0000
  H   H224      1.0  0.28620  0.98890  0.94680  1.0000
  O   O1        1.0  0.87500  0.24400  0.11730  1.0000
  O   O2        1.0  0.12500  0.24400  0.38270  1.0000
  O   O3        1.0  0.37500  0.74400  0.11730  1.0000
  O   O4        1.0  0.62500  0.74400  0.38270  1.0000
  O   O5        1.0  0.12500  0.75600  0.88270  1.0000
  O   O6        1.0  0.87500  0.75600  0.61730  1.0000
  O   O7        1.0  0.62500  0.25600  0.88270  1.0000
  O   O8        1.0  0.37500  0.25600  0.61730  1.0000
  O   O9        1.0  0.84356  0.33130  0.10600  1.0000
  O   O10       1.0  0.15644  0.33130  0.39400  1.0000
  O   O11       1.0  0.34356  0.83130  0.10600  1.0000
  O   O12       1.0  0.65644  0.83130  0.39400  1.0000
  O   O13       1.0  0.15644  0.66870  0.89400  1.0000
  O   O14       1.0  0.84356  0.66870  0.60600  1.0000
  O   O15       1.0  0.65644  0.16870  0.89400  1.0000
  O   O16       1.0  0.34356  0.16870  0.60600  1.0000
  O   O17       1.0  0.65394  0.11580  0.14260  1.0000
  O   O18       1.0  0.34606  0.11580  0.35740  1.0000
  O   O19       1.0  0.15394  0.61580  0.14260  1.0000
  O   O20       1.0  0.84606  0.61580  0.35740  1.0000
  O   O21       1.0  0.34606  0.88420  0.85740  1.0000
  O   O22       1.0  0.65394  0.88420  0.64260  1.0000
  O   O23       1.0  0.84606  0.38420  0.85740  1.0000
  O   O24       1.0  0.15394  0.38420  0.64260  1.0000
  O   O25       1.0  0.61548  0.19992  0.11780  1.0000
  O   O26       1.0  0.38452  0.19992  0.38220  1.0000
  O   O27       1.0  0.11548  0.69992  0.11780  1.0000
  O   O28       1.0  0.88452  0.69992  0.38220  1.0000
  O   O29       1.0  0.38452  0.80008  0.88220  1.0000
  O   O30       1.0  0.61548  0.80008  0.61780  1.0000
  O   O31       1.0  0.88452  0.30008  0.88220  1.0000
  O   O32       1.0  0.11548  0.30008  0.61780  1.0000
  O   O33       1.0  0.82342  0.20847  0.25193  1.0000
  O   O34       1.0  0.17658  0.20847  0.24807  1.0000
  O   O35       1.0  0.32342  0.70847  0.25193  1.0000
  O   O36       1.0  0.67658  0.70847  0.24807  1.0000
  O   O37       1.0  0.17658  0.79153  0.74807  1.0000
  O   O38       1.0  0.82342  0.79153  0.75193  1.0000
  O   O39       1.0  0.67658  0.29153  0.74807  1.0000
  O   O40       1.0  0.32342  0.29153  0.75193  1.0000
  O   O41       1.0  0.67083  0.14409  0.32095  1.0000
  O   O42       1.0  0.32917  0.14409  0.17905  1.0000
  O   O43       1.0  0.17083  0.64409  0.32095  1.0000
  O   O44       1.0  0.82917  0.64409  0.17905  1.0000
  O   O45       1.0  0.32917  0.85591  0.67905  1.0000
  O   O46       1.0  0.67083  0.85591  0.82095  1.0000
  O   O47       1.0  0.82917  0.35591  0.67905  1.0000
  O   O48       1.0  0.17083  0.35591  0.82095  1.0000
  O   O49       1.0  0.02961  0.27439  0.48500  1.0000
  O   O50       1.0  0.97039  0.27439  0.01500  1.0000
  O   O51       1.0  0.52961  0.77439  0.48500  1.0000
  O   O52       1.0  0.47039  0.77439  0.01500  1.0000
  O   O53       1.0  0.97039  0.72561  0.51500  1.0000
  O   O54       1.0  0.02961  0.72561  0.98500  1.0000
  O   O55       1.0  0.47039  0.22561  0.51500  1.0000
  O   O56       1.0  0.52961  0.22561  0.98500  1.0000
  O   O57       1.0  0.03830  0.33319  0.36800  1.0000
  O   O58       1.0  0.96170  0.33319  0.13200  1.0000
  O   O59       1.0  0.53830  0.83319  0.36800  1.0000
  O   O60       1.0  0.46170  0.83319  0.13200  1.0000
  O   O61       1.0  0.96170  0.66681  0.63200  1.0000
  O   O62       1.0  0.03830  0.66681  0.86800  1.0000
  O   O63       1.0  0.46170  0.16681  0.63200  1.0000
  O   O64       1.0  0.53830  0.16681  0.86800  1.0000
  O   O65       1.0  0.95205  0.56996  0.44704  1.0000
  O   O66       1.0  0.04795  0.56996  0.05296  1.0000
  O   O67       1.0  0.45205  0.06996  0.44704  1.0000
  O   O68       1.0  0.54795  0.06996  0.05296  1.0000
  O   O69       1.0  0.04795  0.43004  0.55296  1.0000
  O   O70       1.0  0.95205  0.43004  0.94704  1.0000
  O   O71       1.0  0.54795  0.93004  0.55296  1.0000
  O   O72       1.0  0.45205  0.93004  0.94704  1.0000
  O   O73       1.0  0.89670  0.55435  0.53915  1.0000
  O   O74       1.0  0.10330  0.55435  0.96085  1.0000
  O   O75       1.0  0.39670  0.05435  0.53915  1.0000
  O   O76       1.0  0.60330  0.05435  0.96085  1.0000
  O   O77       1.0  0.10330  0.44565  0.46085  1.0000
  O   O78       1.0  0.89670  0.44565  0.03915  1.0000
  O   O79       1.0  0.60330  0.94565  0.46085  1.0000
  O   O80       1.0  0.39670  0.94565  0.03915  1.0000
  O   O81       1.0  0.94399  0.23507  0.40889  1.0000
  O   O82       1.0  0.05601  0.23507  0.09111  1.0000
  O   O83       1.0  0.44399  0.73507  0.40889  1.0000
  O   O84       1.0  0.55601  0.73507  0.09111  1.0000
  O   O85       1.0  0.05601  0.76493  0.59111  1.0000
  O   O86       1.0  0.94399  0.76493  0.90889  1.0000
  O   O87       1.0  0.55601  0.26493  0.59111  1.0000
  O   O88       1.0  0.44399  0.26493  0.90889  1.0000
  O   O89       1.0  0.88925  0.43771  0.49250  1.0000
  O   O90       1.0  0.11075  0.43771  0.00750  1.0000
  O   O91       1.0  0.38925  0.93771  0.49250  1.0000
  O   O92       1.0  0.61075  0.93771  0.00750  1.0000
  O   O93       1.0  0.11075  0.56229  0.50750  1.0000
  O   O94       1.0  0.88925  0.56229  0.99250  1.0000
  O   O95       1.0  0.61075  0.06229  0.50750  1.0000
  O   O96       1.0  0.38925  0.06229  0.99250  1.0000
  Cd  Cd1       1.0  0.90232  0.34169  0.01612  1.0000
  Cd  Cd2       1.0  0.09768  0.34169  0.48388  1.0000
  Cd  Cd3       1.0  0.40232  0.84169  0.01612  1.0000
  Cd  Cd4       1.0  0.59768  0.84169  0.48388  1.0000
  Cd  Cd5       1.0  0.09768  0.65831  0.98388  1.0000
  Cd  Cd6       1.0  0.90232  0.65831  0.51612  1.0000
  Cd  Cd7       1.0  0.59768  0.15831  0.98388  1.0000
  Cd  Cd8       1.0  0.40232  0.15831  0.51612  1.0000
