data_image0
_chemical_formula_structural       Zn4O24C6H2C4H2C4H2C6H2C2H2C6H2C8
_chemical_formula_sum              "Zn4 O24 C36 H12"
_cell_length_a       9.47
_cell_length_b       12.351
_cell_length_c       13.575
_cell_angle_alpha    90
_cell_angle_beta     94.327
_cell_angle_gamma    90

_space_group_name_H-M_alt    "P 1"
_space_group_IT_number       1

loop_
  _space_group_symop_operation_xyz
  'x, y, z'

loop_
  _atom_site_type_symbol
  _atom_site_label
  _atom_site_symmetry_multiplicity
  _atom_site_fract_x
  _atom_site_fract_y
  _atom_site_fract_z
  _atom_site_occupancy
  Zn  Zn1       1.0  0.89147  0.67955  0.05911  1.0000
  Zn  Zn2       1.0  0.39147  0.32045  0.55911  1.0000
  Zn  Zn3       1.0  0.62372  0.81579  0.17921  1.0000
  Zn  Zn4       1.0  0.12372  0.18421  0.67921  1.0000
  O   O1        1.0  0.95140  0.81180  0.13360  1.0000
  O   O2        1.0  0.45140  0.18820  0.63360  1.0000
  O   O3        1.0  0.80700  0.81390  0.25670  1.0000
  O   O4        1.0  0.30700  0.18610  0.75670  1.0000
  O   O5        1.0  0.86060  0.56250  0.14960  1.0000
  O   O6        1.0  0.36060  0.43750  0.64960  1.0000
  O   O7        1.0  0.07190  0.59420  0.22540  1.0000
  O   O8        1.0  0.57190  0.40580  0.72540  1.0000
  O   O9        1.0  0.20690  0.31610  0.48600  1.0000
  O   O10       1.0  0.70690  0.68390  0.98600  1.0000
  O   O11       1.0  0.06330  0.31920  0.61130  1.0000
  O   O12       1.0  0.56330  0.68080  0.11130  1.0000
  O   O13       1.0  0.16080  0.07460  0.58350  1.0000
  O   O14       1.0  0.66080  0.92540  0.08350  1.0000
  O   O15       1.0  0.95020  0.11400  0.50570  1.0000
  O   O16       1.0  0.45020  0.88600  0.00570  1.0000
  O   O17       1.0  0.46230  0.82330  0.25830  1.0000
  O   O18       1.0  0.96230  0.17670  0.75830  1.0000
  O   O19       1.0  0.52410  0.97920  0.33230  1.0000
  O   O20       1.0  0.02410  0.02080  0.83230  1.0000
  O   O21       1.0  0.55290  0.31600  0.48090  1.0000
  O   O22       1.0  0.05290  0.68400  0.98090  1.0000
  O   O23       1.0  0.48550  0.44360  0.37140  1.0000
  O   O24       1.0  0.98550  0.55640  0.87140  1.0000
  C   C1        1.0  0.92350  0.83270  0.22080  1.0000
  C   C2        1.0  0.42350  0.16730  0.72080  1.0000
  C   C3        1.0  0.03660  0.88430  0.28780  1.0000
  C   C4        1.0  0.53660  0.11570  0.78780  1.0000
  C   C5        1.0  0.17710  0.87230  0.26830  1.0000
  C   C6        1.0  0.67710  0.12770  0.76830  1.0000
  H   H1        1.0  0.20110  0.83070  0.21320  1.0000
  H   H2        1.0  0.70110  0.16930  0.71320  1.0000
  C   C7        1.0  0.28360  0.92130  0.32970  1.0000
  C   C8        1.0  0.78360  0.07870  0.82970  1.0000
  C   C9        1.0  0.24610  0.98360  0.40800  1.0000
  C   C10       1.0  0.74610  0.01640  0.90800  1.0000
  H   H3        1.0  0.31770  0.01860  0.44920  1.0000
  H   H4        1.0  0.81770  0.98140  0.94920  1.0000
  C   C11       1.0  0.10590  0.99590  0.42710  1.0000
  C   C12       1.0  0.60590  0.00410  0.92710  1.0000
  C   C13       1.0  0.99970  0.94600  0.36660  1.0000
  C   C14       1.0  0.49970  0.05400  0.86660  1.0000
  H   H5        1.0  0.90310  0.95440  0.37950  1.0000
  H   H6        1.0  0.40310  0.04560  0.87950  1.0000
  C   C15       1.0  0.95300  0.55240  0.22130  1.0000
  C   C16       1.0  0.45300  0.44760  0.72130  1.0000
  C   C17       1.0  0.91200  0.48370  0.30480  1.0000
  C   C18       1.0  0.41200  0.51630  0.80480  1.0000
  C   C19       1.0  0.76840  0.46370  0.31790  1.0000
  C   C20       1.0  0.26840  0.53630  0.81790  1.0000
  H   H7        1.0  0.69680  0.48990  0.27100  1.0000
  H   H8        1.0  0.19680  0.51010  0.77100  1.0000
  C   C21       1.0  0.01300  0.44150  0.37230  1.0000
  C   C22       1.0  0.51300  0.55850  0.87230  1.0000
  H   H9        1.0  0.11020  0.45290  0.36280  1.0000
  H   H10       1.0  0.61020  0.54710  0.86280  1.0000
  C   C23       1.0  0.09040  0.33630  0.52310  1.0000
  C   C24       1.0  0.59040  0.66370  0.02310  1.0000
  C   C25       1.0  0.97700  0.38300  0.45350  1.0000
  C   C26       1.0  0.47700  0.61700  0.95350  1.0000
  C   C27       1.0  0.83410  0.36600  0.46840  1.0000
  C   C28       1.0  0.33410  0.63400  0.96840  1.0000
  H   H11       1.0  0.80790  0.32800  0.52510  1.0000
  H   H12       1.0  0.30790  0.67200  0.02510  1.0000
  C   C29       1.0  0.73170  0.40510  0.40000  1.0000
  C   C30       1.0  0.23170  0.59490  0.90000  1.0000
  C   C31       1.0  0.06500  0.06580  0.51060  1.0000
  C   C32       1.0  0.56500  0.93420  0.01060  1.0000
  C   C33       1.0  0.43540  0.91000  0.30650  1.0000
  C   C34       1.0  0.93540  0.09000  0.80650  1.0000
  C   C35       1.0  0.57610  0.38910  0.41690  1.0000
  C   C36       1.0  0.07610  0.61090  0.91690  1.0000
