data_image0
_chemical_formula_structural       U32O256C16H16C16H16C16H16C16H24C16H24C16H24C16H16C16H16C16H16C16H24C16H24C16H24C16H16C16H16C16H16C16H24C16H24C16H24C16H16C16H16C16H16C16H24C16H24C16H24
_chemical_formula_sum              "U32 O256 C384 H480"
_cell_length_a       28.472
_cell_length_b       25.8269
_cell_length_c       35.2019
_cell_angle_alpha    90
_cell_angle_beta     90
_cell_angle_gamma    90

_space_group_name_H-M_alt    "P 1"
_space_group_IT_number       1

loop_
  _space_group_symop_operation_xyz
  'x, y, z'

loop_
  _atom_site_type_symbol
  _atom_site_label
  _atom_site_symmetry_multiplicity
  _atom_site_fract_x
  _atom_site_fract_y
  _atom_site_fract_z
  _atom_site_occupancy
  U   U1        1.0  0.53172  0.82698  0.73148  1.0000
  U   U2        1.0  0.96828  0.17302  0.23148  1.0000
  U   U3        1.0  0.46828  0.32698  0.76852  1.0000
  U   U4        1.0  0.03172  0.67302  0.26852  1.0000
  U   U5        1.0  0.46828  0.17302  0.26852  1.0000
  U   U6        1.0  0.03172  0.82698  0.76852  1.0000
  U   U7        1.0  0.53172  0.67302  0.23148  1.0000
  U   U8        1.0  0.96828  0.32698  0.73148  1.0000
  U   U9        1.0  0.77832  0.70387  0.84261  1.0000
  U   U10       1.0  0.72168  0.29613  0.34261  1.0000
  U   U11       1.0  0.22168  0.20387  0.65739  1.0000
  U   U12       1.0  0.27832  0.79613  0.15739  1.0000
  U   U13       1.0  0.22168  0.29613  0.15739  1.0000
  U   U14       1.0  0.27832  0.70387  0.65739  1.0000
  U   U15       1.0  0.77832  0.79613  0.34261  1.0000
  U   U16       1.0  0.72168  0.20387  0.84261  1.0000
  U   U17       1.0  0.51511  0.68909  0.97848  1.0000
  U   U18       1.0  0.98489  0.31091  0.47848  1.0000
  U   U19       1.0  0.48489  0.18909  0.52152  1.0000
  U   U20       1.0  0.01511  0.81091  0.02152  1.0000
  U   U21       1.0  0.48489  0.31091  0.02152  1.0000
  U   U22       1.0  0.01511  0.68909  0.52152  1.0000
  U   U23       1.0  0.51511  0.81091  0.47848  1.0000
  U   U24       1.0  0.98489  0.18909  0.97848  1.0000
  U   U25       1.0  0.28790  0.87482  0.90342  1.0000
  U   U26       1.0  0.21210  0.12518  0.40342  1.0000
  U   U27       1.0  0.71210  0.37482  0.59658  1.0000
  U   U28       1.0  0.78790  0.62518  0.09658  1.0000
  U   U29       1.0  0.71210  0.12518  0.09658  1.0000
  U   U30       1.0  0.78790  0.87482  0.59658  1.0000
  U   U31       1.0  0.28790  0.62518  0.40342  1.0000
  U   U32       1.0  0.21210  0.37482  0.90342  1.0000
  O   O1        1.0  0.56672  0.88382  0.72980  1.0000
  O   O2        1.0  0.93328  0.11618  0.22980  1.0000
  O   O3        1.0  0.43328  0.38382  0.77020  1.0000
  O   O4        1.0  0.06672  0.61618  0.27020  1.0000
  O   O5        1.0  0.43328  0.11618  0.27020  1.0000
  O   O6        1.0  0.06672  0.88382  0.77020  1.0000
  O   O7        1.0  0.56672  0.61618  0.22980  1.0000
  O   O8        1.0  0.93328  0.38382  0.72980  1.0000
  O   O9        1.0  0.49648  0.77128  0.73315  1.0000
  O   O10       1.0  0.00352  0.22872  0.23315  1.0000
  O   O11       1.0  0.50352  0.27128  0.76685  1.0000
  O   O12       1.0  0.99648  0.72872  0.26685  1.0000
  O   O13       1.0  0.50352  0.22872  0.26685  1.0000
  O   O14       1.0  0.99648  0.77128  0.76685  1.0000
  O   O15       1.0  0.49648  0.72872  0.23315  1.0000
  O   O16       1.0  0.00352  0.27128  0.73315  1.0000
  O   O17       1.0  0.72476  0.73814  0.84705  1.0000
  O   O18       1.0  0.77524  0.26186  0.34705  1.0000
  O   O19       1.0  0.27524  0.23814  0.65295  1.0000
  O   O20       1.0  0.22476  0.76186  0.15295  1.0000
  O   O21       1.0  0.27524  0.26186  0.15295  1.0000
  O   O22       1.0  0.22476  0.73814  0.65295  1.0000
  O   O23       1.0  0.72476  0.76186  0.34705  1.0000
  O   O24       1.0  0.77524  0.23814  0.84705  1.0000
  O   O25       1.0  0.83154  0.66853  0.83815  1.0000
  O   O26       1.0  0.66846  0.33147  0.33815  1.0000
  O   O27       1.0  0.16846  0.16853  0.66185  1.0000
  O   O28       1.0  0.33154  0.83147  0.16185  1.0000
  O   O29       1.0  0.16846  0.33147  0.16185  1.0000
  O   O30       1.0  0.33154  0.66853  0.66185  1.0000
  O   O31       1.0  0.83154  0.83147  0.33815  1.0000
  O   O32       1.0  0.66846  0.16853  0.83815  1.0000
  O   O33       1.0  0.54985  0.72780  0.00821  1.0000
  O   O34       1.0  0.95015  0.27220  0.50821  1.0000
  O   O35       1.0  0.45015  0.22780  0.49179  1.0000
  O   O36       1.0  0.04985  0.77220  0.99179  1.0000
  O   O37       1.0  0.45015  0.27220  0.99179  1.0000
  O   O38       1.0  0.04985  0.72780  0.49179  1.0000
  O   O39       1.0  0.54985  0.77220  0.50821  1.0000
  O   O40       1.0  0.95015  0.22780  0.00821  1.0000
  O   O41       1.0  0.48008  0.65144  0.94757  1.0000
  O   O42       1.0  0.01992  0.34856  0.44757  1.0000
  O   O43       1.0  0.51992  0.15144  0.55243  1.0000
  O   O44       1.0  0.98008  0.84856  0.05243  1.0000
  O   O45       1.0  0.51992  0.34856  0.05243  1.0000
  O   O46       1.0  0.98008  0.65144  0.55243  1.0000
  O   O47       1.0  0.48008  0.84856  0.44757  1.0000
  O   O48       1.0  0.01992  0.15144  0.94757  1.0000
  O   O49       1.0  0.26109  0.92254  0.87505  1.0000
  O   O50       1.0  0.23891  0.07746  0.37505  1.0000
  O   O51       1.0  0.73891  0.42254  0.62495  1.0000
  O   O52       1.0  0.76109  0.57746  0.12495  1.0000
  O   O53       1.0  0.73891  0.07746  0.12495  1.0000
  O   O54       1.0  0.76109  0.92254  0.62495  1.0000
  O   O55       1.0  0.26109  0.57746  0.37505  1.0000
  O   O56       1.0  0.23891  0.42254  0.87505  1.0000
  O   O57       1.0  0.31514  0.82606  0.93131  1.0000
  O   O58       1.0  0.18486  0.17394  0.43131  1.0000
  O   O59       1.0  0.68486  0.32606  0.56869  1.0000
  O   O60       1.0  0.81514  0.67394  0.06869  1.0000
  O   O61       1.0  0.68486  0.17394  0.06869  1.0000
  O   O62       1.0  0.81514  0.82606  0.56869  1.0000
  O   O63       1.0  0.31514  0.67394  0.43131  1.0000
  O   O64       1.0  0.18486  0.32606  0.93131  1.0000
  O   O65       1.0  0.58270  0.78099  0.68757  1.0000
  O   O66       1.0  0.91730  0.21901  0.18757  1.0000
  O   O67       1.0  0.41730  0.28099  0.81243  1.0000
  O   O68       1.0  0.08270  0.71901  0.31243  1.0000
  O   O69       1.0  0.41730  0.21901  0.31243  1.0000
  O   O70       1.0  0.08270  0.78099  0.81243  1.0000
  O   O71       1.0  0.58270  0.71901  0.18757  1.0000
  O   O72       1.0  0.91730  0.28099  0.68757  1.0000
  O   O73       1.0  0.60214  0.77379  0.74737  1.0000
  O   O74       1.0  0.89786  0.22621  0.24737  1.0000
  O   O75       1.0  0.39786  0.27379  0.75263  1.0000
  O   O76       1.0  0.10214  0.72621  0.25263  1.0000
  O   O77       1.0  0.39786  0.22621  0.25263  1.0000
  O   O78       1.0  0.10214  0.77379  0.75263  1.0000
  O   O79       1.0  0.60214  0.72621  0.24737  1.0000
  O   O80       1.0  0.89786  0.27379  0.74737  1.0000
  O   O81       1.0  0.77927  0.73411  0.77541  1.0000
  O   O82       1.0  0.72073  0.26589  0.27541  1.0000
  O   O83       1.0  0.22073  0.23411  0.72459  1.0000
  O   O84       1.0  0.27927  0.76589  0.22459  1.0000
  O   O85       1.0  0.22073  0.26589  0.22459  1.0000
  O   O86       1.0  0.27927  0.73411  0.72459  1.0000
  O   O87       1.0  0.77927  0.76589  0.27541  1.0000
  O   O88       1.0  0.72073  0.23411  0.77541  1.0000
  O   O89       1.0  0.74835  0.65890  0.78700  1.0000
  O   O90       1.0  0.75165  0.34110  0.28700  1.0000
  O   O91       1.0  0.25165  0.15890  0.71300  1.0000
  O   O92       1.0  0.24835  0.84110  0.21300  1.0000
  O   O93       1.0  0.25165  0.34110  0.21300  1.0000
  O   O94       1.0  0.24835  0.65890  0.71300  1.0000
  O   O95       1.0  0.74835  0.84110  0.28700  1.0000
  O   O96       1.0  0.75165  0.15890  0.78700  1.0000
  O   O97       1.0  0.78799  0.81409  0.65170  1.0000
  O   O98       1.0  0.71201  0.18591  0.15170  1.0000
  O   O99       1.0  0.21201  0.31409  0.84830  1.0000
  O   O100      1.0  0.28799  0.68591  0.34830  1.0000
  O   O101      1.0  0.21201  0.18591  0.34830  1.0000
  O   O102      1.0  0.28799  0.81409  0.84830  1.0000
  O   O103      1.0  0.78799  0.68591  0.15170  1.0000
  O   O104      1.0  0.71201  0.31409  0.65170  1.0000
  O   O105      1.0  0.72707  0.81358  0.61449  1.0000
  O   O106      1.0  0.77293  0.18642  0.11449  1.0000
  O   O107      1.0  0.27293  0.31358  0.88551  1.0000
  O   O108      1.0  0.22707  0.68642  0.38551  1.0000
  O   O109      1.0  0.27293  0.18642  0.38551  1.0000
  O   O110      1.0  0.22707  0.81358  0.88551  1.0000
  O   O111      1.0  0.72707  0.68642  0.11449  1.0000
  O   O112      1.0  0.77293  0.31358  0.61449  1.0000
  O   O113      1.0  0.73603  0.62484  0.85963  1.0000
  O   O114      1.0  0.76397  0.37516  0.35963  1.0000
  O   O115      1.0  0.26397  0.12484  0.64037  1.0000
  O   O116      1.0  0.23603  0.87516  0.14037  1.0000
  O   O117      1.0  0.26397  0.37516  0.14037  1.0000
  O   O118      1.0  0.23603  0.62484  0.64037  1.0000
  O   O119      1.0  0.73603  0.87516  0.35963  1.0000
  O   O120      1.0  0.76397  0.12484  0.85963  1.0000
  O   O121      1.0  0.76848  0.66629  0.90654  1.0000
  O   O122      1.0  0.73152  0.33371  0.40654  1.0000
  O   O123      1.0  0.23152  0.16629  0.59346  1.0000
  O   O124      1.0  0.26848  0.83371  0.09346  1.0000
  O   O125      1.0  0.23152  0.33371  0.09346  1.0000
  O   O126      1.0  0.26848  0.66629  0.59346  1.0000
  O   O127      1.0  0.76848  0.83371  0.40654  1.0000
  O   O128      1.0  0.73152  0.16629  0.90654  1.0000
  O   O129      1.0  0.56532  0.61269  0.98772  1.0000
  O   O130      1.0  0.93468  0.38731  0.48772  1.0000
  O   O131      1.0  0.43468  0.11269  0.51228  1.0000
  O   O132      1.0  0.06532  0.88731  0.01228  1.0000
  O   O133      1.0  0.43468  0.38731  0.01228  1.0000
  O   O134      1.0  0.06532  0.61269  0.51228  1.0000
  O   O135      1.0  0.56532  0.88731  0.48772  1.0000
  O   O136      1.0  0.93468  0.11269  0.98772  1.0000
  O   O137      1.0  0.58736  0.66586  0.94303  1.0000
  O   O138      1.0  0.91264  0.33414  0.44303  1.0000
  O   O139      1.0  0.41264  0.16586  0.55697  1.0000
  O   O140      1.0  0.08736  0.83414  0.05697  1.0000
  O   O141      1.0  0.41264  0.33414  0.05697  1.0000
  O   O142      1.0  0.08736  0.66586  0.55697  1.0000
  O   O143      1.0  0.58736  0.83414  0.44303  1.0000
  O   O144      1.0  0.91264  0.16586  0.94303  1.0000
  O   O145      1.0  0.72161  0.62568  0.05183  1.0000
  O   O146      1.0  0.77839  0.37432  0.55183  1.0000
  O   O147      1.0  0.27839  0.12568  0.44817  1.0000
  O   O148      1.0  0.22161  0.87432  0.94817  1.0000
  O   O149      1.0  0.27839  0.37432  0.94817  1.0000
  O   O150      1.0  0.22161  0.62568  0.44817  1.0000
  O   O151      1.0  0.72161  0.87432  0.55183  1.0000
  O   O152      1.0  0.77839  0.12568  0.05183  1.0000
  O   O153      1.0  0.77781  0.57008  0.04050  1.0000
  O   O154      1.0  0.72219  0.42992  0.54050  1.0000
  O   O155      1.0  0.22219  0.07008  0.45950  1.0000
  O   O156      1.0  0.27781  0.92992  0.95950  1.0000
  O   O157      1.0  0.22219  0.42992  0.95950  1.0000
  O   O158      1.0  0.27781  0.57008  0.45950  1.0000
  O   O159      1.0  0.77781  0.92992  0.54050  1.0000
  O   O160      1.0  0.72219  0.07008  0.04050  1.0000
  O   O161      1.0  0.54665  0.82423  0.80069  1.0000
  O   O162      1.0  0.95335  0.17577  0.30069  1.0000
  O   O163      1.0  0.45335  0.32423  0.69931  1.0000
  O   O164      1.0  0.04665  0.67577  0.19931  1.0000
  O   O165      1.0  0.45335  0.17577  0.19931  1.0000
  O   O166      1.0  0.04665  0.82423  0.69931  1.0000
  O   O167      1.0  0.54665  0.67577  0.30069  1.0000
  O   O168      1.0  0.95335  0.32423  0.80069  1.0000
  O   O169      1.0  0.48401  0.86488  0.78236  1.0000
  O   O170      1.0  0.01599  0.13512  0.28236  1.0000
  O   O171      1.0  0.51599  0.36488  0.71764  1.0000
  O   O172      1.0  0.98401  0.63512  0.21764  1.0000
  O   O173      1.0  0.51599  0.13512  0.21764  1.0000
  O   O174      1.0  0.98401  0.86488  0.71764  1.0000
  O   O175      1.0  0.48401  0.63512  0.28236  1.0000
  O   O176      1.0  0.01599  0.36488  0.78236  1.0000
  O   O177      1.0  0.52985  0.74956  0.92681  1.0000
  O   O178      1.0  0.97015  0.25044  0.42681  1.0000
  O   O179      1.0  0.47015  0.24956  0.57319  1.0000
  O   O180      1.0  0.02985  0.75044  0.07319  1.0000
  O   O181      1.0  0.47015  0.25044  0.07319  1.0000
  O   O182      1.0  0.02985  0.74956  0.57319  1.0000
  O   O183      1.0  0.52985  0.75044  0.42681  1.0000
  O   O184      1.0  0.97015  0.24956  0.92681  1.0000
  O   O185      1.0  0.46855  0.76754  0.96154  1.0000
  O   O186      1.0  0.03145  0.23246  0.46154  1.0000
  O   O187      1.0  0.53145  0.26754  0.53846  1.0000
  O   O188      1.0  0.96855  0.73246  0.03846  1.0000
  O   O189      1.0  0.53145  0.23246  0.03846  1.0000
  O   O190      1.0  0.96855  0.76754  0.53846  1.0000
  O   O191      1.0  0.46855  0.73246  0.46154  1.0000
  O   O192      1.0  0.03145  0.26754  0.96154  1.0000
  O   O193      1.0  0.35891  0.92800  0.91639  1.0000
  O   O194      1.0  0.14109  0.07200  0.41639  1.0000
  O   O195      1.0  0.64109  0.42800  0.58361  1.0000
  O   O196      1.0  0.85891  0.57200  0.08361  1.0000
  O   O197      1.0  0.64109  0.07200  0.08361  1.0000
  O   O198      1.0  0.85891  0.92800  0.58361  1.0000
  O   O199      1.0  0.35891  0.57200  0.41639  1.0000
  O   O200      1.0  0.14109  0.42800  0.91639  1.0000
  O   O201      1.0  0.36041  0.87751  0.86654  1.0000
  O   O202      1.0  0.13959  0.12249  0.36654  1.0000
  O   O203      1.0  0.63959  0.37751  0.63346  1.0000
  O   O204      1.0  0.86041  0.62249  0.13346  1.0000
  O   O205      1.0  0.63959  0.12249  0.13346  1.0000
  O   O206      1.0  0.86041  0.87751  0.63346  1.0000
  O   O207      1.0  0.36041  0.62249  0.36654  1.0000
  O   O208      1.0  0.13959  0.37751  0.86654  1.0000
  O   O209      1.0  0.46441  0.87724  0.70736  1.0000
  O   O210      1.0  0.03559  0.12276  0.20736  1.0000
  O   O211      1.0  0.53559  0.37724  0.79264  1.0000
  O   O212      1.0  0.96441  0.62276  0.29264  1.0000
  O   O213      1.0  0.53559  0.12276  0.29264  1.0000
  O   O214      1.0  0.96441  0.87724  0.79264  1.0000
  O   O215      1.0  0.46441  0.62276  0.20736  1.0000
  O   O216      1.0  0.03559  0.37724  0.70736  1.0000
  O   O217      1.0  0.50923  0.84190  0.66484  1.0000
  O   O218      1.0  0.99077  0.15810  0.16484  1.0000
  O   O219      1.0  0.49077  0.34190  0.83516  1.0000
  O   O220      1.0  0.00923  0.65810  0.33516  1.0000
  O   O221      1.0  0.49077  0.15810  0.33516  1.0000
  O   O222      1.0  0.00923  0.84190  0.83516  1.0000
  O   O223      1.0  0.50923  0.65810  0.16484  1.0000
  O   O224      1.0  0.99077  0.34190  0.66484  1.0000
  O   O225      1.0  0.31458  0.75751  0.60701  1.0000
  O   O226      1.0  0.18542  0.24249  0.10701  1.0000
  O   O227      1.0  0.68542  0.25751  0.89299  1.0000
  O   O228      1.0  0.81458  0.74249  0.39299  1.0000
  O   O229      1.0  0.68542  0.24249  0.39299  1.0000
  O   O230      1.0  0.81458  0.75751  0.89299  1.0000
  O   O231      1.0  0.31458  0.74249  0.10701  1.0000
  O   O232      1.0  0.18542  0.25751  0.60701  1.0000
  O   O233      1.0  0.32265  0.78299  0.66573  1.0000
  O   O234      1.0  0.17735  0.21701  0.16573  1.0000
  O   O235      1.0  0.67735  0.28299  0.83427  1.0000
  O   O236      1.0  0.82265  0.71701  0.33427  1.0000
  O   O237      1.0  0.67735  0.21701  0.33427  1.0000
  O   O238      1.0  0.82265  0.78299  0.83427  1.0000
  O   O239      1.0  0.32265  0.71701  0.16573  1.0000
  O   O240      1.0  0.17735  0.28299  0.66573  1.0000
  O   O241      1.0  0.44487  0.80021  0.51989  1.0000
  O   O242      1.0  0.05513  0.19979  0.01989  1.0000
  O   O243      1.0  0.55513  0.30021  0.98011  1.0000
  O   O244      1.0  0.94487  0.69979  0.48011  1.0000
  O   O245      1.0  0.55513  0.19979  0.48011  1.0000
  O   O246      1.0  0.94487  0.80021  0.98011  1.0000
  O   O247      1.0  0.44487  0.69979  0.01989  1.0000
  O   O248      1.0  0.05513  0.30021  0.51989  1.0000
  O   O249      1.0  0.49223  0.86475  0.53082  1.0000
  O   O250      1.0  0.00777  0.13525  0.03082  1.0000
  O   O251      1.0  0.50777  0.36475  0.96918  1.0000
  O   O252      1.0  0.99223  0.63525  0.46918  1.0000
  O   O253      1.0  0.50777  0.13525  0.46918  1.0000
  O   O254      1.0  0.99223  0.86475  0.96918  1.0000
  O   O255      1.0  0.49223  0.63525  0.03082  1.0000
  O   O256      1.0  0.00777  0.36475  0.53082  1.0000
  C   C1        1.0  0.65084  0.72860  0.70028  1.0000
  C   C2        1.0  0.84916  0.27140  0.20028  1.0000
  C   C3        1.0  0.34916  0.22860  0.79972  1.0000
  C   C4        1.0  0.15084  0.77140  0.29972  1.0000
  C   C5        1.0  0.34916  0.27140  0.29972  1.0000
  C   C6        1.0  0.15084  0.72860  0.79972  1.0000
  C   C7        1.0  0.65084  0.77140  0.20028  1.0000
  C   C8        1.0  0.84916  0.22860  0.70028  1.0000
  C   C9        1.0  0.68150  0.71510  0.73452  1.0000
  C   C10       1.0  0.81850  0.28490  0.23452  1.0000
  C   C11       1.0  0.31850  0.21510  0.76548  1.0000
  C   C12       1.0  0.18150  0.78490  0.26548  1.0000
  C   C13       1.0  0.31850  0.28490  0.26548  1.0000
  C   C14       1.0  0.18150  0.71510  0.76548  1.0000
  C   C15       1.0  0.68150  0.78490  0.23452  1.0000
  C   C16       1.0  0.81850  0.21510  0.73452  1.0000
  H   H1        1.0  0.66517  0.68830  0.74967  1.0000
  H   H2        1.0  0.83483  0.31170  0.24967  1.0000
  H   H3        1.0  0.33483  0.18830  0.75033  1.0000
  H   H4        1.0  0.16517  0.81170  0.25033  1.0000
  H   H5        1.0  0.33483  0.31170  0.25033  1.0000
  H   H6        1.0  0.16517  0.68830  0.75033  1.0000
  H   H7        1.0  0.66517  0.81170  0.24967  1.0000
  H   H8        1.0  0.83483  0.18830  0.74967  1.0000
  H   H9        1.0  0.68448  0.74631  0.75067  1.0000
  H   H10       1.0  0.81552  0.25369  0.25067  1.0000
  H   H11       1.0  0.31552  0.24631  0.74933  1.0000
  H   H12       1.0  0.18448  0.75369  0.24933  1.0000
  H   H13       1.0  0.31552  0.25369  0.24933  1.0000
  H   H14       1.0  0.18448  0.74631  0.74933  1.0000
  H   H15       1.0  0.68448  0.75369  0.25067  1.0000
  H   H16       1.0  0.81552  0.24631  0.75067  1.0000
  C   C17       1.0  0.73220  0.69490  0.72496  1.0000
  C   C18       1.0  0.76780  0.30510  0.22496  1.0000
  C   C19       1.0  0.26780  0.19490  0.77504  1.0000
  C   C20       1.0  0.23220  0.80510  0.27504  1.0000
  C   C21       1.0  0.26780  0.30510  0.27504  1.0000
  C   C22       1.0  0.23220  0.69490  0.77504  1.0000
  C   C23       1.0  0.73220  0.80510  0.22496  1.0000
  C   C24       1.0  0.76780  0.19490  0.72496  1.0000
  C   C25       1.0  0.75674  0.73330  0.69805  1.0000
  C   C26       1.0  0.74326  0.26670  0.19805  1.0000
  C   C27       1.0  0.24326  0.23330  0.80195  1.0000
  C   C28       1.0  0.25674  0.76670  0.30195  1.0000
  C   C29       1.0  0.24326  0.26670  0.30195  1.0000
  C   C30       1.0  0.25674  0.73330  0.80195  1.0000
  C   C31       1.0  0.75674  0.76670  0.19805  1.0000
  C   C32       1.0  0.74326  0.23330  0.69805  1.0000
  H   H17       1.0  0.78762  0.71882  0.69073  1.0000
  H   H18       1.0  0.71238  0.28118  0.19073  1.0000
  H   H19       1.0  0.21238  0.21882  0.80927  1.0000
  H   H20       1.0  0.28762  0.78118  0.30927  1.0000
  H   H21       1.0  0.21238  0.28118  0.30927  1.0000
  H   H22       1.0  0.28762  0.71882  0.80927  1.0000
  H   H23       1.0  0.78762  0.78118  0.19073  1.0000
  H   H24       1.0  0.71238  0.21882  0.69073  1.0000
  H   H25       1.0  0.76261  0.76597  0.71204  1.0000
  H   H26       1.0  0.73739  0.23403  0.21204  1.0000
  H   H27       1.0  0.23739  0.26597  0.78796  1.0000
  H   H28       1.0  0.26261  0.73403  0.28796  1.0000
  H   H29       1.0  0.23739  0.23403  0.28796  1.0000
  H   H30       1.0  0.26261  0.76597  0.78796  1.0000
  H   H31       1.0  0.76261  0.73403  0.21204  1.0000
  H   H32       1.0  0.73739  0.26597  0.71204  1.0000
  C   C33       1.0  0.72887  0.74610  0.66150  1.0000
  C   C34       1.0  0.77113  0.25390  0.16150  1.0000
  C   C35       1.0  0.27113  0.24610  0.83850  1.0000
  C   C36       1.0  0.22887  0.75390  0.33850  1.0000
  C   C37       1.0  0.27113  0.25390  0.33850  1.0000
  C   C38       1.0  0.22887  0.74610  0.83850  1.0000
  C   C39       1.0  0.72887  0.75390  0.16150  1.0000
  C   C40       1.0  0.77113  0.24610  0.66150  1.0000
  C   C41       1.0  0.67828  0.76330  0.67232  1.0000
  C   C42       1.0  0.82172  0.23670  0.17232  1.0000
  C   C43       1.0  0.32172  0.26330  0.82768  1.0000
  C   C44       1.0  0.17828  0.73670  0.32768  1.0000
  C   C45       1.0  0.32172  0.23670  0.32768  1.0000
  C   C46       1.0  0.17828  0.76330  0.82768  1.0000
  C   C47       1.0  0.67828  0.73670  0.17232  1.0000
  C   C48       1.0  0.82172  0.26330  0.67232  1.0000
  H   H33       1.0  0.68017  0.79844  0.68340  1.0000
  H   H34       1.0  0.81983  0.20156  0.18340  1.0000
  H   H35       1.0  0.31983  0.29844  0.81660  1.0000
  H   H36       1.0  0.18017  0.70156  0.31660  1.0000
  H   H37       1.0  0.31983  0.20156  0.31660  1.0000
  H   H38       1.0  0.18017  0.79844  0.81660  1.0000
  H   H39       1.0  0.68017  0.70156  0.18340  1.0000
  H   H40       1.0  0.81983  0.29844  0.68340  1.0000
  H   H41       1.0  0.65972  0.76598  0.64862  1.0000
  H   H42       1.0  0.84028  0.23402  0.14862  1.0000
  H   H43       1.0  0.34028  0.26598  0.85138  1.0000
  H   H44       1.0  0.15972  0.73402  0.35138  1.0000
  H   H45       1.0  0.34028  0.23402  0.35138  1.0000
  H   H46       1.0  0.15972  0.76598  0.85138  1.0000
  H   H47       1.0  0.65972  0.73402  0.14862  1.0000
  H   H48       1.0  0.84028  0.26598  0.64862  1.0000
  C   C49       1.0  0.60960  0.76270  0.71318  1.0000
  C   C50       1.0  0.89040  0.23730  0.21318  1.0000
  C   C51       1.0  0.39040  0.26270  0.78682  1.0000
  C   C52       1.0  0.10960  0.73730  0.28682  1.0000
  C   C53       1.0  0.39040  0.23730  0.28682  1.0000
  C   C54       1.0  0.10960  0.76270  0.78682  1.0000
  C   C55       1.0  0.60960  0.73730  0.21318  1.0000
  C   C56       1.0  0.89040  0.26270  0.71318  1.0000
  C   C57       1.0  0.62780  0.68120  0.68179  1.0000
  C   C58       1.0  0.87220  0.31880  0.18179  1.0000
  C   C59       1.0  0.37220  0.18120  0.81821  1.0000
  C   C60       1.0  0.12780  0.81880  0.31821  1.0000
  C   C61       1.0  0.37220  0.31880  0.31821  1.0000
  C   C62       1.0  0.12780  0.68120  0.81821  1.0000
  C   C63       1.0  0.62780  0.81880  0.18179  1.0000
  C   C64       1.0  0.87220  0.18120  0.68179  1.0000
  H   H49       1.0  0.65221  0.65667  0.67392  1.0000
  H   H50       1.0  0.84779  0.34333  0.17392  1.0000
  H   H51       1.0  0.34779  0.15667  0.82608  1.0000
  H   H52       1.0  0.15221  0.84333  0.32608  1.0000
  H   H53       1.0  0.34779  0.34333  0.32608  1.0000
  H   H54       1.0  0.15221  0.65667  0.82608  1.0000
  H   H55       1.0  0.65221  0.84333  0.17392  1.0000
  H   H56       1.0  0.84779  0.15667  0.67392  1.0000
  H   H57       1.0  0.60973  0.69217  0.65952  1.0000
  H   H58       1.0  0.89027  0.30783  0.15952  1.0000
  H   H59       1.0  0.39027  0.19217  0.84048  1.0000
  H   H60       1.0  0.10973  0.80783  0.34048  1.0000
  H   H61       1.0  0.39027  0.30783  0.34048  1.0000
  H   H62       1.0  0.10973  0.69217  0.84048  1.0000
  H   H63       1.0  0.60973  0.80783  0.15952  1.0000
  H   H64       1.0  0.89027  0.19217  0.65952  1.0000
  H   H65       1.0  0.60682  0.66447  0.70011  1.0000
  H   H66       1.0  0.89318  0.33553  0.20011  1.0000
  H   H67       1.0  0.39318  0.16447  0.79989  1.0000
  H   H68       1.0  0.10682  0.83553  0.29989  1.0000
  H   H69       1.0  0.39318  0.33553  0.29989  1.0000
  H   H70       1.0  0.10682  0.66447  0.79989  1.0000
  H   H71       1.0  0.60682  0.83553  0.20011  1.0000
  H   H72       1.0  0.89318  0.16447  0.70011  1.0000
  C   C65       1.0  0.75592  0.69640  0.76405  1.0000
  C   C66       1.0  0.74408  0.30360  0.26405  1.0000
  C   C67       1.0  0.24408  0.19640  0.73595  1.0000
  C   C68       1.0  0.25592  0.80360  0.23595  1.0000
  C   C69       1.0  0.24408  0.30360  0.23595  1.0000
  C   C70       1.0  0.25592  0.69640  0.73595  1.0000
  C   C71       1.0  0.75592  0.80360  0.26405  1.0000
  C   C72       1.0  0.74408  0.19640  0.76405  1.0000
  C   C73       1.0  0.73410  0.63920  0.71194  1.0000
  C   C74       1.0  0.76590  0.36080  0.21194  1.0000
  C   C75       1.0  0.26590  0.13920  0.78806  1.0000
  C   C76       1.0  0.23410  0.86080  0.28806  1.0000
  C   C77       1.0  0.26590  0.36080  0.28806  1.0000
  C   C78       1.0  0.23410  0.63920  0.78806  1.0000
  C   C79       1.0  0.73410  0.86080  0.21194  1.0000
  C   C80       1.0  0.76590  0.13920  0.71194  1.0000
  H   H73       1.0  0.71878  0.63604  0.68713  1.0000
  H   H74       1.0  0.78122  0.36396  0.18713  1.0000
  H   H75       1.0  0.28122  0.13604  0.81287  1.0000
  H   H76       1.0  0.21878  0.86396  0.31287  1.0000
  H   H77       1.0  0.28122  0.36396  0.31287  1.0000
  H   H78       1.0  0.21878  0.63604  0.81287  1.0000
  H   H79       1.0  0.71878  0.86396  0.18713  1.0000
  H   H80       1.0  0.78122  0.13604  0.68713  1.0000
  H   H81       1.0  0.71787  0.61721  0.73044  1.0000
  H   H82       1.0  0.78213  0.38279  0.23044  1.0000
  H   H83       1.0  0.28213  0.11721  0.76956  1.0000
  H   H84       1.0  0.21787  0.88279  0.26956  1.0000
  H   H85       1.0  0.28213  0.38279  0.26956  1.0000
  H   H86       1.0  0.21787  0.61721  0.76956  1.0000
  H   H87       1.0  0.71787  0.88279  0.23044  1.0000
  H   H88       1.0  0.78213  0.11721  0.73044  1.0000
  H   H89       1.0  0.76696  0.62824  0.70982  1.0000
  H   H90       1.0  0.73304  0.37176  0.20982  1.0000
  H   H91       1.0  0.23304  0.12824  0.79018  1.0000
  H   H92       1.0  0.26696  0.87176  0.29018  1.0000
  H   H93       1.0  0.23304  0.37176  0.29018  1.0000
  H   H94       1.0  0.26696  0.62824  0.79018  1.0000
  H   H95       1.0  0.76696  0.87176  0.20982  1.0000
  H   H96       1.0  0.73304  0.12824  0.70982  1.0000
  C   C81       1.0  0.74901  0.79380  0.64199  1.0000
  C   C82       1.0  0.75099  0.20620  0.14199  1.0000
  C   C83       1.0  0.25099  0.29380  0.85801  1.0000
  C   C84       1.0  0.24901  0.70620  0.35801  1.0000
  C   C85       1.0  0.25099  0.20620  0.35801  1.0000
  C   C86       1.0  0.24901  0.79380  0.85801  1.0000
  C   C87       1.0  0.74901  0.70620  0.14199  1.0000
  C   C88       1.0  0.75099  0.29380  0.64199  1.0000
  C   C89       1.0  0.73100  0.70410  0.63137  1.0000
  C   C90       1.0  0.76900  0.29590  0.13137  1.0000
  C   C91       1.0  0.26900  0.20410  0.86863  1.0000
  C   C92       1.0  0.23100  0.79590  0.36863  1.0000
  C   C93       1.0  0.26900  0.29590  0.36863  1.0000
  C   C94       1.0  0.23100  0.70410  0.86863  1.0000
  C   C95       1.0  0.73100  0.79590  0.13137  1.0000
  C   C96       1.0  0.76900  0.20410  0.63137  1.0000
  H   H97       1.0  0.71184  0.67452  0.63936  1.0000
  H   H98       1.0  0.78816  0.32548  0.13936  1.0000
  H   H99       1.0  0.28816  0.17452  0.86064  1.0000
  H   H100      1.0  0.21184  0.82548  0.36064  1.0000
  H   H101      1.0  0.28816  0.32548  0.36064  1.0000
  H   H102      1.0  0.21184  0.67452  0.86064  1.0000
  H   H103      1.0  0.71184  0.82548  0.13936  1.0000
  H   H104      1.0  0.78816  0.17452  0.63936  1.0000
  H   H105      1.0  0.76367  0.69286  0.62803  1.0000
  H   H106      1.0  0.73633  0.30714  0.12803  1.0000
  H   H107      1.0  0.23633  0.19286  0.87197  1.0000
  H   H108      1.0  0.26367  0.80714  0.37197  1.0000
  H   H109      1.0  0.23633  0.30714  0.37197  1.0000
  H   H110      1.0  0.26367  0.69286  0.87197  1.0000
  H   H111      1.0  0.76367  0.80714  0.12803  1.0000
  H   H112      1.0  0.73633  0.19286  0.62803  1.0000
  H   H113      1.0  0.71902  0.71770  0.60728  1.0000
  H   H114      1.0  0.78098  0.28230  0.10728  1.0000
  H   H115      1.0  0.28098  0.21770  0.89272  1.0000
  H   H116      1.0  0.21902  0.78230  0.39272  1.0000
  H   H117      1.0  0.28098  0.28230  0.39272  1.0000
  H   H118      1.0  0.21902  0.71770  0.89272  1.0000
  H   H119      1.0  0.71902  0.78230  0.10728  1.0000
  H   H120      1.0  0.78098  0.21770  0.60728  1.0000
  C   C97       1.0  0.71931  0.59190  0.92233  1.0000
  C   C98       1.0  0.78069  0.40810  0.42233  1.0000
  C   C99       1.0  0.28069  0.09190  0.57767  1.0000
  C   C100      1.0  0.21931  0.90810  0.07767  1.0000
  C   C101      1.0  0.28069  0.40810  0.07767  1.0000
  C   C102      1.0  0.21931  0.59190  0.57767  1.0000
  C   C103      1.0  0.71931  0.90810  0.42233  1.0000
  C   C104      1.0  0.78069  0.09190  0.92233  1.0000
  C   C105      1.0  0.66860  0.61420  0.92493  1.0000
  C   C106      1.0  0.83140  0.38580  0.42493  1.0000
  C   C107      1.0  0.33140  0.11420  0.57507  1.0000
  C   C108      1.0  0.16860  0.88580  0.07507  1.0000
  C   C109      1.0  0.33140  0.38580  0.07507  1.0000
  C   C110      1.0  0.16860  0.61420  0.57507  1.0000
  C   C111      1.0  0.66860  0.88580  0.42493  1.0000
  C   C112      1.0  0.83140  0.11420  0.92493  1.0000
  H   H121      1.0  0.67082  0.65212  0.92883  1.0000
  H   H122      1.0  0.82918  0.34788  0.42883  1.0000
  H   H123      1.0  0.32918  0.15212  0.57117  1.0000
  H   H124      1.0  0.17082  0.84788  0.07117  1.0000
  H   H125      1.0  0.32918  0.34788  0.07117  1.0000
  H   H126      1.0  0.17082  0.65212  0.57117  1.0000
  H   H127      1.0  0.67082  0.84788  0.42883  1.0000
  H   H128      1.0  0.82918  0.15212  0.92883  1.0000
  H   H129      1.0  0.65273  0.60846  0.90026  1.0000
  H   H130      1.0  0.84727  0.39154  0.40026  1.0000
  H   H131      1.0  0.34727  0.10846  0.59974  1.0000
  H   H132      1.0  0.15273  0.89154  0.09974  1.0000
  H   H133      1.0  0.34727  0.39154  0.09974  1.0000
  H   H134      1.0  0.15273  0.60846  0.59974  1.0000
  H   H135      1.0  0.65273  0.89154  0.40026  1.0000
  H   H136      1.0  0.84727  0.10846  0.90026  1.0000
  C   C113      1.0  0.63785  0.59150  0.95639  1.0000
  C   C114      1.0  0.86215  0.40850  0.45639  1.0000
  C   C115      1.0  0.36215  0.09150  0.54361  1.0000
  C   C116      1.0  0.13785  0.90850  0.04361  1.0000
  C   C117      1.0  0.36215  0.40850  0.04361  1.0000
  C   C118      1.0  0.13785  0.59150  0.54361  1.0000
  C   C119      1.0  0.63785  0.90850  0.45639  1.0000
  C   C120      1.0  0.86215  0.09150  0.95639  1.0000
  C   C121      1.0  0.66375  0.59210  0.99498  1.0000
  C   C122      1.0  0.83625  0.40790  0.49498  1.0000
  C   C123      1.0  0.33625  0.09210  0.50502  1.0000
  C   C124      1.0  0.16375  0.90790  0.00502  1.0000
  C   C125      1.0  0.33625  0.40790  0.00502  1.0000
  C   C126      1.0  0.16375  0.59210  0.50502  1.0000
  C   C127      1.0  0.66375  0.90790  0.49498  1.0000
  C   C128      1.0  0.83625  0.09210  0.99498  1.0000
  H   H137      1.0  0.66482  0.62829  0.00422  1.0000
  H   H138      1.0  0.83518  0.37171  0.50422  1.0000
  H   H139      1.0  0.33518  0.12829  0.49578  1.0000
  H   H140      1.0  0.16482  0.87171  0.99578  1.0000
  H   H141      1.0  0.33518  0.37171  0.99578  1.0000
  H   H142      1.0  0.16482  0.62829  0.49578  1.0000
  H   H143      1.0  0.66482  0.87171  0.50422  1.0000
  H   H144      1.0  0.83518  0.12829  0.00422  1.0000
  H   H145      1.0  0.64496  0.57190  0.01343  1.0000
  H   H146      1.0  0.85504  0.42810  0.51343  1.0000
  H   H147      1.0  0.35504  0.07190  0.48657  1.0000
  H   H148      1.0  0.14496  0.92810  0.98657  1.0000
  H   H149      1.0  0.35504  0.42810  0.98657  1.0000
  H   H150      1.0  0.14496  0.57190  0.48657  1.0000
  H   H151      1.0  0.64496  0.92810  0.51343  1.0000
  H   H152      1.0  0.85504  0.07190  0.01343  1.0000
  C   C129      1.0  0.71410  0.57060  0.99500  1.0000
  C   C130      1.0  0.78590  0.42940  0.49500  1.0000
  C   C131      1.0  0.28590  0.07060  0.50500  1.0000
  C   C132      1.0  0.21410  0.92940  0.00500  1.0000
  C   C133      1.0  0.28590  0.42940  0.00500  1.0000
  C   C134      1.0  0.21410  0.57060  0.50500  1.0000
  C   C135      1.0  0.71410  0.92940  0.49500  1.0000
  C   C136      1.0  0.78590  0.07060  0.99500  1.0000
  C   C137      1.0  0.74251  0.59470  0.96196  1.0000
  C   C138      1.0  0.75749  0.40530  0.46196  1.0000
  C   C139      1.0  0.25749  0.09470  0.53804  1.0000
  C   C140      1.0  0.24251  0.90530  0.03804  1.0000
  C   C141      1.0  0.25749  0.40530  0.03804  1.0000
  C   C142      1.0  0.24251  0.59470  0.53804  1.0000
  C   C143      1.0  0.74251  0.90530  0.46196  1.0000
  C   C144      1.0  0.75749  0.09470  0.96196  1.0000
  H   H153      1.0  0.74848  0.63154  0.96805  1.0000
  H   H154      1.0  0.75152  0.36846  0.46805  1.0000
  H   H155      1.0  0.25152  0.13154  0.53195  1.0000
  H   H156      1.0  0.24848  0.86846  0.03195  1.0000
  H   H157      1.0  0.25152  0.36846  0.03195  1.0000
  H   H158      1.0  0.24848  0.63154  0.53195  1.0000
  H   H159      1.0  0.74848  0.86846  0.46805  1.0000
  H   H160      1.0  0.75152  0.13154  0.96805  1.0000
  H   H161      1.0  0.77336  0.57711  0.96062  1.0000
  H   H162      1.0  0.72664  0.42289  0.46062  1.0000
  H   H163      1.0  0.22664  0.07711  0.53938  1.0000
  H   H164      1.0  0.27336  0.92289  0.03938  1.0000
  H   H165      1.0  0.22664  0.42289  0.03938  1.0000
  H   H166      1.0  0.27336  0.57711  0.53938  1.0000
  H   H167      1.0  0.77336  0.92289  0.46062  1.0000
  H   H168      1.0  0.72664  0.07711  0.96062  1.0000
  C   C145      1.0  0.74330  0.62920  0.89526  1.0000
  C   C146      1.0  0.75670  0.37080  0.39526  1.0000
  C   C147      1.0  0.25670  0.12920  0.60474  1.0000
  C   C148      1.0  0.24330  0.87080  0.10474  1.0000
  C   C149      1.0  0.25670  0.37080  0.10474  1.0000
  C   C150      1.0  0.24330  0.62920  0.60474  1.0000
  C   C151      1.0  0.74330  0.87080  0.39526  1.0000
  C   C152      1.0  0.75670  0.12920  0.89526  1.0000
  C   C153      1.0  0.72260  0.53800  0.90367  1.0000
  C   C154      1.0  0.77740  0.46200  0.40367  1.0000
  C   C155      1.0  0.27740  0.03800  0.59633  1.0000
  C   C156      1.0  0.22260  0.96200  0.09633  1.0000
  C   C157      1.0  0.27740  0.46200  0.09633  1.0000
  C   C158      1.0  0.22260  0.53800  0.59633  1.0000
  C   C159      1.0  0.72260  0.96200  0.40367  1.0000
  C   C160      1.0  0.77740  0.03800  0.90367  1.0000
  H   H169      1.0  0.75517  0.53112  0.89627  1.0000
  H   H170      1.0  0.74483  0.46888  0.39627  1.0000
  H   H171      1.0  0.24483  0.03112  0.60373  1.0000
  H   H172      1.0  0.25517  0.96888  0.10373  1.0000
  H   H173      1.0  0.24483  0.46888  0.10373  1.0000
  H   H174      1.0  0.25517  0.53112  0.60373  1.0000
  H   H175      1.0  0.75517  0.96888  0.39627  1.0000
  H   H176      1.0  0.74483  0.03112  0.89627  1.0000
  H   H177      1.0  0.70245  0.53699  0.88110  1.0000
  H   H178      1.0  0.79755  0.46301  0.38110  1.0000
  H   H179      1.0  0.29755  0.03699  0.61890  1.0000
  H   H180      1.0  0.20245  0.96301  0.11890  1.0000
  H   H181      1.0  0.29755  0.46301  0.11890  1.0000
  H   H182      1.0  0.20245  0.53699  0.61890  1.0000
  H   H183      1.0  0.70245  0.96301  0.38110  1.0000
  H   H184      1.0  0.79755  0.03699  0.88110  1.0000
  H   H185      1.0  0.71219  0.51153  0.92179  1.0000
  H   H186      1.0  0.78781  0.48847  0.42179  1.0000
  H   H187      1.0  0.28781  0.01153  0.57821  1.0000
  H   H188      1.0  0.21219  0.98847  0.07821  1.0000
  H   H189      1.0  0.28781  0.48847  0.07821  1.0000
  H   H190      1.0  0.21219  0.51153  0.57821  1.0000
  H   H191      1.0  0.71219  0.98847  0.42179  1.0000
  H   H192      1.0  0.78781  0.01153  0.92179  1.0000
  C   C161      1.0  0.59471  0.62550  0.96252  1.0000
  C   C162      1.0  0.90529  0.37450  0.46252  1.0000
  C   C163      1.0  0.40529  0.12550  0.53748  1.0000
  C   C164      1.0  0.09471  0.87450  0.03748  1.0000
  C   C165      1.0  0.40529  0.37450  0.03748  1.0000
  C   C166      1.0  0.09471  0.62550  0.53748  1.0000
  C   C167      1.0  0.59471  0.87450  0.46252  1.0000
  C   C168      1.0  0.90529  0.12550  0.96252  1.0000
  C   C169      1.0  0.61814  0.53790  0.94594  1.0000
  C   C170      1.0  0.88186  0.46210  0.44594  1.0000
  C   C171      1.0  0.38186  0.03790  0.55406  1.0000
  C   C172      1.0  0.11814  0.96210  0.05406  1.0000
  C   C173      1.0  0.38186  0.46210  0.05406  1.0000
  C   C174      1.0  0.11814  0.53790  0.55406  1.0000
  C   C175      1.0  0.61814  0.96210  0.44594  1.0000
  C   C176      1.0  0.88186  0.03790  0.94594  1.0000
  H   H193      1.0  0.59876  0.54084  0.92303  1.0000
  H   H194      1.0  0.90124  0.45916  0.42303  1.0000
  H   H195      1.0  0.40124  0.04084  0.57697  1.0000
  H   H196      1.0  0.09876  0.95916  0.07697  1.0000
  H   H197      1.0  0.40124  0.45916  0.07697  1.0000
  H   H198      1.0  0.09876  0.54084  0.57697  1.0000
  H   H199      1.0  0.59876  0.95916  0.42303  1.0000
  H   H200      1.0  0.90124  0.04084  0.92303  1.0000
  H   H201      1.0  0.59893  0.52484  0.96695  1.0000
  H   H202      1.0  0.90107  0.47516  0.46695  1.0000
  H   H203      1.0  0.40107  0.02484  0.53305  1.0000
  H   H204      1.0  0.09893  0.97516  0.03305  1.0000
  H   H205      1.0  0.40107  0.47516  0.03305  1.0000
  H   H206      1.0  0.09893  0.52484  0.53305  1.0000
  H   H207      1.0  0.59893  0.97516  0.46695  1.0000
  H   H208      1.0  0.90107  0.02484  0.96695  1.0000
  H   H209      1.0  0.64416  0.51396  0.94117  1.0000
  H   H210      1.0  0.85584  0.48604  0.44117  1.0000
  H   H211      1.0  0.35584  0.01396  0.55883  1.0000
  H   H212      1.0  0.14416  0.98604  0.05883  1.0000
  H   H213      1.0  0.35584  0.48604  0.05883  1.0000
  H   H214      1.0  0.14416  0.51396  0.55883  1.0000
  H   H215      1.0  0.64416  0.98604  0.44117  1.0000
  H   H216      1.0  0.85584  0.01396  0.94117  1.0000
  C   C177      1.0  0.73903  0.58980  0.03108  1.0000
  C   C178      1.0  0.76097  0.41020  0.53108  1.0000
  C   C179      1.0  0.26097  0.08980  0.46892  1.0000
  C   C180      1.0  0.23903  0.91020  0.96892  1.0000
  C   C181      1.0  0.26097  0.41020  0.96892  1.0000
  C   C182      1.0  0.23903  0.58980  0.46892  1.0000
  C   C183      1.0  0.73903  0.91020  0.53108  1.0000
  C   C184      1.0  0.76097  0.08980  0.03108  1.0000
  C   C185      1.0  0.71630  0.51130  0.99754  1.0000
  C   C186      1.0  0.78370  0.48870  0.49754  1.0000
  C   C187      1.0  0.28370  0.01130  0.50246  1.0000
  C   C188      1.0  0.21630  0.98870  0.00246  1.0000
  C   C189      1.0  0.28370  0.48870  0.00246  1.0000
  C   C190      1.0  0.21630  0.51130  0.50246  1.0000
  C   C191      1.0  0.71630  0.98870  0.49754  1.0000
  C   C192      1.0  0.78370  0.01130  0.99754  1.0000
  H   H217      1.0  0.70333  0.49999  0.02197  1.0000
  H   H218      1.0  0.79667  0.50001  0.52197  1.0000
  H   H219      1.0  0.29667  0.99999  0.47803  1.0000
  H   H220      1.0  0.20333  0.00001  0.97803  1.0000
  H   H221      1.0  0.29667  0.50001  0.97803  1.0000
  H   H222      1.0  0.20333  0.49999  0.47803  1.0000
  H   H223      1.0  0.70333  0.00001  0.52197  1.0000
  H   H224      1.0  0.79667  0.99999  0.02197  1.0000
  H   H225      1.0  0.74898  0.49988  0.99545  1.0000
  H   H226      1.0  0.75102  0.50012  0.49545  1.0000
  H   H227      1.0  0.25102  0.99988  0.50455  1.0000
  H   H228      1.0  0.24898  0.00012  0.00455  1.0000
  H   H229      1.0  0.25102  0.50012  0.00455  1.0000
  H   H230      1.0  0.24898  0.49988  0.50455  1.0000
  H   H231      1.0  0.74898  0.00012  0.49545  1.0000
  H   H232      1.0  0.75102  0.99988  0.99545  1.0000
  H   H233      1.0  0.69782  0.49615  0.97682  1.0000
  H   H234      1.0  0.80218  0.50385  0.47682  1.0000
  H   H235      1.0  0.30218  0.99615  0.52318  1.0000
  H   H236      1.0  0.19782  0.00385  0.02318  1.0000
  H   H237      1.0  0.30218  0.50385  0.02318  1.0000
  H   H238      1.0  0.19782  0.49615  0.52318  1.0000
  H   H239      1.0  0.69782  0.00385  0.47682  1.0000
  H   H240      1.0  0.80218  0.99615  0.97682  1.0000
  C   C193      1.0  0.50512  0.87300  0.84887  1.0000
  C   C194      1.0  0.99488  0.12700  0.34887  1.0000
  C   C195      1.0  0.49488  0.37300  0.65113  1.0000
  C   C196      1.0  0.00512  0.62700  0.15113  1.0000
  C   C197      1.0  0.49488  0.12700  0.15113  1.0000
  C   C198      1.0  0.00512  0.87300  0.65113  1.0000
  C   C199      1.0  0.50512  0.62700  0.34887  1.0000
  C   C200      1.0  0.99488  0.37300  0.84887  1.0000
  C   C201      1.0  0.51279  0.82680  0.87583  1.0000
  C   C202      1.0  0.98721  0.17320  0.37583  1.0000
  C   C203      1.0  0.48721  0.32680  0.62417  1.0000
  C   C204      1.0  0.01279  0.67320  0.12417  1.0000
  C   C205      1.0  0.48721  0.17320  0.12417  1.0000
  C   C206      1.0  0.01279  0.82680  0.62417  1.0000
  C   C207      1.0  0.51279  0.67320  0.37583  1.0000
  C   C208      1.0  0.98721  0.32680  0.87583  1.0000
  H   H241      1.0  0.49650  0.79637  0.86499  1.0000
  H   H242      1.0  0.00350  0.20363  0.36499  1.0000
  H   H243      1.0  0.50350  0.29637  0.63501  1.0000
  H   H244      1.0  0.99650  0.70363  0.13501  1.0000
  H   H245      1.0  0.50350  0.20363  0.13501  1.0000
  H   H246      1.0  0.99650  0.79637  0.63501  1.0000
  H   H247      1.0  0.49650  0.70363  0.36499  1.0000
  H   H248      1.0  0.00350  0.29637  0.86499  1.0000
  H   H249      1.0  0.54678  0.81879  0.87631  1.0000
  H   H250      1.0  0.95322  0.18121  0.37631  1.0000
  H   H251      1.0  0.45322  0.31879  0.62369  1.0000
  H   H252      1.0  0.04678  0.68121  0.12369  1.0000
  H   H253      1.0  0.45322  0.18121  0.12369  1.0000
  H   H254      1.0  0.04678  0.81879  0.62369  1.0000
  H   H255      1.0  0.54678  0.68121  0.37631  1.0000
  H   H256      1.0  0.95322  0.31879  0.87631  1.0000
  C   C209      1.0  0.49606  0.83380  0.91705  1.0000
  C   C210      1.0  0.00394  0.16620  0.41705  1.0000
  C   C211      1.0  0.50394  0.33380  0.58295  1.0000
  C   C212      1.0  0.99606  0.66620  0.08295  1.0000
  C   C213      1.0  0.50394  0.16620  0.08295  1.0000
  C   C214      1.0  0.99606  0.83380  0.58295  1.0000
  C   C215      1.0  0.49606  0.66620  0.41705  1.0000
  C   C216      1.0  0.00394  0.33380  0.91705  1.0000
  C   C217      1.0  0.44585  0.85460  0.91812  1.0000
  C   C218      1.0  0.05415  0.14540  0.41812  1.0000
  C   C219      1.0  0.55415  0.35460  0.58188  1.0000
  C   C220      1.0  0.94585  0.64540  0.08188  1.0000
  C   C221      1.0  0.55415  0.14540  0.08188  1.0000
  C   C222      1.0  0.94585  0.85460  0.58188  1.0000
  C   C223      1.0  0.44585  0.64540  0.41812  1.0000
  C   C224      1.0  0.05415  0.35460  0.91812  1.0000
  H   H257      1.0  0.43816  0.86362  0.94473  1.0000
  H   H258      1.0  0.06184  0.13638  0.44473  1.0000
  H   H259      1.0  0.56184  0.36362  0.55527  1.0000
  H   H260      1.0  0.93816  0.63638  0.05527  1.0000
  H   H261      1.0  0.56184  0.13638  0.05527  1.0000
  H   H262      1.0  0.93816  0.86362  0.55527  1.0000
  H   H263      1.0  0.43816  0.63638  0.44473  1.0000
  H   H264      1.0  0.06184  0.36362  0.94473  1.0000
  H   H265      1.0  0.42435  0.82635  0.91035  1.0000
  H   H266      1.0  0.07565  0.17365  0.41035  1.0000
  H   H267      1.0  0.57565  0.32635  0.58965  1.0000
  H   H268      1.0  0.92435  0.67365  0.08965  1.0000
  H   H269      1.0  0.57565  0.17365  0.08965  1.0000
  H   H270      1.0  0.92435  0.82635  0.58965  1.0000
  H   H271      1.0  0.42435  0.67365  0.41035  1.0000
  H   H272      1.0  0.07565  0.32635  0.91035  1.0000
  C   C225      1.0  0.43573  0.90230  0.89295  1.0000
  C   C226      1.0  0.06427  0.09770  0.39295  1.0000
  C   C227      1.0  0.56427  0.40230  0.60705  1.0000
  C   C228      1.0  0.93573  0.59770  0.10705  1.0000
  C   C229      1.0  0.56427  0.09770  0.10705  1.0000
  C   C230      1.0  0.93573  0.90230  0.60705  1.0000
  C   C231      1.0  0.43573  0.59770  0.39295  1.0000
  C   C232      1.0  0.06427  0.40230  0.89295  1.0000
  C   C233      1.0  0.45448  0.89360  0.85233  1.0000
  C   C234      1.0  0.04552  0.10640  0.35233  1.0000
  C   C235      1.0  0.54552  0.39360  0.64767  1.0000
  C   C236      1.0  0.95448  0.60640  0.14767  1.0000
  C   C237      1.0  0.54552  0.10640  0.14767  1.0000
  C   C238      1.0  0.95448  0.89360  0.64767  1.0000
  C   C239      1.0  0.45448  0.60640  0.35233  1.0000
  C   C240      1.0  0.04552  0.39360  0.85233  1.0000
  H   H273      1.0  0.43329  0.86894  0.83931  1.0000
  H   H274      1.0  0.06671  0.13106  0.33931  1.0000
  H   H275      1.0  0.56671  0.36894  0.66069  1.0000
  H   H276      1.0  0.93329  0.63106  0.16069  1.0000
  H   H277      1.0  0.56671  0.13106  0.16069  1.0000
  H   H278      1.0  0.93329  0.86894  0.66069  1.0000
  H   H279      1.0  0.43329  0.63106  0.33931  1.0000
  H   H280      1.0  0.06671  0.36894  0.83931  1.0000
  H   H281      1.0  0.45259  0.92690  0.83848  1.0000
  H   H282      1.0  0.04741  0.07310  0.33848  1.0000
  H   H283      1.0  0.54741  0.42690  0.66152  1.0000
  H   H284      1.0  0.95259  0.57310  0.16152  1.0000
  H   H285      1.0  0.54741  0.07310  0.16152  1.0000
  H   H286      1.0  0.95259  0.92690  0.66152  1.0000
  H   H287      1.0  0.45259  0.57310  0.33848  1.0000
  H   H288      1.0  0.04741  0.42690  0.83848  1.0000
  C   C241      1.0  0.51189  0.85240  0.80871  1.0000
  C   C242      1.0  0.98811  0.14760  0.30871  1.0000
  C   C243      1.0  0.48811  0.35240  0.69129  1.0000
  C   C244      1.0  0.01189  0.64760  0.19129  1.0000
  C   C245      1.0  0.48811  0.14760  0.19129  1.0000
  C   C246      1.0  0.01189  0.85240  0.69129  1.0000
  C   C247      1.0  0.51189  0.64760  0.30871  1.0000
  C   C248      1.0  0.98811  0.35240  0.80871  1.0000
  C   C249      1.0  0.54270  0.91540  0.85262  1.0000
  C   C250      1.0  0.95730  0.08460  0.35262  1.0000
  C   C251      1.0  0.45730  0.41540  0.64738  1.0000
  C   C252      1.0  0.04270  0.58460  0.14738  1.0000
  C   C253      1.0  0.45730  0.08460  0.14738  1.0000
  C   C254      1.0  0.04270  0.91540  0.64738  1.0000
  C   C255      1.0  0.54270  0.58460  0.35262  1.0000
  C   C256      1.0  0.95730  0.41540  0.85262  1.0000
  H   H289      1.0  0.53733  0.94206  0.83330  1.0000
  H   H290      1.0  0.96267  0.05794  0.33330  1.0000
  H   H291      1.0  0.46267  0.44206  0.66670  1.0000
  H   H292      1.0  0.03733  0.55794  0.16670  1.0000
  H   H293      1.0  0.46267  0.05794  0.16670  1.0000
  H   H294      1.0  0.03733  0.94206  0.66670  1.0000
  H   H295      1.0  0.53733  0.55794  0.33330  1.0000
  H   H296      1.0  0.96267  0.44206  0.83330  1.0000
  H   H297      1.0  0.57386  0.90012  0.84901  1.0000
  H   H298      1.0  0.92614  0.09988  0.34901  1.0000
  H   H299      1.0  0.42614  0.40012  0.65099  1.0000
  H   H300      1.0  0.07386  0.59988  0.15099  1.0000
  H   H301      1.0  0.42614  0.09988  0.15099  1.0000
  H   H302      1.0  0.07386  0.90012  0.65099  1.0000
  H   H303      1.0  0.57386  0.59988  0.34901  1.0000
  H   H304      1.0  0.92614  0.40012  0.84901  1.0000
  H   H305      1.0  0.54078  0.93100  0.87794  1.0000
  H   H306      1.0  0.95922  0.06900  0.37794  1.0000
  H   H307      1.0  0.45922  0.43100  0.62206  1.0000
  H   H308      1.0  0.04078  0.56900  0.12206  1.0000
  H   H309      1.0  0.45922  0.06900  0.12206  1.0000
  H   H310      1.0  0.04078  0.93100  0.62206  1.0000
  H   H311      1.0  0.54078  0.56900  0.37794  1.0000
  H   H312      1.0  0.95922  0.43100  0.87794  1.0000
  C   C257      1.0  0.49731  0.78040  0.93561  1.0000
  C   C258      1.0  0.00269  0.21960  0.43561  1.0000
  C   C259      1.0  0.50269  0.28040  0.56439  1.0000
  C   C260      1.0  0.99731  0.71960  0.06439  1.0000
  C   C261      1.0  0.50269  0.21960  0.06439  1.0000
  C   C262      1.0  0.99731  0.78040  0.56439  1.0000
  C   C263      1.0  0.49731  0.71960  0.43561  1.0000
  C   C264      1.0  0.00269  0.28040  0.93561  1.0000
  C   C265      1.0  0.53030  0.86500  0.94161  1.0000
  C   C266      1.0  0.96970  0.13500  0.44161  1.0000
  C   C267      1.0  0.46970  0.36500  0.55839  1.0000
  C   C268      1.0  0.03030  0.63500  0.05839  1.0000
  C   C269      1.0  0.46970  0.13500  0.05839  1.0000
  C   C270      1.0  0.03030  0.86500  0.55839  1.0000
  C   C271      1.0  0.53030  0.63500  0.44161  1.0000
  C   C272      1.0  0.96970  0.36500  0.94161  1.0000
  H   H313      1.0  0.53260  0.90035  0.93174  1.0000
  H   H314      1.0  0.96740  0.09965  0.43174  1.0000
  H   H315      1.0  0.46740  0.40035  0.56826  1.0000
  H   H316      1.0  0.03260  0.59965  0.06826  1.0000
  H   H317      1.0  0.46740  0.09965  0.06826  1.0000
  H   H318      1.0  0.03260  0.90035  0.56826  1.0000
  H   H319      1.0  0.53260  0.59965  0.43174  1.0000
  H   H320      1.0  0.96740  0.40035  0.93174  1.0000
  H   H321      1.0  0.56131  0.84858  0.94095  1.0000
  H   H322      1.0  0.93869  0.15142  0.44095  1.0000
  H   H323      1.0  0.43869  0.34858  0.55905  1.0000
  H   H324      1.0  0.06131  0.65142  0.05905  1.0000
  H   H325      1.0  0.43869  0.15142  0.05905  1.0000
  H   H326      1.0  0.06131  0.84858  0.55905  1.0000
  H   H327      1.0  0.56131  0.65142  0.44095  1.0000
  H   H328      1.0  0.93869  0.34858  0.94095  1.0000
  H   H329      1.0  0.51880  0.86591  0.96785  1.0000
  H   H330      1.0  0.98120  0.13409  0.46785  1.0000
  H   H331      1.0  0.48120  0.36591  0.53215  1.0000
  H   H332      1.0  0.01880  0.63409  0.03215  1.0000
  H   H333      1.0  0.48120  0.13409  0.03215  1.0000
  H   H334      1.0  0.01880  0.86591  0.53215  1.0000
  H   H335      1.0  0.51880  0.63409  0.46785  1.0000
  H   H336      1.0  0.98120  0.36591  0.96785  1.0000
  C   C273      1.0  0.38248  0.90380  0.89111  1.0000
  C   C274      1.0  0.11752  0.09620  0.39111  1.0000
  C   C275      1.0  0.61752  0.40380  0.60889  1.0000
  C   C276      1.0  0.88248  0.59620  0.10889  1.0000
  C   C277      1.0  0.61752  0.09620  0.10889  1.0000
  C   C278      1.0  0.88248  0.90380  0.60889  1.0000
  C   C279      1.0  0.38248  0.59620  0.39111  1.0000
  C   C280      1.0  0.11752  0.40380  0.89111  1.0000
  C   C281      1.0  0.45290  0.95320  0.91075  1.0000
  C   C282      1.0  0.04710  0.04680  0.41075  1.0000
  C   C283      1.0  0.54710  0.45320  0.58925  1.0000
  C   C284      1.0  0.95290  0.54680  0.08925  1.0000
  C   C285      1.0  0.54710  0.04680  0.08925  1.0000
  C   C286      1.0  0.95290  0.95320  0.58925  1.0000
  C   C287      1.0  0.45290  0.54680  0.41075  1.0000
  C   C288      1.0  0.04710  0.45320  0.91075  1.0000
  H   H337      1.0  0.44330  0.98235  0.89469  1.0000
  H   H338      1.0  0.05670  0.01765  0.39469  1.0000
  H   H339      1.0  0.55670  0.48235  0.60531  1.0000
  H   H340      1.0  0.94330  0.51765  0.10531  1.0000
  H   H341      1.0  0.55670  0.01765  0.10531  1.0000
  H   H342      1.0  0.94330  0.98235  0.60531  1.0000
  H   H343      1.0  0.44330  0.51765  0.39469  1.0000
  H   H344      1.0  0.05670  0.48235  0.89469  1.0000
  H   H345      1.0  0.48721  0.95259  0.91282  1.0000
  H   H346      1.0  0.01279  0.04741  0.41282  1.0000
  H   H347      1.0  0.51279  0.45259  0.58718  1.0000
  H   H348      1.0  0.98721  0.54741  0.08718  1.0000
  H   H349      1.0  0.51279  0.04741  0.08718  1.0000
  H   H350      1.0  0.98721  0.95259  0.58718  1.0000
  H   H351      1.0  0.48721  0.54741  0.41282  1.0000
  H   H352      1.0  0.01279  0.45259  0.91282  1.0000
  H   H353      1.0  0.43912  0.95718  0.93610  1.0000
  H   H354      1.0  0.06088  0.04282  0.43610  1.0000
  H   H355      1.0  0.56088  0.45718  0.56390  1.0000
  H   H356      1.0  0.93912  0.54282  0.06390  1.0000
  H   H357      1.0  0.56088  0.04282  0.06390  1.0000
  H   H358      1.0  0.93912  0.95718  0.56390  1.0000
  H   H359      1.0  0.43912  0.54282  0.43610  1.0000
  H   H360      1.0  0.06088  0.45718  0.93610  1.0000
  C   C289      1.0  0.43710  0.88210  0.64261  1.0000
  C   C290      1.0  0.06290  0.11790  0.14261  1.0000
  C   C291      1.0  0.56290  0.38210  0.85739  1.0000
  C   C292      1.0  0.93710  0.61790  0.35739  1.0000
  C   C293      1.0  0.56290  0.11790  0.35739  1.0000
  C   C294      1.0  0.93710  0.88210  0.85739  1.0000
  C   C295      1.0  0.43710  0.61790  0.14261  1.0000
  C   C296      1.0  0.06290  0.38210  0.64261  1.0000
  C   C297      1.0  0.39590  0.84500  0.65082  1.0000
  C   C298      1.0  0.10410  0.15500  0.15082  1.0000
  C   C299      1.0  0.60410  0.34500  0.84918  1.0000
  C   C300      1.0  0.89590  0.65500  0.34918  1.0000
  C   C301      1.0  0.60410  0.15500  0.34918  1.0000
  C   C302      1.0  0.89590  0.84500  0.84918  1.0000
  C   C303      1.0  0.39590  0.65500  0.15082  1.0000
  C   C304      1.0  0.10410  0.34500  0.65082  1.0000
  H   H361      1.0  0.37853  0.85856  0.67307  1.0000
  H   H362      1.0  0.12147  0.14144  0.17307  1.0000
  H   H363      1.0  0.62147  0.35856  0.82693  1.0000
  H   H364      1.0  0.87853  0.64144  0.32693  1.0000
  H   H365      1.0  0.62147  0.14144  0.32693  1.0000
  H   H366      1.0  0.87853  0.85856  0.82693  1.0000
  H   H367      1.0  0.37853  0.64144  0.17307  1.0000
  H   H368      1.0  0.12147  0.35856  0.67307  1.0000
  H   H369      1.0  0.40917  0.81105  0.65820  1.0000
  H   H370      1.0  0.09083  0.18895  0.15820  1.0000
  H   H371      1.0  0.59083  0.31105  0.84180  1.0000
  H   H372      1.0  0.90917  0.68895  0.34180  1.0000
  H   H373      1.0  0.59083  0.18895  0.34180  1.0000
  H   H374      1.0  0.90917  0.81105  0.84180  1.0000
  H   H375      1.0  0.40917  0.68895  0.15820  1.0000
  H   H376      1.0  0.09083  0.31105  0.65820  1.0000
  C   C305      1.0  0.36010  0.83580  0.61847  1.0000
  C   C306      1.0  0.13990  0.16420  0.11847  1.0000
  C   C307      1.0  0.63990  0.33580  0.88153  1.0000
  C   C308      1.0  0.86010  0.66420  0.38153  1.0000
  C   C309      1.0  0.63990  0.16420  0.38153  1.0000
  C   C310      1.0  0.86010  0.83580  0.88153  1.0000
  C   C311      1.0  0.36010  0.66420  0.11847  1.0000
  C   C312      1.0  0.13990  0.33580  0.61847  1.0000
  C   C313      1.0  0.38590  0.82320  0.58109  1.0000
  C   C314      1.0  0.11410  0.17680  0.08109  1.0000
  C   C315      1.0  0.61410  0.32320  0.91891  1.0000
  C   C316      1.0  0.88590  0.67680  0.41891  1.0000
  C   C317      1.0  0.61410  0.17680  0.41891  1.0000
  C   C318      1.0  0.88590  0.82320  0.91891  1.0000
  C   C319      1.0  0.38590  0.67680  0.08109  1.0000
  C   C320      1.0  0.11410  0.32320  0.58109  1.0000
  H   H377      1.0  0.40043  0.78854  0.58342  1.0000
  H   H378      1.0  0.09957  0.21146  0.08342  1.0000
  H   H379      1.0  0.59957  0.28854  0.91658  1.0000
  H   H380      1.0  0.90043  0.71146  0.41658  1.0000
  H   H381      1.0  0.59957  0.21146  0.41658  1.0000
  H   H382      1.0  0.90043  0.78854  0.91658  1.0000
  H   H383      1.0  0.40043  0.71146  0.08342  1.0000
  H   H384      1.0  0.09957  0.28854  0.58342  1.0000
  H   H385      1.0  0.36251  0.82151  0.56033  1.0000
  H   H386      1.0  0.13749  0.17849  0.06033  1.0000
  H   H387      1.0  0.63749  0.32151  0.93967  1.0000
  H   H388      1.0  0.86251  0.67849  0.43967  1.0000
  H   H389      1.0  0.63749  0.17849  0.43967  1.0000
  H   H390      1.0  0.86251  0.82151  0.93967  1.0000
  H   H391      1.0  0.36251  0.67849  0.06033  1.0000
  H   H392      1.0  0.13749  0.32151  0.56033  1.0000
  C   C321      1.0  0.42424  0.86230  0.56993  1.0000
  C   C322      1.0  0.07576  0.13770  0.06993  1.0000
  C   C323      1.0  0.57576  0.36230  0.93007  1.0000
  C   C324      1.0  0.92424  0.63770  0.43007  1.0000
  C   C325      1.0  0.57576  0.13770  0.43007  1.0000
  C   C326      1.0  0.92424  0.86230  0.93007  1.0000
  C   C327      1.0  0.42424  0.63770  0.06993  1.0000
  C   C328      1.0  0.07576  0.36230  0.56993  1.0000
  C   C329      1.0  0.45820  0.87220  0.60329  1.0000
  C   C330      1.0  0.04180  0.12780  0.10329  1.0000
  C   C331      1.0  0.54180  0.37220  0.89671  1.0000
  C   C332      1.0  0.95820  0.62780  0.39671  1.0000
  C   C333      1.0  0.54180  0.12780  0.39671  1.0000
  C   C334      1.0  0.95820  0.87220  0.89671  1.0000
  C   C335      1.0  0.45820  0.62780  0.10329  1.0000
  C   C336      1.0  0.04180  0.37220  0.60329  1.0000
  H   H393      1.0  0.47938  0.84196  0.60532  1.0000
  H   H394      1.0  0.02062  0.15804  0.10532  1.0000
  H   H395      1.0  0.52062  0.34196  0.89468  1.0000
  H   H396      1.0  0.97938  0.65804  0.39468  1.0000
  H   H397      1.0  0.52062  0.15804  0.39468  1.0000
  H   H398      1.0  0.97938  0.84196  0.89468  1.0000
  H   H399      1.0  0.47938  0.65804  0.10532  1.0000
  H   H400      1.0  0.02062  0.34196  0.60532  1.0000
  H   H401      1.0  0.47790  0.90247  0.59661  1.0000
  H   H402      1.0  0.02210  0.09753  0.09661  1.0000
  H   H403      1.0  0.52210  0.40247  0.90339  1.0000
  H   H404      1.0  0.97790  0.59753  0.40339  1.0000
  H   H405      1.0  0.52210  0.09753  0.40339  1.0000
  H   H406      1.0  0.97790  0.90247  0.90339  1.0000
  H   H407      1.0  0.47790  0.59753  0.09661  1.0000
  H   H408      1.0  0.02210  0.40247  0.59661  1.0000
  C   C337      1.0  0.47270  0.86770  0.67303  1.0000
  C   C338      1.0  0.02730  0.13230  0.17303  1.0000
  C   C339      1.0  0.52730  0.36770  0.82697  1.0000
  C   C340      1.0  0.97270  0.63230  0.32697  1.0000
  C   C341      1.0  0.52730  0.13230  0.32697  1.0000
  C   C342      1.0  0.97270  0.86770  0.82697  1.0000
  C   C343      1.0  0.47270  0.63230  0.17303  1.0000
  C   C344      1.0  0.02730  0.36770  0.67303  1.0000
  C   C345      1.0  0.42430  0.93980  0.64892  1.0000
  C   C346      1.0  0.07570  0.06020  0.14892  1.0000
  C   C347      1.0  0.57570  0.43980  0.85108  1.0000
  C   C348      1.0  0.92430  0.56020  0.35108  1.0000
  C   C349      1.0  0.57570  0.06020  0.35108  1.0000
  C   C350      1.0  0.92430  0.93980  0.85108  1.0000
  C   C351      1.0  0.42430  0.56020  0.14892  1.0000
  C   C352      1.0  0.07570  0.43980  0.64892  1.0000
  H   H409      1.0  0.41048  0.94413  0.67423  1.0000
  H   H410      1.0  0.08952  0.05587  0.17423  1.0000
  H   H411      1.0  0.58952  0.44413  0.82577  1.0000
  H   H412      1.0  0.91048  0.55587  0.32577  1.0000
  H   H413      1.0  0.58952  0.05587  0.32577  1.0000
  H   H414      1.0  0.91048  0.94413  0.82577  1.0000
  H   H415      1.0  0.41048  0.55587  0.17423  1.0000
  H   H416      1.0  0.08952  0.44413  0.67423  1.0000
  H   H417      1.0  0.40157  0.95079  0.62961  1.0000
  H   H418      1.0  0.09843  0.04921  0.12961  1.0000
  H   H419      1.0  0.59843  0.45079  0.87039  1.0000
  H   H420      1.0  0.90157  0.54921  0.37039  1.0000
  H   H421      1.0  0.59843  0.04921  0.37039  1.0000
  H   H422      1.0  0.90157  0.95079  0.87039  1.0000
  H   H423      1.0  0.40157  0.54921  0.12961  1.0000
  H   H424      1.0  0.09843  0.45079  0.62961  1.0000
  H   H425      1.0  0.45270  0.96108  0.64691  1.0000
  H   H426      1.0  0.04730  0.03892  0.14691  1.0000
  H   H427      1.0  0.54730  0.46108  0.85309  1.0000
  H   H428      1.0  0.95270  0.53892  0.35309  1.0000
  H   H429      1.0  0.54730  0.03892  0.35309  1.0000
  H   H430      1.0  0.95270  0.96108  0.85309  1.0000
  H   H431      1.0  0.45270  0.53892  0.14691  1.0000
  H   H432      1.0  0.04730  0.46108  0.64691  1.0000
  C   C353      1.0  0.33090  0.78950  0.63080  1.0000
  C   C354      1.0  0.16910  0.21050  0.13080  1.0000
  C   C355      1.0  0.66910  0.28950  0.86920  1.0000
  C   C356      1.0  0.83090  0.71050  0.36920  1.0000
  C   C357      1.0  0.66910  0.21050  0.36920  1.0000
  C   C358      1.0  0.83090  0.78950  0.86920  1.0000
  C   C359      1.0  0.33090  0.71050  0.13080  1.0000
  C   C360      1.0  0.16910  0.28950  0.63080  1.0000
  C   C361      1.0  0.32320  0.87900  0.61502  1.0000
  C   C362      1.0  0.17680  0.12100  0.11502  1.0000
  C   C363      1.0  0.67680  0.37900  0.88498  1.0000
  C   C364      1.0  0.82320  0.62100  0.38498  1.0000
  C   C365      1.0  0.67680  0.12100  0.38498  1.0000
  C   C366      1.0  0.82320  0.87900  0.88498  1.0000
  C   C367      1.0  0.32320  0.62100  0.11502  1.0000
  C   C368      1.0  0.17680  0.37900  0.61502  1.0000
  H   H433      1.0  0.30261  0.87180  0.59334  1.0000
  H   H434      1.0  0.19739  0.12820  0.09334  1.0000
  H   H435      1.0  0.69739  0.37180  0.90666  1.0000
  H   H436      1.0  0.80261  0.62820  0.40666  1.0000
  H   H437      1.0  0.69739  0.12820  0.40666  1.0000
  H   H438      1.0  0.80261  0.87180  0.90666  1.0000
  H   H439      1.0  0.30261  0.62820  0.09334  1.0000
  H   H440      1.0  0.19739  0.37180  0.59334  1.0000
  H   H441      1.0  0.33904  0.91225  0.61118  1.0000
  H   H442      1.0  0.16096  0.08775  0.11118  1.0000
  H   H443      1.0  0.66096  0.41225  0.88882  1.0000
  H   H444      1.0  0.83904  0.58775  0.38882  1.0000
  H   H445      1.0  0.66096  0.08775  0.38882  1.0000
  H   H446      1.0  0.83904  0.91225  0.88882  1.0000
  H   H447      1.0  0.33904  0.58775  0.11118  1.0000
  H   H448      1.0  0.16096  0.41225  0.61118  1.0000
  H   H449      1.0  0.30445  0.88039  0.63834  1.0000
  H   H450      1.0  0.19555  0.11961  0.13834  1.0000
  H   H451      1.0  0.69555  0.38039  0.86166  1.0000
  H   H452      1.0  0.80445  0.61961  0.36166  1.0000
  H   H453      1.0  0.69555  0.11961  0.36166  1.0000
  H   H454      1.0  0.80445  0.88039  0.86166  1.0000
  H   H455      1.0  0.30445  0.61961  0.13834  1.0000
  H   H456      1.0  0.19555  0.38039  0.63834  1.0000
  C   C369      1.0  0.45480  0.84030  0.53850  1.0000
  C   C370      1.0  0.04520  0.15970  0.03850  1.0000
  C   C371      1.0  0.54520  0.34030  0.96150  1.0000
  C   C372      1.0  0.95480  0.65970  0.46150  1.0000
  C   C373      1.0  0.54520  0.15970  0.46150  1.0000
  C   C374      1.0  0.95480  0.84030  0.96150  1.0000
  C   C375      1.0  0.45480  0.65970  0.03850  1.0000
  C   C376      1.0  0.04520  0.34030  0.53850  1.0000
  C   C377      1.0  0.40400  0.91210  0.55261  1.0000
  C   C378      1.0  0.09600  0.08790  0.05261  1.0000
  C   C379      1.0  0.59600  0.41210  0.94739  1.0000
  C   C380      1.0  0.90400  0.58790  0.44739  1.0000
  C   C381      1.0  0.59600  0.08790  0.44739  1.0000
  C   C382      1.0  0.90400  0.91210  0.94739  1.0000
  C   C383      1.0  0.40400  0.58790  0.05261  1.0000
  C   C384      1.0  0.09600  0.41210  0.55261  1.0000
  H   H457      1.0  0.38564  0.93058  0.57186  1.0000
  H   H458      1.0  0.11436  0.06942  0.07186  1.0000
  H   H459      1.0  0.61436  0.43058  0.92814  1.0000
  H   H460      1.0  0.88564  0.56942  0.42814  1.0000
  H   H461      1.0  0.61436  0.06942  0.42814  1.0000
  H   H462      1.0  0.88564  0.93058  0.92814  1.0000
  H   H463      1.0  0.38564  0.56942  0.07186  1.0000
  H   H464      1.0  0.11436  0.43058  0.57186  1.0000
  H   H465      1.0  0.38376  0.90331  0.53106  1.0000
  H   H466      1.0  0.11624  0.09669  0.03106  1.0000
  H   H467      1.0  0.61624  0.40331  0.96894  1.0000
  H   H468      1.0  0.88376  0.59669  0.46894  1.0000
  H   H469      1.0  0.61624  0.09669  0.46894  1.0000
  H   H470      1.0  0.88376  0.90331  0.96894  1.0000
  H   H471      1.0  0.38376  0.59669  0.03106  1.0000
  H   H472      1.0  0.11624  0.40331  0.53106  1.0000
  H   H473      1.0  0.42980  0.93427  0.54386  1.0000
  H   H474      1.0  0.07020  0.06573  0.04386  1.0000
  H   H475      1.0  0.57020  0.43427  0.95614  1.0000
  H   H476      1.0  0.92980  0.56573  0.45614  1.0000
  H   H477      1.0  0.57020  0.06573  0.45614  1.0000
  H   H478      1.0  0.92980  0.93427  0.95614  1.0000
  H   H479      1.0  0.42980  0.56573  0.04386  1.0000
  H   H480      1.0  0.07020  0.43427  0.54386  1.0000
