data_image0
_chemical_formula_structural       U4O32C8H8C8H8C8H8C8H12C8H12C8H12
_chemical_formula_sum              "U4 O32 C48 H60"
_cell_length_a       9.6146
_cell_length_b       9.6594
_cell_length_c       19.0425
_cell_angle_alpha    90
_cell_angle_beta     90
_cell_angle_gamma    90

_space_group_name_H-M_alt    "P 1"
_space_group_IT_number       1

loop_
  _space_group_symop_operation_xyz
  'x, y, z'

loop_
  _atom_site_type_symbol
  _atom_site_label
  _atom_site_symmetry_multiplicity
  _atom_site_fract_x
  _atom_site_fract_y
  _atom_site_fract_z
  _atom_site_occupancy
  U   U1        1.0  0.21331  0.00630  0.48288  1.0000
  U   U2        1.0  0.28669  0.99370  0.98288  1.0000
  U   U3        1.0  0.78669  0.50630  0.01712  1.0000
  U   U4        1.0  0.71331  0.49370  0.51712  1.0000
  O   O1        1.0  0.06390  0.98980  0.42744  1.0000
  O   O2        1.0  0.43610  0.01020  0.92744  1.0000
  O   O3        1.0  0.93610  0.48980  0.07256  1.0000
  O   O4        1.0  0.56390  0.51020  0.57256  1.0000
  O   O5        1.0  0.35950  0.02630  0.53768  1.0000
  O   O6        1.0  0.14050  0.97370  0.03768  1.0000
  O   O7        1.0  0.64050  0.52630  0.96232  1.0000
  O   O8        1.0  0.85950  0.47370  0.46232  1.0000
  O   O9        1.0  0.32190  0.14410  0.39190  1.0000
  O   O10       1.0  0.17810  0.85590  0.89190  1.0000
  O   O11       1.0  0.67810  0.64410  0.10810  1.0000
  O   O12       1.0  0.82190  0.35590  0.60810  1.0000
  O   O13       1.0  0.19010  0.25700  0.46530  1.0000
  O   O14       1.0  0.30990  0.74300  0.96530  1.0000
  O   O15       1.0  0.80990  0.75700  0.03470  1.0000
  O   O16       1.0  0.69010  0.24300  0.53470  1.0000
  O   O17       1.0  0.57770  0.38360  0.42260  1.0000
  O   O18       1.0  0.92230  0.61640  0.92260  1.0000
  O   O19       1.0  0.42230  0.88360  0.07740  1.0000
  O   O20       1.0  0.07770  0.11640  0.57740  1.0000
  O   O21       1.0  0.58890  0.60960  0.42210  1.0000
  O   O22       1.0  0.91110  0.39040  0.92210  1.0000
  O   O23       1.0  0.41110  0.10960  0.07790  1.0000
  O   O24       1.0  0.08890  0.89040  0.57790  1.0000
  O   O25       1.0  0.22700  0.75420  0.47430  1.0000
  O   O26       1.0  0.27300  0.24580  0.97430  1.0000
  O   O27       1.0  0.77300  0.25420  0.02570  1.0000
  O   O28       1.0  0.72700  0.74580  0.52570  1.0000
  O   O29       1.0  0.34730  0.87170  0.39790  1.0000
  O   O30       1.0  0.15270  0.12830  0.89790  1.0000
  O   O31       1.0  0.65270  0.37170  0.10210  1.0000
  O   O32       1.0  0.84730  0.62830  0.60210  1.0000
  C   C1        1.0  0.25360  0.37490  0.35720  1.0000
  C   C2        1.0  0.24640  0.62510  0.85720  1.0000
  C   C3        1.0  0.74640  0.87490  0.14280  1.0000
  C   C4        1.0  0.75360  0.12510  0.64280  1.0000
  C   C5        1.0  0.38430  0.37770  0.31000  1.0000
  C   C6        1.0  0.11570  0.62230  0.81000  1.0000
  C   C7        1.0  0.61570  0.87770  0.19000  1.0000
  C   C8        1.0  0.88430  0.12230  0.69000  1.0000
  H   H1        1.0  0.43823  0.29194  0.31824  1.0000
  H   H2        1.0  0.06177  0.70806  0.81824  1.0000
  H   H3        1.0  0.56177  0.79194  0.18176  1.0000
  H   H4        1.0  0.93823  0.20806  0.68176  1.0000
  H   H5        1.0  0.35431  0.37756  0.26029  1.0000
  H   H6        1.0  0.14569  0.62244  0.76029  1.0000
  H   H7        1.0  0.64569  0.87756  0.23971  1.0000
  H   H8        1.0  0.85431  0.12244  0.73971  1.0000
  C   C9        1.0  0.47940  0.50190  0.32212  1.0000
  C   C10       1.0  0.02060  0.49810  0.82212  1.0000
  C   C11       1.0  0.52060  0.00190  0.17788  1.0000
  C   C12       1.0  0.97940  0.99810  0.67788  1.0000
  C   C13       1.0  0.39480  0.63520  0.31220  1.0000
  C   C14       1.0  0.10520  0.36480  0.81220  1.0000
  C   C15       1.0  0.60520  0.13520  0.18780  1.0000
  C   C16       1.0  0.89480  0.86480  0.68780  1.0000
  H   H9        1.0  0.36338  0.64054  0.26273  1.0000
  H   H10       1.0  0.13662  0.35946  0.76273  1.0000
  H   H11       1.0  0.63662  0.14054  0.23727  1.0000
  H   H12       1.0  0.86338  0.85946  0.73727  1.0000
  H   H13       1.0  0.45604  0.71572  0.32108  1.0000
  H   H14       1.0  0.04396  0.28428  0.82108  1.0000
  H   H15       1.0  0.54396  0.21572  0.17892  1.0000
  H   H16       1.0  0.95604  0.78428  0.67892  1.0000
  C   C17       1.0  0.26560  0.64540  0.36110  1.0000
  C   C18       1.0  0.23440  0.35460  0.86110  1.0000
  C   C19       1.0  0.73440  0.14540  0.13890  1.0000
  C   C20       1.0  0.76560  0.85460  0.63890  1.0000
  C   C21       1.0  0.23790  0.50950  0.40080  1.0000
  C   C22       1.0  0.26210  0.49050  0.90080  1.0000
  C   C23       1.0  0.76210  0.00950  0.09920  1.0000
  C   C24       1.0  0.73790  0.99050  0.59920  1.0000
  H   H17       1.0  0.14225  0.51280  0.41989  1.0000
  H   H18       1.0  0.35775  0.48720  0.91989  1.0000
  H   H19       1.0  0.85775  0.01280  0.08011  1.0000
  H   H20       1.0  0.64225  0.98720  0.58011  1.0000
  H   H21       1.0  0.30260  0.50457  0.44114  1.0000
  H   H22       1.0  0.19740  0.49543  0.94114  1.0000
  H   H23       1.0  0.69740  0.00457  0.05886  1.0000
  H   H24       1.0  0.80260  0.99543  0.55886  1.0000
  C   C25       1.0  0.25810  0.25470  0.40890  1.0000
  C   C26       1.0  0.24190  0.74530  0.90890  1.0000
  C   C27       1.0  0.74190  0.75470  0.09110  1.0000
  C   C28       1.0  0.75810  0.24530  0.59110  1.0000
  C   C29       1.0  0.12270  0.34360  0.31230  1.0000
  C   C30       1.0  0.37730  0.65640  0.81230  1.0000
  C   C31       1.0  0.87730  0.84360  0.18770  1.0000
  C   C32       1.0  0.62270  0.15640  0.68770  1.0000
  H   H25       1.0  0.12957  0.24989  0.29287  1.0000
  H   H26       1.0  0.37043  0.75011  0.79287  1.0000
  H   H27       1.0  0.87043  0.74989  0.20713  1.0000
  H   H28       1.0  0.62957  0.25011  0.70713  1.0000
  H   H29       1.0  0.11645  0.41072  0.27380  1.0000
  H   H30       1.0  0.38355  0.58928  0.77380  1.0000
  H   H31       1.0  0.88355  0.91072  0.22620  1.0000
  H   H32       1.0  0.61645  0.08928  0.72620  1.0000
  H   H33       1.0  0.03949  0.35048  0.34177  1.0000
  H   H34       1.0  0.46051  0.64952  0.84177  1.0000
  H   H35       1.0  0.96051  0.85048  0.15823  1.0000
  H   H36       1.0  0.53949  0.14952  0.65823  1.0000
  C   C33       1.0  0.54950  0.49780  0.39302  1.0000
  C   C34       1.0  0.95050  0.50220  0.89302  1.0000
  C   C35       1.0  0.45050  0.99780  0.10698  1.0000
  C   C36       1.0  0.04950  0.00220  0.60698  1.0000
  C   C37       1.0  0.60120  0.49960  0.26940  1.0000
  C   C38       1.0  0.89880  0.50040  0.76940  1.0000
  C   C39       1.0  0.39880  0.99960  0.23060  1.0000
  C   C40       1.0  0.10120  0.00040  0.73060  1.0000
  H   H37       1.0  0.66471  0.57637  0.27956  1.0000
  H   H38       1.0  0.83529  0.42363  0.77956  1.0000
  H   H39       1.0  0.33529  0.07637  0.22044  1.0000
  H   H40       1.0  0.16471  0.92363  0.72044  1.0000
  H   H41       1.0  0.56495  0.50921  0.22155  1.0000
  H   H42       1.0  0.93505  0.49079  0.72155  1.0000
  H   H43       1.0  0.43505  0.00921  0.27845  1.0000
  H   H44       1.0  0.06495  0.99079  0.77845  1.0000
  H   H45       1.0  0.65141  0.41165  0.27359  1.0000
  H   H46       1.0  0.84859  0.58835  0.77359  1.0000
  H   H47       1.0  0.34859  0.91165  0.22641  1.0000
  H   H48       1.0  0.15141  0.08835  0.72641  1.0000
  C   C41       1.0  0.28650  0.76020  0.41470  1.0000
  C   C42       1.0  0.21350  0.23980  0.91470  1.0000
  C   C43       1.0  0.71350  0.26020  0.08530  1.0000
  C   C44       1.0  0.78650  0.73980  0.58530  1.0000
  C   C45       1.0  0.13730  0.69410  0.31910  1.0000
  C   C46       1.0  0.36270  0.30590  0.81910  1.0000
  C   C47       1.0  0.86270  0.19410  0.18090  1.0000
  C   C48       1.0  0.63730  0.80590  0.68090  1.0000
  H   H49       1.0  0.05584  0.69616  0.34999  1.0000
  H   H50       1.0  0.44416  0.30384  0.84999  1.0000
  H   H51       1.0  0.94416  0.19616  0.15001  1.0000
  H   H52       1.0  0.55584  0.80384  0.65001  1.0000
  H   H53       1.0  0.12023  0.62993  0.28015  1.0000
  H   H54       1.0  0.37977  0.37007  0.78015  1.0000
  H   H55       1.0  0.87977  0.12993  0.21985  1.0000
  H   H56       1.0  0.62023  0.87007  0.71985  1.0000
  H   H57       1.0  0.15443  0.78708  0.30041  1.0000
  H   H58       1.0  0.34557  0.21292  0.80041  1.0000
  H   H59       1.0  0.84557  0.28708  0.19959  1.0000
  H   H60       1.0  0.65443  0.71292  0.69959  1.0000
