data_image0
_chemical_formula_structural       Zn4O4C4H2C4H2C4H2C2O2C2O4C2O6C4H2C4H2C4H2C2O2C2O4C2O2
_chemical_formula_sum              "Zn4 O24 C36 H12"
_cell_length_a       9.1699
_cell_length_b       15.6055
_cell_length_c       13.5026
_cell_angle_alpha    90
_cell_angle_beta     107.162
_cell_angle_gamma    90

_space_group_name_H-M_alt    "P 1"
_space_group_IT_number       1

loop_
  _space_group_symop_operation_xyz
  'x, y, z'

loop_
  _atom_site_type_symbol
  _atom_site_label
  _atom_site_symmetry_multiplicity
  _atom_site_fract_x
  _atom_site_fract_y
  _atom_site_fract_z
  _atom_site_occupancy
  Zn  Zn1       1.0  0.61984  0.44900  0.75077  1.0000
  Zn  Zn2       1.0  0.38016  0.94900  0.24923  1.0000
  Zn  Zn3       1.0  0.87283  0.25382  0.74873  1.0000
  Zn  Zn4       1.0  0.12717  0.75382  0.25127  1.0000
  O   O1        1.0  0.96950  0.35912  0.81819  1.0000
  O   O2        1.0  0.03050  0.85912  0.18181  1.0000
  O   O3        1.0  0.80844  0.44740  0.86333  1.0000
  O   O4        1.0  0.19156  0.94740  0.13667  1.0000
  C   C1        1.0  0.06920  0.48540  0.90740  1.0000
  C   C2        1.0  0.93080  0.98540  0.09260  1.0000
  C   C3        1.0  0.05950  0.54530  0.98090  1.0000
  C   C4        1.0  0.94050  0.04530  0.01910  1.0000
  H   H1        1.0  0.97170  0.54940  0.00170  1.0000
  H   H2        1.0  0.02830  0.04940  0.99830  1.0000
  C   C5        1.0  0.18330  0.59960  0.02350  1.0000
  C   C6        1.0  0.81670  0.09960  0.97650  1.0000
  C   C7        1.0  0.31340  0.59360  0.99070  1.0000
  C   C8        1.0  0.68660  0.09360  0.00930  1.0000
  H   H3        1.0  0.39460  0.63070  0.01820  1.0000
  H   H4        1.0  0.60540  0.13070  0.98180  1.0000
  C   C9        1.0  0.32410  0.53340  0.91780  1.0000
  C   C10       1.0  0.67590  0.03340  0.08220  1.0000
  C   C11       1.0  0.20130  0.47860  0.87680  1.0000
  C   C12       1.0  0.79870  0.97860  0.12320  1.0000
  H   H5        1.0  0.20750  0.43710  0.82870  1.0000
  H   H6        1.0  0.79250  0.93710  0.17130  1.0000
  C   C13       1.0  0.93880  0.42587  0.85870  1.0000
  C   C14       1.0  0.06120  0.92587  0.14130  1.0000
  O   O5        1.0  0.05830  0.66637  0.13510  1.0000
  O   O6        1.0  0.94170  0.16637  0.86490  1.0000
  C   C15       1.0  0.17720  0.66350  0.10510  1.0000
  C   C16       1.0  0.82280  0.16350  0.89490  1.0000
  O   O7        1.0  0.28840  0.71132  0.14360  1.0000
  O   O8        1.0  0.71160  0.21132  0.85640  1.0000
  O   O9        1.0  0.56810  0.57940  0.91030  1.0000
  O   O10       1.0  0.43190  0.07940  0.08970  1.0000
  C   C17       1.0  0.46450  0.52640  0.88210  1.0000
  C   C18       1.0  0.53550  0.02640  0.11790  1.0000
  O   O11       1.0  0.46320  0.46345  0.82116  1.0000
  O   O12       1.0  0.53680  0.96345  0.17884  1.0000
  O   O13       1.0  0.52280  0.34390  0.68143  1.0000
  O   O14       1.0  0.47720  0.84390  0.31857  1.0000
  O   O15       1.0  0.68321  0.25450  0.63565  1.0000
  O   O16       1.0  0.31679  0.75450  0.36435  1.0000
  C   C19       1.0  0.42060  0.22090  0.58800  1.0000
  C   C20       1.0  0.57940  0.72090  0.41200  1.0000
  C   C21       1.0  0.43010  0.15920  0.51580  1.0000
  C   C22       1.0  0.56990  0.65920  0.48420  1.0000
  H   H7        1.0  0.51820  0.15480  0.49540  1.0000
  H   H8        1.0  0.48180  0.65480  0.50460  1.0000
  C   C23       1.0  0.30770  0.10420  0.47400  1.0000
  C   C24       1.0  0.69230  0.60420  0.52600  1.0000
  C   C25       1.0  0.17690  0.10970  0.50630  1.0000
  C   C26       1.0  0.82310  0.60970  0.49370  1.0000
  H   H9        1.0  0.09670  0.07160  0.48020  1.0000
  H   H10       1.0  0.90330  0.57160  0.51980  1.0000
  C   C27       1.0  0.16600  0.17190  0.57750  1.0000
  C   C28       1.0  0.83400  0.67190  0.42250  1.0000
  C   C29       1.0  0.28840  0.22730  0.61750  1.0000
  C   C30       1.0  0.71160  0.72730  0.38250  1.0000
  H   H11       1.0  0.28130  0.26930  0.66480  1.0000
  H   H12       1.0  0.71870  0.76930  0.33520  1.0000
  C   C31       1.0  0.55330  0.27725  0.63880  1.0000
  C   C32       1.0  0.44670  0.77725  0.36120  1.0000
  O   O17       1.0  0.43440  0.03677  0.36263  1.0000
  O   O18       1.0  0.56560  0.53677  0.63737  1.0000
  C   C33       1.0  0.31430  0.03810  0.39470  1.0000
  C   C34       1.0  0.68570  0.53810  0.60530  1.0000
  O   O19       1.0  0.20650  0.98908  0.35830  1.0000
  O   O20       1.0  0.79350  0.48908  0.64170  1.0000
  O   O21       1.0  0.92410  0.12458  0.58910  1.0000
  O   O22       1.0  0.07590  0.62458  0.41090  1.0000
  C   C35       1.0  0.02700  0.17760  0.61520  1.0000
  C   C36       1.0  0.97300  0.67760  0.38480  1.0000
  O   O23       1.0  0.02750  0.24032  0.67582  1.0000
  O   O24       1.0  0.97250  0.74032  0.32418  1.0000
