data_image0
_chemical_formula_structural       Zn4O4C4H2C4H2C4H2C2O2C2O4C2O6C4H2C4H2C4H2C2O2C2O4C2O2
_chemical_formula_sum              "Zn4 O24 C36 H12"
_cell_length_a       9.1657
_cell_length_b       15.5849
_cell_length_c       13.5302
_cell_angle_alpha    90
_cell_angle_beta     107.469
_cell_angle_gamma    90

_space_group_name_H-M_alt    "P 1"
_space_group_IT_number       1

loop_
  _space_group_symop_operation_xyz
  'x, y, z'

loop_
  _atom_site_type_symbol
  _atom_site_label
  _atom_site_symmetry_multiplicity
  _atom_site_fract_x
  _atom_site_fract_y
  _atom_site_fract_z
  _atom_site_occupancy
  Zn  Zn1       1.0  0.37908  0.55185  0.24814  1.0000
  Zn  Zn2       1.0  0.62092  0.05185  0.75186  1.0000
  Zn  Zn3       1.0  0.12668  0.74516  0.25215  1.0000
  Zn  Zn4       1.0  0.87332  0.24516  0.74785  1.0000
  O   O1        1.0  0.02940  0.64020  0.18210  1.0000
  O   O2        1.0  0.97060  0.14020  0.81790  1.0000
  O   O3        1.0  0.19000  0.55180  0.13510  1.0000
  O   O4        1.0  0.81000  0.05180  0.86490  1.0000
  C   C1        1.0  0.92930  0.51390  0.09240  1.0000
  C   C2        1.0  0.07070  0.01390  0.90760  1.0000
  C   C3        1.0  0.93710  0.45300  0.01910  1.0000
  C   C4        1.0  0.06290  0.95300  0.98090  1.0000
  H   H1        1.0  0.02590  0.44840  0.99840  1.0000
  H   H2        1.0  0.97410  0.94840  0.00160  1.0000
  C   C5        1.0  0.81340  0.39870  0.97640  1.0000
  C   C6        1.0  0.18660  0.89870  0.02360  1.0000
  C   C7        1.0  0.68390  0.40480  0.00960  1.0000
  C   C8        1.0  0.31610  0.90480  0.99040  1.0000
  H   H3        1.0  0.60160  0.36700  0.98230  1.0000
  H   H4        1.0  0.39840  0.86700  0.01770  1.0000
  C   C9        1.0  0.67420  0.46590  0.08260  1.0000
  C   C10       1.0  0.32580  0.96590  0.91740  1.0000
  C   C11       1.0  0.79840  0.52120  0.12300  1.0000
  C   C12       1.0  0.20160  0.02120  0.87700  1.0000
  H   H5        1.0  0.79290  0.56360  0.17120  1.0000
  H   H6        1.0  0.20710  0.06360  0.82880  1.0000
  C   C13       1.0  0.06040  0.57390  0.14110  1.0000
  C   C14       1.0  0.93960  0.07390  0.85890  1.0000
  O   O5        1.0  0.93750  0.33210  0.86420  1.0000
  O   O6        1.0  0.06250  0.83210  0.13580  1.0000
  C   C15       1.0  0.81660  0.33440  0.89490  1.0000
  C   C16       1.0  0.18340  0.83440  0.10510  1.0000
  O   O7        1.0  0.70620  0.28690  0.85630  1.0000
  O   O8        1.0  0.29380  0.78690  0.14370  1.0000
  O   O9        1.0  0.42990  0.41940  0.09090  1.0000
  O   O10       1.0  0.57010  0.91940  0.90910  1.0000
  C   C17       1.0  0.53480  0.47360  0.11840  1.0000
  C   C18       1.0  0.46520  0.97360  0.88160  1.0000
  O   O11       1.0  0.53690  0.53660  0.17880  1.0000
  O   O12       1.0  0.46310  0.03660  0.82120  1.0000
  O   O13       1.0  0.47740  0.65690  0.31900  1.0000
  O   O14       1.0  0.52260  0.15690  0.68100  1.0000
  O   O15       1.0  0.31780  0.74610  0.36550  1.0000
  O   O16       1.0  0.68220  0.24610  0.63450  1.0000
  C   C19       1.0  0.58090  0.78030  0.41240  1.0000
  C   C20       1.0  0.41910  0.28030  0.58760  1.0000
  C   C21       1.0  0.57160  0.84210  0.48510  1.0000
  C   C22       1.0  0.42840  0.34210  0.51490  1.0000
  H   H7        1.0  0.48310  0.84640  0.50630  1.0000
  H   H8        1.0  0.51690  0.34640  0.49370  1.0000
  C   C23       1.0  0.69460  0.89730  0.52610  1.0000
  C   C24       1.0  0.30540  0.39730  0.47390  1.0000
  C   C25       1.0  0.82460  0.89150  0.49390  1.0000
  C   C26       1.0  0.17540  0.39150  0.50610  1.0000
  H   H9        1.0  0.90610  0.92990  0.52050  1.0000
  H   H10       1.0  0.09390  0.42990  0.47950  1.0000
  C   C27       1.0  0.83510  0.82950  0.42270  1.0000
  C   C28       1.0  0.16490  0.32950  0.57730  1.0000
  C   C29       1.0  0.71240  0.77370  0.38250  1.0000
  C   C30       1.0  0.28760  0.27370  0.61750  1.0000
  H   H11       1.0  0.71910  0.73130  0.33470  1.0000
  H   H12       1.0  0.28090  0.23130  0.66530  1.0000
  C   C31       1.0  0.44780  0.72420  0.36220  1.0000
  C   C32       1.0  0.55220  0.22420  0.63780  1.0000
  O   O17       1.0  0.56940  0.96470  0.63810  1.0000
  O   O18       1.0  0.43060  0.46470  0.36190  1.0000
  C   C33       1.0  0.68850  0.96360  0.60650  1.0000
  C   C34       1.0  0.31150  0.46360  0.39350  1.0000
  O   O19       1.0  0.79670  0.01350  0.64220  1.0000
  O   O20       1.0  0.20330  0.51350  0.35780  1.0000
  O   O21       1.0  0.07660  0.87570  0.41050  1.0000
  O   O22       1.0  0.92340  0.37570  0.58950  1.0000
  C   C35       1.0  0.97370  0.82320  0.38500  1.0000
  C   C36       1.0  0.02630  0.32320  0.61500  1.0000
  O   O23       1.0  0.97220  0.75860  0.32440  1.0000
  O   O24       1.0  0.02780  0.25860  0.67560  1.0000
