data_image0
_chemical_formula_structural       I6Sb2I8Sb2N2C2H2C2H2C2H2C2H2C2H2
_chemical_formula_sum              "I14 Sb4 N2 C10 H10"
_cell_length_a       10.0285
_cell_length_b       12.8903
_cell_length_c       14.5128
_cell_angle_alpha    69.384
_cell_angle_beta     80.737
_cell_angle_gamma    77.273

_space_group_name_H-M_alt    "P 1"
_space_group_IT_number       1

loop_
  _space_group_symop_operation_xyz
  'x, y, z'

loop_
  _atom_site_type_symbol
  _atom_site_label
  _atom_site_symmetry_multiplicity
  _atom_site_fract_x
  _atom_site_fract_y
  _atom_site_fract_z
  _atom_site_occupancy
  I   I1        1.0  0.33698  0.57432  0.90079  1.0000
  I   I2        1.0  0.66302  0.42568  0.09921  1.0000
  I   I3        1.0  0.90277  0.65302  0.90081  1.0000
  I   I4        1.0  0.09723  0.34698  0.09919  1.0000
  I   I5        1.0  0.09771  0.85745  0.96901  1.0000
  I   I6        1.0  0.90229  0.14255  0.03099  1.0000
  Sb  Sb1       1.0  0.10629  0.62149  0.03179  1.0000
  Sb  Sb2       1.0  0.89371  0.37851  0.96821  1.0000
  I   I7        1.0  0.31619  0.57295  0.19705  1.0000
  I   I8        1.0  0.68381  0.42705  0.80295  1.0000
  I   I9        1.0  0.07827  0.86065  0.26252  1.0000
  I   I10       1.0  0.92173  0.13935  0.73748  1.0000
  I   I11       1.0  0.88051  0.62612  0.22306  1.0000
  I   I12       1.0  0.11949  0.37388  0.77694  1.0000
  I   I13       1.0  0.87299  0.65159  0.51274  1.0000
  I   I14       1.0  0.12701  0.34841  0.48726  1.0000
  Sb  Sb3       1.0  0.08996  0.62859  0.34901  1.0000
  Sb  Sb4       1.0  0.91004  0.37141  0.65099  1.0000
  N   N1        1.0  0.26950  0.63180  0.44700  1.0000
  N   N2        1.0  0.73050  0.36820  0.55300  1.0000
  C   C1        1.0  0.38950  0.66330  0.40190  1.0000
  C   C2        1.0  0.61050  0.33670  0.59810  1.0000
  H   H1        1.0  0.40070  0.69250  0.33330  1.0000
  H   H2        1.0  0.59930  0.30750  0.66670  1.0000
  C   C3        1.0  0.49630  0.65310  0.45580  1.0000
  C   C4        1.0  0.50370  0.34690  0.54420  1.0000
  H   H3        1.0  0.58060  0.67020  0.42350  1.0000
  H   H4        1.0  0.41940  0.32980  0.57650  1.0000
  C   C5        1.0  0.47770  0.61760  0.55730  1.0000
  C   C6        1.0  0.52230  0.38240  0.44270  1.0000
  H   H5        1.0  0.54670  0.61410  0.59460  1.0000
  H   H6        1.0  0.45330  0.38590  0.40540  1.0000
  C   C7        1.0  0.35300  0.58730  0.60210  1.0000
  C   C8        1.0  0.64700  0.41270  0.39790  1.0000
  H   H7        1.0  0.33820  0.56080  0.67070  1.0000
  H   H8        1.0  0.66180  0.43920  0.32930  1.0000
  C   C9        1.0  0.25120  0.59630  0.54540  1.0000
  C   C10       1.0  0.74880  0.40370  0.45460  1.0000
  H   H9        1.0  0.16730  0.57710  0.57650  1.0000
  H   H10       1.0  0.83270  0.42290  0.42350  1.0000
