data_image0
_chemical_formula_structural       U8O64C16H8C16H8C16H8C8H16C16H16C16H16C8
_chemical_formula_sum              "U8 O64 C96 H72"
_cell_length_a       9.7665
_cell_length_b       19.3844
_cell_length_c       20.3345
_cell_angle_alpha    90
_cell_angle_beta     90
_cell_angle_gamma    90

_space_group_name_H-M_alt    "P 1"
_space_group_IT_number       1

loop_
  _space_group_symop_operation_xyz
  'x, y, z'

loop_
  _atom_site_type_symbol
  _atom_site_label
  _atom_site_symmetry_multiplicity
  _atom_site_fract_x
  _atom_site_fract_y
  _atom_site_fract_z
  _atom_site_occupancy
  U   U1        1.0  0.81567  0.38526  0.38410  1.0000
  U   U2        1.0  0.68433  0.61474  0.88410  1.0000
  U   U3        1.0  0.18433  0.88526  0.11590  1.0000
  U   U4        1.0  0.31567  0.11474  0.61590  1.0000
  U   U5        1.0  0.18433  0.61474  0.61590  1.0000
  U   U6        1.0  0.31567  0.38526  0.11590  1.0000
  U   U7        1.0  0.81567  0.11474  0.88410  1.0000
  U   U8        1.0  0.68433  0.88526  0.38410  1.0000
  O   O1        1.0  0.69740  0.31640  0.39250  1.0000
  O   O2        1.0  0.80260  0.68360  0.89250  1.0000
  O   O3        1.0  0.30260  0.81640  0.10750  1.0000
  O   O4        1.0  0.19740  0.18360  0.60750  1.0000
  O   O5        1.0  0.30260  0.68360  0.60750  1.0000
  O   O6        1.0  0.19740  0.31640  0.10750  1.0000
  O   O7        1.0  0.69740  0.18360  0.89250  1.0000
  O   O8        1.0  0.80260  0.81640  0.39250  1.0000
  O   O9        1.0  0.93650  0.45240  0.37820  1.0000
  O   O10       1.0  0.56350  0.54760  0.87820  1.0000
  O   O11       1.0  0.06350  0.95240  0.12180  1.0000
  O   O12       1.0  0.43650  0.04760  0.62180  1.0000
  O   O13       1.0  0.06350  0.54760  0.62180  1.0000
  O   O14       1.0  0.43650  0.45240  0.12180  1.0000
  O   O15       1.0  0.93650  0.04760  0.87820  1.0000
  O   O16       1.0  0.56350  0.95240  0.37820  1.0000
  O   O17       1.0  0.75670  0.42620  0.49600  1.0000
  O   O18       1.0  0.74330  0.57380  0.99600  1.0000
  O   O19       1.0  0.24330  0.92620  0.00400  1.0000
  O   O20       1.0  0.25670  0.07380  0.50400  1.0000
  O   O21       1.0  0.24330  0.57380  0.50400  1.0000
  O   O22       1.0  0.25670  0.42620  0.00400  1.0000
  O   O23       1.0  0.75670  0.07380  0.99600  1.0000
  O   O24       1.0  0.74330  0.92620  0.49600  1.0000
  O   O25       1.0  0.92470  0.35190  0.48900  1.0000
  O   O26       1.0  0.57530  0.64810  0.98900  1.0000
  O   O27       1.0  0.07530  0.85190  0.01100  1.0000
  O   O28       1.0  0.42470  0.14810  0.51100  1.0000
  O   O29       1.0  0.07530  0.64810  0.51100  1.0000
  O   O30       1.0  0.42470  0.35190  0.01100  1.0000
  O   O31       1.0  0.92470  0.14810  0.98900  1.0000
  O   O32       1.0  0.57530  0.85190  0.48900  1.0000
  O   O33       1.0  0.49500  0.20330  0.62950  1.0000
  O   O34       1.0  0.00500  0.79670  0.12950  1.0000
  O   O35       1.0  0.50500  0.70330  0.87050  1.0000
  O   O36       1.0  0.99500  0.29670  0.37050  1.0000
  O   O37       1.0  0.50500  0.79670  0.37050  1.0000
  O   O38       1.0  0.99500  0.20330  0.87050  1.0000
  O   O39       1.0  0.49500  0.29670  0.12950  1.0000
  O   O40       1.0  0.00500  0.70330  0.62950  1.0000
  O   O41       1.0  0.40060  0.16580  0.71890  1.0000
  O   O42       1.0  0.09940  0.83420  0.21890  1.0000
  O   O43       1.0  0.59940  0.66580  0.78110  1.0000
  O   O44       1.0  0.90060  0.33420  0.28110  1.0000
  O   O45       1.0  0.59940  0.83420  0.28110  1.0000
  O   O46       1.0  0.90060  0.16580  0.78110  1.0000
  O   O47       1.0  0.40060  0.33420  0.21890  1.0000
  O   O48       1.0  0.09940  0.66580  0.71890  1.0000
  O   O49       1.0  0.30080  0.57540  0.71370  1.0000
  O   O50       1.0  0.19920  0.42460  0.21370  1.0000
  O   O51       1.0  0.69920  0.07540  0.78630  1.0000
  O   O52       1.0  0.80080  0.92460  0.28630  1.0000
  O   O53       1.0  0.69920  0.42460  0.28630  1.0000
  O   O54       1.0  0.80080  0.57540  0.78630  1.0000
  O   O55       1.0  0.30080  0.92460  0.21370  1.0000
  O   O56       1.0  0.19920  0.07540  0.71370  1.0000
  O   O57       1.0  0.37610  0.52820  0.62310  1.0000
  O   O58       1.0  0.12390  0.47180  0.12310  1.0000
  O   O59       1.0  0.62390  0.02820  0.87690  1.0000
  O   O60       1.0  0.87610  0.97180  0.37690  1.0000
  O   O61       1.0  0.62390  0.47180  0.37690  1.0000
  O   O62       1.0  0.87610  0.52820  0.87690  1.0000
  O   O63       1.0  0.37610  0.97180  0.12310  1.0000
  O   O64       1.0  0.12390  0.02820  0.62310  1.0000
  C   C1        1.0  0.75710  0.39170  0.63920  1.0000
  C   C2        1.0  0.74290  0.60830  0.13920  1.0000
  C   C3        1.0  0.24290  0.89170  0.86080  1.0000
  C   C4        1.0  0.25710  0.10830  0.36080  1.0000
  C   C5        1.0  0.24290  0.60830  0.36080  1.0000
  C   C6        1.0  0.25710  0.39170  0.86080  1.0000
  C   C7        1.0  0.75710  0.10830  0.13920  1.0000
  C   C8        1.0  0.74290  0.89170  0.63920  1.0000
  C   C9        1.0  0.72360  0.32660  0.66340  1.0000
  C   C10       1.0  0.77640  0.67340  0.16340  1.0000
  C   C11       1.0  0.27640  0.82660  0.83660  1.0000
  C   C12       1.0  0.22360  0.17340  0.33660  1.0000
  C   C13       1.0  0.27640  0.67340  0.33660  1.0000
  C   C14       1.0  0.22360  0.32660  0.83660  1.0000
  C   C15       1.0  0.72360  0.17340  0.16340  1.0000
  C   C16       1.0  0.77640  0.82660  0.66340  1.0000
  H   H1        1.0  0.77620  0.28870  0.65130  1.0000
  H   H2        1.0  0.72380  0.71130  0.15130  1.0000
  H   H3        1.0  0.22380  0.78870  0.84870  1.0000
  H   H4        1.0  0.27620  0.21130  0.34870  1.0000
  H   H5        1.0  0.22380  0.71130  0.34870  1.0000
  H   H6        1.0  0.27620  0.28870  0.84870  1.0000
  H   H7        1.0  0.77620  0.21130  0.15130  1.0000
  H   H8        1.0  0.72380  0.78870  0.65130  1.0000
  C   C17       1.0  0.61290  0.31740  0.70550  1.0000
  C   C18       1.0  0.88710  0.68260  0.20550  1.0000
  C   C19       1.0  0.38710  0.81740  0.79450  1.0000
  C   C20       1.0  0.11290  0.18260  0.29450  1.0000
  C   C21       1.0  0.38710  0.68260  0.29450  1.0000
  C   C22       1.0  0.11290  0.31740  0.79450  1.0000
  C   C23       1.0  0.61290  0.18260  0.20550  1.0000
  C   C24       1.0  0.88710  0.81740  0.70550  1.0000
  C   C25       1.0  0.53660  0.37420  0.72290  1.0000
  C   C26       1.0  0.96340  0.62580  0.22290  1.0000
  C   C27       1.0  0.46340  0.87420  0.77710  1.0000
  C   C28       1.0  0.03660  0.12580  0.27710  1.0000
  C   C29       1.0  0.46340  0.62580  0.27710  1.0000
  C   C30       1.0  0.03660  0.37420  0.77710  1.0000
  C   C31       1.0  0.53660  0.12580  0.22290  1.0000
  C   C32       1.0  0.96340  0.87420  0.72290  1.0000
  H   H9        1.0  0.46180  0.36830  0.75060  1.0000
  H   H10       1.0  0.03820  0.63170  0.25060  1.0000
  H   H11       1.0  0.53820  0.86830  0.74940  1.0000
  H   H12       1.0  0.96180  0.13170  0.24940  1.0000
  H   H13       1.0  0.53820  0.63170  0.24940  1.0000
  H   H14       1.0  0.96180  0.36830  0.74940  1.0000
  H   H15       1.0  0.46180  0.13170  0.25060  1.0000
  H   H16       1.0  0.03820  0.86830  0.75060  1.0000
  C   C33       1.0  0.56730  0.44000  0.70040  1.0000
  C   C34       1.0  0.93270  0.56000  0.20040  1.0000
  C   C35       1.0  0.43270  0.94000  0.79960  1.0000
  C   C36       1.0  0.06730  0.06000  0.29960  1.0000
  C   C37       1.0  0.43270  0.56000  0.29960  1.0000
  C   C38       1.0  0.06730  0.44000  0.79960  1.0000
  C   C39       1.0  0.56730  0.06000  0.20040  1.0000
  C   C40       1.0  0.93270  0.94000  0.70040  1.0000
  C   C41       1.0  0.67860  0.44800  0.65850  1.0000
  C   C42       1.0  0.82140  0.55200  0.15850  1.0000
  C   C43       1.0  0.32140  0.94800  0.84150  1.0000
  C   C44       1.0  0.17860  0.05200  0.34150  1.0000
  C   C45       1.0  0.32140  0.55200  0.34150  1.0000
  C   C46       1.0  0.17860  0.44800  0.84150  1.0000
  C   C47       1.0  0.67860  0.05200  0.15850  1.0000
  C   C48       1.0  0.82140  0.94800  0.65850  1.0000
  H   H17       1.0  0.70100  0.49170  0.64320  1.0000
  H   H18       1.0  0.79900  0.50830  0.14320  1.0000
  H   H19       1.0  0.29900  0.99170  0.85680  1.0000
  H   H20       1.0  0.20100  0.00830  0.35680  1.0000
  H   H21       1.0  0.29900  0.50830  0.35680  1.0000
  H   H22       1.0  0.20100  0.49170  0.85680  1.0000
  H   H23       1.0  0.70100  0.00830  0.14320  1.0000
  H   H24       1.0  0.79900  0.99170  0.64320  1.0000
  C   C49       1.0  0.88150  0.39970  0.59540  1.0000
  C   C50       1.0  0.61850  0.60030  0.09540  1.0000
  C   C51       1.0  0.11850  0.89970  0.90460  1.0000
  C   C52       1.0  0.38150  0.10030  0.40460  1.0000
  C   C53       1.0  0.11850  0.60030  0.40460  1.0000
  C   C54       1.0  0.38150  0.39970  0.90460  1.0000
  C   C55       1.0  0.88150  0.10030  0.09540  1.0000
  C   C56       1.0  0.61850  0.89970  0.59540  1.0000
  H   H25       1.0  0.94880  0.36520  0.60760  1.0000
  H   H26       1.0  0.55120  0.63480  0.10760  1.0000
  H   H27       1.0  0.05120  0.86520  0.89240  1.0000
  H   H28       1.0  0.44880  0.13480  0.39240  1.0000
  H   H29       1.0  0.05120  0.63480  0.39240  1.0000
  H   H30       1.0  0.44880  0.36520  0.89240  1.0000
  H   H31       1.0  0.94880  0.13480  0.10760  1.0000
  H   H32       1.0  0.55120  0.86520  0.60760  1.0000
  H   H33       1.0  0.92190  0.44470  0.60320  1.0000
  H   H34       1.0  0.57810  0.55530  0.10320  1.0000
  H   H35       1.0  0.07810  0.94470  0.89680  1.0000
  H   H36       1.0  0.42190  0.05530  0.39680  1.0000
  H   H37       1.0  0.07810  0.55530  0.39680  1.0000
  H   H38       1.0  0.42190  0.44470  0.89680  1.0000
  H   H39       1.0  0.92190  0.05530  0.10320  1.0000
  H   H40       1.0  0.57810  0.94470  0.60320  1.0000
  C   C57       1.0  0.85090  0.39270  0.52240  1.0000
  C   C58       1.0  0.64910  0.60730  0.02240  1.0000
  C   C59       1.0  0.14910  0.89270  0.97760  1.0000
  C   C60       1.0  0.35090  0.10730  0.47760  1.0000
  C   C61       1.0  0.14910  0.60730  0.47760  1.0000
  C   C62       1.0  0.35090  0.39270  0.97760  1.0000
  C   C63       1.0  0.85090  0.10730  0.02240  1.0000
  C   C64       1.0  0.64910  0.89270  0.52240  1.0000
  C   C65       1.0  0.58080  0.24680  0.73360  1.0000
  C   C66       1.0  0.91920  0.75320  0.23360  1.0000
  C   C67       1.0  0.41920  0.74680  0.76640  1.0000
  C   C68       1.0  0.08080  0.25320  0.26640  1.0000
  C   C69       1.0  0.41920  0.75320  0.26640  1.0000
  C   C70       1.0  0.08080  0.24680  0.76640  1.0000
  C   C71       1.0  0.58080  0.25320  0.23360  1.0000
  C   C72       1.0  0.91920  0.74680  0.73360  1.0000
  H   H41       1.0  0.66620  0.22210  0.74010  1.0000
  H   H42       1.0  0.83380  0.77790  0.24010  1.0000
  H   H43       1.0  0.33380  0.72210  0.75990  1.0000
  H   H44       1.0  0.16620  0.27790  0.25990  1.0000
  H   H45       1.0  0.33380  0.77790  0.25990  1.0000
  H   H46       1.0  0.16620  0.22210  0.75990  1.0000
  H   H47       1.0  0.66620  0.27790  0.24010  1.0000
  H   H48       1.0  0.83380  0.72210  0.74010  1.0000
  H   H49       1.0  0.53880  0.25280  0.77650  1.0000
  H   H50       1.0  0.96120  0.74720  0.27650  1.0000
  H   H51       1.0  0.46120  0.75280  0.72350  1.0000
  H   H52       1.0  0.03880  0.24720  0.22350  1.0000
  H   H53       1.0  0.46120  0.74720  0.22350  1.0000
  H   H54       1.0  0.03880  0.25280  0.72350  1.0000
  H   H55       1.0  0.53880  0.24720  0.27650  1.0000
  H   H56       1.0  0.96120  0.75280  0.77650  1.0000
  C   C73       1.0  0.48790  0.20330  0.69200  1.0000
  C   C74       1.0  0.01210  0.79670  0.19200  1.0000
  C   C75       1.0  0.51210  0.70330  0.80800  1.0000
  C   C76       1.0  0.98790  0.29670  0.30800  1.0000
  C   C77       1.0  0.51210  0.79670  0.30800  1.0000
  C   C78       1.0  0.98790  0.20330  0.80800  1.0000
  C   C79       1.0  0.48790  0.29670  0.19200  1.0000
  C   C80       1.0  0.01210  0.70330  0.69200  1.0000
  C   C81       1.0  0.49300  0.50260  0.72670  1.0000
  C   C82       1.0  0.00700  0.49740  0.22670  1.0000
  C   C83       1.0  0.50700  0.00260  0.77330  1.0000
  C   C84       1.0  0.99300  0.99740  0.27330  1.0000
  C   C85       1.0  0.50700  0.49740  0.27330  1.0000
  C   C86       1.0  0.99300  0.50260  0.77330  1.0000
  C   C87       1.0  0.49300  0.99740  0.22670  1.0000
  C   C88       1.0  0.00700  0.00260  0.72670  1.0000
  H   H57       1.0  0.45120  0.48970  0.76820  1.0000
  H   H58       1.0  0.04880  0.51030  0.26820  1.0000
  H   H59       1.0  0.54880  0.98970  0.73180  1.0000
  H   H60       1.0  0.95120  0.01030  0.23180  1.0000
  H   H61       1.0  0.54880  0.51030  0.23180  1.0000
  H   H62       1.0  0.95120  0.48970  0.73180  1.0000
  H   H63       1.0  0.45120  0.01030  0.26820  1.0000
  H   H64       1.0  0.04880  0.98970  0.76820  1.0000
  H   H65       1.0  0.56120  0.53750  0.73640  1.0000
  H   H66       1.0  0.93880  0.46250  0.23640  1.0000
  H   H67       1.0  0.43880  0.03750  0.76360  1.0000
  H   H68       1.0  0.06120  0.96250  0.26360  1.0000
  H   H69       1.0  0.43880  0.46250  0.26360  1.0000
  H   H70       1.0  0.06120  0.53750  0.76360  1.0000
  H   H71       1.0  0.56120  0.96250  0.23640  1.0000
  H   H72       1.0  0.93880  0.03750  0.73640  1.0000
  C   C89       1.0  0.38390  0.53570  0.68490  1.0000
  C   C90       1.0  0.11610  0.46430  0.18490  1.0000
  C   C91       1.0  0.61610  0.03570  0.81510  1.0000
  C   C92       1.0  0.88390  0.96430  0.31510  1.0000
  C   C93       1.0  0.61610  0.46430  0.31510  1.0000
  C   C94       1.0  0.88390  0.53570  0.81510  1.0000
  C   C95       1.0  0.38390  0.96430  0.18490  1.0000
  C   C96       1.0  0.11610  0.03570  0.68490  1.0000
