data_image0
_chemical_formula_structural       Zn4S4O40C4H2C6H2C2H2C8H2C6H2C2H2C8H2C6H2C2H2C8H2C6H2C2H2C4
_chemical_formula_sum              "Zn4 S4 O40 C64 H24"
_cell_length_a       9.8817
_cell_length_b       24.8194
_cell_length_c       12.3018
_cell_angle_alpha    90
_cell_angle_beta     97.504
_cell_angle_gamma    90

_space_group_name_H-M_alt    "P 1"
_space_group_IT_number       1

loop_
  _space_group_symop_operation_xyz
  'x, y, z'

loop_
  _atom_site_type_symbol
  _atom_site_label
  _atom_site_symmetry_multiplicity
  _atom_site_fract_x
  _atom_site_fract_y
  _atom_site_fract_z
  _atom_site_occupancy
  Zn  Zn1       1.0  0.98397  0.07709  0.91896  1.0000
  Zn  Zn2       1.0  0.01603  0.57708  0.08104  1.0000
  Zn  Zn3       1.0  0.57561  0.04229  0.56336  1.0000
  Zn  Zn4       1.0  0.42439  0.54229  0.43664  1.0000
  S   S1        1.0  0.13398  0.79537  0.81945  1.0000
  S   S2        1.0  0.86602  0.29537  0.18055  1.0000
  S   S3        1.0  0.35900  0.30837  0.69055  1.0000
  S   S4        1.0  0.64100  0.80837  0.30945  1.0000
  O   O1        1.0  0.96460  0.03364  0.72890  1.0000
  O   O2        1.0  0.03540  0.53364  0.27110  1.0000
  O   O3        1.0  0.96850  0.99823  0.89330  1.0000
  O   O4        1.0  0.03150  0.49823  0.10670  1.0000
  O   O5        1.0  0.82800  0.99103  0.49420  1.0000
  O   O6        1.0  0.17200  0.49103  0.50580  1.0000
  O   O7        1.0  0.68810  0.98331  0.62120  1.0000
  O   O8        1.0  0.31190  0.48331  0.37880  1.0000
  O   O9        1.0  0.18650  0.76254  0.73780  1.0000
  O   O10       1.0  0.81350  0.26254  0.26220  1.0000
  O   O11       1.0  0.22630  0.82170  0.90230  1.0000
  O   O12       1.0  0.77370  0.32170  0.09770  1.0000
  O   O13       1.0  0.67690  0.66962  0.09260  1.0000
  O   O14       1.0  0.32310  0.16962  0.90740  1.0000
  O   O15       1.0  0.83370  0.60697  0.10260  1.0000
  O   O16       1.0  0.16630  0.10697  0.89740  1.0000
  O   O17       1.0  0.81510  0.60559  0.78210  1.0000
  O   O18       1.0  0.18490  0.10559  0.21790  1.0000
  O   O19       1.0  0.95780  0.57268  0.91874  1.0000
  O   O20       1.0  0.04220  0.07268  0.08126  1.0000
  O   O21       1.0  0.73660  0.13054  0.00760  1.0000
  O   O22       1.0  0.26340  0.63054  0.99240  1.0000
  O   O23       1.0  0.84770  0.12894  0.86110  1.0000
  O   O24       1.0  0.15230  0.62894  0.13890  1.0000
  O   O25       1.0  0.58460  0.07943  0.74710  1.0000
  O   O26       1.0  0.41540  0.57943  0.25290  1.0000
  O   O27       1.0  0.59510  0.12138  0.59190  1.0000
  O   O28       1.0  0.40490  0.62138  0.40810  1.0000
  O   O29       1.0  0.28460  0.28169  0.59720  1.0000
  O   O30       1.0  0.71540  0.78169  0.40280  1.0000
  O   O31       1.0  0.28640  0.33019  0.77500  1.0000
  O   O32       1.0  0.71360  0.83019  0.22500  1.0000
  O   O33       1.0  0.78850  0.49669  0.55980  1.0000
  O   O34       1.0  0.21150  0.99669  0.44020  1.0000
  O   O35       1.0  0.62120  0.52024  0.43260  1.0000
  O   O36       1.0  0.37880  0.02024  0.56740  1.0000
  O   O37       1.0  0.45050  0.51928  0.76780  1.0000
  O   O38       1.0  0.54950  0.01928  0.23220  1.0000
  O   O39       1.0  0.45890  0.55067  0.60105  1.0000
  O   O40       1.0  0.54110  0.05067  0.39895  1.0000
  C   C1        1.0  0.02980  0.84626  0.75110  1.0000
  C   C2        1.0  0.97020  0.34626  0.24890  1.0000
  C   C3        1.0  0.02680  0.89654  0.79810  1.0000
  C   C4        1.0  0.97320  0.39654  0.20190  1.0000
  H   H1        1.0  0.07390  0.90280  0.86740  1.0000
  H   H2        1.0  0.92610  0.40280  0.13260  1.0000
  C   C5        1.0  0.95330  0.93803  0.74160  1.0000
  C   C6        1.0  0.04670  0.43803  0.25840  1.0000
  C   C7        1.0  0.87930  0.92768  0.63870  1.0000
  C   C8        1.0  0.12070  0.42768  0.36130  1.0000
  C   C9        1.0  0.88140  0.87637  0.59400  1.0000
  C   C10       1.0  0.11860  0.37637  0.40600  1.0000
  H   H3        1.0  0.83100  0.86940  0.52620  1.0000
  H   H4        1.0  0.16900  0.36940  0.47380  1.0000
  C   C11       1.0  0.95740  0.83547  0.64870  1.0000
  C   C12       1.0  0.04260  0.33547  0.35130  1.0000
  H   H5        1.0  0.96000  0.80140  0.61760  1.0000
  H   H6        1.0  0.04000  0.30140  0.38240  1.0000
  C   C13       1.0  0.96140  0.99398  0.78920  1.0000
  C   C14       1.0  0.03860  0.49398  0.21080  1.0000
  C   C15       1.0  0.79350  0.97139  0.57810  1.0000
  C   C16       1.0  0.20650  0.47139  0.42190  1.0000
  C   C17       1.0  0.02500  0.75397  0.88690  1.0000
  C   C18       1.0  0.97500  0.25397  0.11310  1.0000
  C   C19       1.0  0.99780  0.70225  0.85240  1.0000
  C   C20       1.0  0.00220  0.20225  0.14760  1.0000
  H   H7        1.0  0.03060  0.68970  0.78960  1.0000
  H   H8        1.0  0.96940  0.18970  0.21040  1.0000
  C   C21       1.0  0.92120  0.66825  0.91100  1.0000
  C   C22       1.0  0.07880  0.16825  0.08900  1.0000
  C   C23       1.0  0.86910  0.68739  0.00390  1.0000
  C   C24       1.0  0.13090  0.18739  0.99610  1.0000
  C   C25       1.0  0.89200  0.74131  0.03480  1.0000
  C   C26       1.0  0.10800  0.24131  0.96520  1.0000
  H   H9        1.0  0.85300  0.75510  0.09380  1.0000
  H   H10       1.0  0.14700  0.25510  0.90620  1.0000
  C   C27       1.0  0.97190  0.77430  0.97880  1.0000
  C   C28       1.0  0.02810  0.27430  0.02120  1.0000
  H   H11       1.0  0.99010  0.80960  0.00180  1.0000
  H   H12       1.0  0.00990  0.30960  0.99820  1.0000
  C   C29       1.0  0.89370  0.61131  0.86750  1.0000
  C   C30       1.0  0.10630  0.11131  0.13250  1.0000
  C   C31       1.0  0.78540  0.65264  0.07080  1.0000
  C   C32       1.0  0.21460  0.15264  0.92920  1.0000
  C   C33       1.0  0.48250  0.26254  0.75220  1.0000
  C   C34       1.0  0.51750  0.76254  0.24780  1.0000
  C   C35       1.0  0.50080  0.21442  0.69930  1.0000
  C   C36       1.0  0.49920  0.71442  0.30070  1.0000
  H   H13       1.0  0.45510  0.20830  0.62940  1.0000
  H   H14       1.0  0.54490  0.70830  0.37060  1.0000
  C   C37       1.0  0.58680  0.17540  0.75020  1.0000
  C   C38       1.0  0.41320  0.67540  0.24980  1.0000
  C   C39       1.0  0.65630  0.18521  0.85540  1.0000
  C   C40       1.0  0.34370  0.68521  0.14460  1.0000
  C   C41       1.0  0.63790  0.23385  0.90620  1.0000
  C   C42       1.0  0.36210  0.73385  0.09380  1.0000
  H   H15       1.0  0.68470  0.24040  0.97550  1.0000
  H   H16       1.0  0.31530  0.74040  0.02450  1.0000
  C   C43       1.0  0.55180  0.27285  0.85650  1.0000
  C   C44       1.0  0.44820  0.77285  0.14350  1.0000
  H   H17       1.0  0.54010  0.30540  0.89170  1.0000
  H   H18       1.0  0.45990  0.80540  0.10830  1.0000
  C   C45       1.0  0.75380  0.14424  0.91480  1.0000
  C   C46       1.0  0.24620  0.64424  0.08520  1.0000
  C   C47       1.0  0.59110  0.12176  0.69460  1.0000
  C   C48       1.0  0.40890  0.62176  0.30540  1.0000
  C   C49       1.0  0.44930  0.36231  0.63890  1.0000
  C   C50       1.0  0.55070  0.86231  0.36110  1.0000
  C   C51       1.0  0.43500  0.41350  0.67810  1.0000
  C   C52       1.0  0.56500  0.91350  0.32190  1.0000
  H   H19       1.0  0.38320  0.41920  0.73490  1.0000
  H   H20       1.0  0.61680  0.91920  0.26510  1.0000
  C   C53       1.0  0.49750  0.45675  0.63330  1.0000
  C   C54       1.0  0.50250  0.95675  0.36670  1.0000
  C   C55       1.0  0.58370  0.44756  0.55420  1.0000
  C   C56       1.0  0.41630  0.94756  0.44580  1.0000
  C   C57       1.0  0.59810  0.39541  0.51530  1.0000
  C   C58       1.0  0.40190  0.89541  0.48470  1.0000
  H   H21       1.0  0.65460  0.38910  0.46170  1.0000
  H   H22       1.0  0.34540  0.88910  0.53830  1.0000
  C   C59       1.0  0.52940  0.35310  0.55550  1.0000
  C   C60       1.0  0.47060  0.85310  0.44450  1.0000
  H   H23       1.0  0.53630  0.31860  0.52720  1.0000
  H   H24       1.0  0.46370  0.81860  0.47280  1.0000
  C   C61       1.0  0.67070  0.49208  0.51350  1.0000
  C   C62       1.0  0.32930  0.99208  0.48650  1.0000
  C   C63       1.0  0.46630  0.51252  0.67180  1.0000
  C   C64       1.0  0.53370  0.01252  0.32820  1.0000
