data_image0
_chemical_formula_structural       C2H4C2H4C2H4C2H4C4H2C4H2C4H2C10H2C4H2C4H2C4H4C2H4C2H4C2H4C4H2C4H2C4H2C4O30C6H2C4H2C4H2C2O10In4
_chemical_formula_sum              "C80 H56 O40 In4"
_cell_length_a       12.7593
_cell_length_b       15.0296
_cell_length_c       16.9098
_cell_angle_alpha    114.509
_cell_angle_beta     94.816
_cell_angle_gamma    90.432

_space_group_name_H-M_alt    "P 1"
_space_group_IT_number       1

loop_
  _space_group_symop_operation_xyz
  'x, y, z'

loop_
  _atom_site_type_symbol
  _atom_site_label
  _atom_site_symmetry_multiplicity
  _atom_site_fract_x
  _atom_site_fract_y
  _atom_site_fract_z
  _atom_site_occupancy
  C   C1        1.0  0.83990  0.04050  0.59250  1.0000
  C   C2        1.0  0.16010  0.95950  0.40750  1.0000
  H   H1        1.0  0.86870  0.97450  0.56840  1.0000
  H   H2        1.0  0.13130  0.02550  0.43160  1.0000
  H   H3        1.0  0.76230  0.03310  0.58040  1.0000
  H   H4        1.0  0.23770  0.96690  0.41960  1.0000
  C   C3        1.0  0.87010  0.09100  0.69050  1.0000
  C   C4        1.0  0.12990  0.90900  0.30950  1.0000
  H   H5        1.0  0.94600  0.11060  0.70080  1.0000
  H   H6        1.0  0.05400  0.88940  0.29920  1.0000
  H   H7        1.0  0.85930  0.04350  0.71600  1.0000
  H   H8        1.0  0.14070  0.95650  0.28400  1.0000
  C   C5        1.0  0.80820  0.18130  0.73790  1.0000
  C   C6        1.0  0.19180  0.81870  0.26210  1.0000
  H   H9        1.0  0.82540  0.23340  0.71900  1.0000
  H   H10       1.0  0.17460  0.76660  0.28100  1.0000
  H   H11       1.0  0.73170  0.16460  0.72410  1.0000
  H   H12       1.0  0.26830  0.83540  0.27590  1.0000
  C   C7        1.0  0.83760  0.21660  0.83510  1.0000
  C   C8        1.0  0.16240  0.78340  0.16490  1.0000
  H   H13       1.0  0.82640  0.16250  0.85290  1.0000
  H   H14       1.0  0.17360  0.83750  0.14710  1.0000
  H   H15       1.0  0.91280  0.23870  0.84950  1.0000
  H   H16       1.0  0.08720  0.76130  0.15050  1.0000
  C   C9        1.0  0.78550  0.33390  0.96980  1.0000
  C   C10       1.0  0.21450  0.66610  0.03020  1.0000
  C   C11       1.0  0.84980  0.29300  0.01590  1.0000
  C   C12       1.0  0.15020  0.70700  0.98410  1.0000
  H   H17       1.0  0.88830  0.23710  0.98560  1.0000
  H   H18       1.0  0.11170  0.76290  0.01440  1.0000
  C   C13       1.0  0.85680  0.33550  0.10680  1.0000
  C   C14       1.0  0.14320  0.66450  0.89320  1.0000
  C   C15       1.0  0.80240  0.41840  0.15200  1.0000
  C   C16       1.0  0.19760  0.58160  0.84800  1.0000
  H   H19       1.0  0.80710  0.44710  0.21400  1.0000
  H   H20       1.0  0.19290  0.55290  0.78600  1.0000
  C   C17       1.0  0.74000  0.45890  0.10340  1.0000
  C   C18       1.0  0.26000  0.54110  0.89660  1.0000
  C   C19       1.0  0.73210  0.41630  0.01340  1.0000
  C   C20       1.0  0.26790  0.58370  0.98660  1.0000
  H   H21       1.0  0.68950  0.44410  0.98140  1.0000
  H   H22       1.0  0.31050  0.55590  0.01860  1.0000
  C   C21       1.0  0.68350  0.54970  0.15070  1.0000
  C   C22       1.0  0.31650  0.45030  0.84930  1.0000
  C   C23       1.0  0.92980  0.29240  0.15410  1.0000
  C   C24       1.0  0.07020  0.70760  0.84590  1.0000
  C   C25       1.0  0.22380  0.08310  0.15670  1.0000
  C   C26       1.0  0.77620  0.91690  0.84330  1.0000
  C   C27       1.0  0.29470  0.00320  0.10770  1.0000
  C   C28       1.0  0.70530  0.99680  0.89230  1.0000
  C   C29       1.0  0.30040  0.97940  0.01970  1.0000
  C   C30       1.0  0.69960  0.02060  0.98030  1.0000
  H   H23       1.0  0.26340  0.01560  0.99260  1.0000
  H   H24       1.0  0.73660  0.98440  0.00740  1.0000
  C   C31       1.0  0.36070  0.90260  0.97160  1.0000
  C   C32       1.0  0.63930  0.09740  0.02840  1.0000
  C   C33       1.0  0.40990  0.84740  0.01140  1.0000
  C   C34       1.0  0.59010  0.15260  0.98860  1.0000
  H   H25       1.0  0.44780  0.79230  0.97780  1.0000
  H   H26       1.0  0.55220  0.20770  0.02220  1.0000
  C   C35       1.0  0.40450  0.87140  0.09790  1.0000
  C   C36       1.0  0.59550  0.12860  0.90210  1.0000
  C   C37       1.0  0.34660  0.95130  0.14920  1.0000
  C   C38       1.0  0.65340  0.04870  0.85080  1.0000
  H   H27       1.0  0.34340  0.96880  0.20980  1.0000
  H   H28       1.0  0.65660  0.03120  0.79020  1.0000
  C   C39       1.0  0.45870  0.81150  0.14190  1.0000
  C   C40       1.0  0.54130  0.18850  0.85810  1.0000
  C   C41       1.0  0.33640  0.94040  0.84680  1.0000
  C   C42       1.0  0.66360  0.05960  0.15320  1.0000
  H   H29       1.0  0.36800  0.00720  0.88090  1.0000
  H   H30       1.0  0.63200  0.99280  0.11910  1.0000
  H   H31       1.0  0.25890  0.94330  0.84620  1.0000
  H   H32       1.0  0.74110  0.05670  0.15380  1.0000
  C   C43       1.0  0.36790  0.90020  0.75460  1.0000
  C   C44       1.0  0.63210  0.09980  0.24540  1.0000
  H   H33       1.0  0.44500  0.89300  0.75640  1.0000
  H   H34       1.0  0.55500  0.10700  0.24360  1.0000
  H   H35       1.0  0.35110  0.94790  0.72950  1.0000
  H   H36       1.0  0.64890  0.05210  0.27050  1.0000
  C   C45       1.0  0.31320  0.80150  0.69490  1.0000
  C   C46       1.0  0.68680  0.19850  0.30510  1.0000
  H   H37       1.0  0.33650  0.75160  0.71580  1.0000
  H   H38       1.0  0.66350  0.24840  0.28420  1.0000
  H   H39       1.0  0.23620  0.80630  0.69780  1.0000
  H   H40       1.0  0.76380  0.19370  0.30220  1.0000
  C   C47       1.0  0.33760  0.76930  0.60100  1.0000
  C   C48       1.0  0.66240  0.23070  0.39900  1.0000
  H   H41       1.0  0.30890  0.81520  0.57720  1.0000
  H   H42       1.0  0.69110  0.18480  0.42280  1.0000
  H   H43       1.0  0.41470  0.76760  0.59730  1.0000
  H   H44       1.0  0.58530  0.23240  0.40270  1.0000
  C   C49       1.0  0.30050  0.62680  0.46560  1.0000
  C   C50       1.0  0.69950  0.37320  0.53440  1.0000
  C   C51       1.0  0.35950  0.66490  0.42060  1.0000
  C   C52       1.0  0.64050  0.33510  0.57940  1.0000
  H   H45       1.0  0.39660  0.72650  0.45040  1.0000
  H   H46       1.0  0.60340  0.27350  0.54960  1.0000
  C   C53       1.0  0.36340  0.61090  0.33050  1.0000
  C   C54       1.0  0.63660  0.38910  0.66950  1.0000
  C   C55       1.0  0.30830  0.52100  0.28540  1.0000
  C   C56       1.0  0.69170  0.47900  0.71460  1.0000
  H   H47       1.0  0.30910  0.48670  0.22400  1.0000
  H   H48       1.0  0.69090  0.51330  0.77600  1.0000
  C   C57       1.0  0.25250  0.48250  0.33140  1.0000
  C   C58       1.0  0.74750  0.51750  0.66860  1.0000
  C   C59       1.0  0.24750  0.53420  0.42190  1.0000
  C   C60       1.0  0.75250  0.46580  0.57810  1.0000
  H   H49       1.0  0.20900  0.50720  0.45300  1.0000
  H   H50       1.0  0.79100  0.49280  0.54700  1.0000
  C   C61       1.0  0.19640  0.38490  0.28720  1.0000
  C   C62       1.0  0.80360  0.61510  0.71280  1.0000
  C   C63       1.0  0.43380  0.64940  0.28490  1.0000
  C   C64       1.0  0.56620  0.35060  0.71510  1.0000
  O   O1        1.0  0.77360  0.29550  0.88050  1.0000
  O   O2        1.0  0.22640  0.70450  0.11950  1.0000
  O   O3        1.0  0.64470  0.59630  0.10690  1.0000
  O   O4        1.0  0.35530  0.40370  0.89310  1.0000
  O   O5        1.0  0.67380  0.58240  0.23070  1.0000
  O   O6        1.0  0.32620  0.41760  0.76930  1.0000
  O   O7        1.0  0.94440  0.32890  0.23640  1.0000
  O   O8        1.0  0.05560  0.67110  0.76360  1.0000
  O   O9        1.0  0.98220  0.22050  0.10910  1.0000
  O   O10       1.0  0.01780  0.77950  0.89090  1.0000
  O   O11       1.0  0.16650  0.11990  0.11470  1.0000
  O   O12       1.0  0.83350  0.88010  0.88530  1.0000
  O   O13       1.0  0.22120  0.11330  0.23770  1.0000
  O   O14       1.0  0.77880  0.88670  0.76230  1.0000
  O   O15       1.0  0.47150  0.84290  0.22230  1.0000
  O   O16       1.0  0.52850  0.15710  0.77770  1.0000
  O   O17       1.0  0.49520  0.73060  0.09310  1.0000
  O   O18       1.0  0.50480  0.26940  0.90690  1.0000
  O   O19       1.0  0.37430  0.87520  0.88560  1.0000
  O   O20       1.0  0.62570  0.12480  0.11440  1.0000
  O   O21       1.0  0.28850  0.67250  0.55240  1.0000
  O   O22       1.0  0.71150  0.32750  0.44760  1.0000
  O   O23       1.0  0.17800  0.34620  0.20600  1.0000
  O   O24       1.0  0.82200  0.65380  0.79400  1.0000
  O   O25       1.0  0.16710  0.34160  0.33230  1.0000
  O   O26       1.0  0.83290  0.65840  0.66770  1.0000
  O   O27       1.0  0.43470  0.60690  0.20240  1.0000
  O   O28       1.0  0.56530  0.39310  0.79760  1.0000
  O   O29       1.0  0.49610  0.72110  0.32770  1.0000
  O   O30       1.0  0.50390  0.27890  0.67230  1.0000
  C   C65       1.0  0.97360  0.12050  0.28940  1.0000
  C   C66       1.0  0.02640  0.87950  0.71060  1.0000
  C   C67       1.0  0.91750  0.06870  0.33130  1.0000
  C   C68       1.0  0.08250  0.93130  0.66870  1.0000
  C   C69       1.0  0.92370  0.10630  0.42170  1.0000
  C   C70       1.0  0.07630  0.89370  0.57830  1.0000
  H   H51       1.0  0.96430  0.16510  0.45600  1.0000
  H   H52       1.0  0.03570  0.83490  0.54400  1.0000
  C   C71       1.0  0.86960  0.05740  0.46300  1.0000
  C   C72       1.0  0.13040  0.94260  0.53700  1.0000
  C   C73       1.0  0.80860  0.97330  0.41160  1.0000
  C   C74       1.0  0.19140  0.02670  0.58840  1.0000
  H   H53       1.0  0.77170  0.94000  0.43850  1.0000
  H   H54       1.0  0.22830  0.06000  0.56150  1.0000
  C   C75       1.0  0.80080  0.93750  0.32150  1.0000
  C   C76       1.0  0.19920  0.06250  0.67850  1.0000
  C   C77       1.0  0.85460  0.98270  0.28120  1.0000
  C   C78       1.0  0.14540  0.01730  0.71880  1.0000
  H   H55       1.0  0.84980  0.95640  0.21930  1.0000
  H   H56       1.0  0.15020  0.04360  0.78070  1.0000
  C   C79       1.0  0.72720  0.85110  0.26930  1.0000
  C   C80       1.0  0.27280  0.14890  0.73070  1.0000
  O   O31       1.0  0.97270  0.08740  0.20700  1.0000
  O   O32       1.0  0.02730  0.91260  0.79300  1.0000
  O   O33       1.0  0.02550  0.19970  0.33470  1.0000
  O   O34       1.0  0.97450  0.80030  0.66530  1.0000
  O   O35       1.0  0.70240  0.82820  0.19070  1.0000
  O   O36       1.0  0.29760  0.17180  0.80930  1.0000
  O   O37       1.0  0.68780  0.80600  0.30930  1.0000
  O   O38       1.0  0.31220  0.19400  0.69070  1.0000
  O   O39       1.0  0.88230  0.09960  0.55180  1.0000
  O   O40       1.0  0.11770  0.90040  0.44820  1.0000
  In  In1       1.0  0.08178  0.21821  0.22132  1.0000
  In  In2       1.0  0.91822  0.78179  0.77868  1.0000
  In  In3       1.0  0.57124  0.71066  0.20879  1.0000
  In  In4       1.0  0.42876  0.28934  0.79121  1.0000
