data_image0
_chemical_formula_structural       C48H16C16H16F8Ni16O72S8H16
_chemical_formula_sum              "C64 H48 F8 Ni16 O72 S8"
_cell_length_a       10.6239
_cell_length_b       12.4953
_cell_length_c       21.5033
_cell_angle_alpha    90
_cell_angle_beta     90
_cell_angle_gamma    90

_space_group_name_H-M_alt    "P 1"
_space_group_IT_number       1

loop_
  _space_group_symop_operation_xyz
  'x, y, z'

loop_
  _atom_site_type_symbol
  _atom_site_label
  _atom_site_symmetry_multiplicity
  _atom_site_fract_x
  _atom_site_fract_y
  _atom_site_fract_z
  _atom_site_occupancy
  C   C1        1.0  0.18500  0.36460  0.13700  1.0000
  C   C2        1.0  0.81500  0.63540  0.13700  1.0000
  C   C3        1.0  0.31500  0.86460  0.86300  1.0000
  C   C4        1.0  0.68500  0.13540  0.86300  1.0000
  C   C5        1.0  0.68500  0.86460  0.63700  1.0000
  C   C6        1.0  0.31500  0.13540  0.63700  1.0000
  C   C7        1.0  0.81500  0.36460  0.36300  1.0000
  C   C8        1.0  0.18500  0.63540  0.36300  1.0000
  C   C9        1.0  0.81500  0.63540  0.86300  1.0000
  C   C10       1.0  0.18500  0.36460  0.86300  1.0000
  C   C11       1.0  0.68500  0.13540  0.13700  1.0000
  C   C12       1.0  0.31500  0.86460  0.13700  1.0000
  C   C13       1.0  0.31500  0.13540  0.36300  1.0000
  C   C14       1.0  0.68500  0.86460  0.36300  1.0000
  C   C15       1.0  0.18500  0.63540  0.63700  1.0000
  C   C16       1.0  0.81500  0.36460  0.63700  1.0000
  C   C17       1.0  0.22130  0.30710  0.19630  1.0000
  C   C18       1.0  0.77870  0.69290  0.19630  1.0000
  C   C19       1.0  0.27870  0.80710  0.80370  1.0000
  C   C20       1.0  0.72130  0.19290  0.80370  1.0000
  C   C21       1.0  0.72130  0.80710  0.69630  1.0000
  C   C22       1.0  0.27870  0.19290  0.69630  1.0000
  C   C23       1.0  0.77870  0.30710  0.30370  1.0000
  C   C24       1.0  0.22130  0.69290  0.30370  1.0000
  C   C25       1.0  0.77870  0.69290  0.80370  1.0000
  C   C26       1.0  0.22130  0.30710  0.80370  1.0000
  C   C27       1.0  0.72130  0.19290  0.19630  1.0000
  C   C28       1.0  0.27870  0.80710  0.19630  1.0000
  C   C29       1.0  0.27870  0.19290  0.30370  1.0000
  C   C30       1.0  0.72130  0.80710  0.30370  1.0000
  C   C31       1.0  0.22130  0.69290  0.69630  1.0000
  C   C32       1.0  0.77870  0.30710  0.69630  1.0000
  C   C33       1.0  0.30960  0.22500  0.19450  1.0000
  C   C34       1.0  0.69040  0.77500  0.19450  1.0000
  C   C35       1.0  0.19040  0.72500  0.80550  1.0000
  C   C36       1.0  0.80960  0.27500  0.80550  1.0000
  C   C37       1.0  0.80960  0.72500  0.69450  1.0000
  C   C38       1.0  0.19040  0.27500  0.69450  1.0000
  C   C39       1.0  0.69040  0.22500  0.30550  1.0000
  C   C40       1.0  0.30960  0.77500  0.30550  1.0000
  C   C41       1.0  0.69040  0.77500  0.80550  1.0000
  C   C42       1.0  0.30960  0.22500  0.80550  1.0000
  C   C43       1.0  0.80960  0.27500  0.19450  1.0000
  C   C44       1.0  0.19040  0.72500  0.19450  1.0000
  C   C45       1.0  0.19040  0.27500  0.30550  1.0000
  C   C46       1.0  0.80960  0.72500  0.30550  1.0000
  C   C47       1.0  0.30960  0.77500  0.69450  1.0000
  C   C48       1.0  0.69040  0.22500  0.69450  1.0000
  H   H1        1.0  0.35101  0.20845  0.15657  1.0000
  H   H2        1.0  0.64899  0.79155  0.15657  1.0000
  H   H3        1.0  0.14899  0.70845  0.84343  1.0000
  H   H4        1.0  0.85101  0.29155  0.84343  1.0000
  H   H5        1.0  0.85101  0.70845  0.65657  1.0000
  H   H6        1.0  0.14899  0.29155  0.65657  1.0000
  H   H7        1.0  0.64899  0.20845  0.34343  1.0000
  H   H8        1.0  0.35101  0.79155  0.34343  1.0000
  H   H9        1.0  0.64899  0.79155  0.84343  1.0000
  H   H10       1.0  0.35101  0.20845  0.84343  1.0000
  H   H11       1.0  0.85101  0.29155  0.15657  1.0000
  H   H12       1.0  0.14899  0.70845  0.15657  1.0000
  H   H13       1.0  0.14899  0.29155  0.34343  1.0000
  H   H14       1.0  0.85101  0.70845  0.34343  1.0000
  H   H15       1.0  0.35101  0.79155  0.65657  1.0000
  H   H16       1.0  0.64899  0.20845  0.65657  1.0000
  C   C49       1.0  0.33750  0.16720  0.24790  1.0000
  C   C50       1.0  0.66250  0.83280  0.24790  1.0000
  C   C51       1.0  0.16250  0.66720  0.75210  1.0000
  C   C52       1.0  0.83750  0.33280  0.75210  1.0000
  C   C53       1.0  0.83750  0.66720  0.74790  1.0000
  C   C54       1.0  0.16250  0.33280  0.74790  1.0000
  C   C55       1.0  0.66250  0.16720  0.25210  1.0000
  C   C56       1.0  0.33750  0.83280  0.25210  1.0000
  C   C57       1.0  0.66250  0.83280  0.75210  1.0000
  C   C58       1.0  0.33750  0.16720  0.75210  1.0000
  C   C59       1.0  0.83750  0.33280  0.24790  1.0000
  C   C60       1.0  0.16250  0.66720  0.24790  1.0000
  C   C61       1.0  0.16250  0.33280  0.25210  1.0000
  C   C62       1.0  0.83750  0.66720  0.25210  1.0000
  C   C63       1.0  0.33750  0.83280  0.74790  1.0000
  C   C64       1.0  0.66250  0.16720  0.74790  1.0000
  H   H17       1.0  0.39661  0.11018  0.24625  1.0000
  H   H18       1.0  0.60339  0.88982  0.24625  1.0000
  H   H19       1.0  0.10339  0.61018  0.75375  1.0000
  H   H20       1.0  0.89661  0.38982  0.75375  1.0000
  H   H21       1.0  0.89661  0.61018  0.74625  1.0000
  H   H22       1.0  0.10339  0.38982  0.74625  1.0000
  H   H23       1.0  0.60339  0.11018  0.25375  1.0000
  H   H24       1.0  0.39661  0.88982  0.25375  1.0000
  H   H25       1.0  0.60339  0.88982  0.75375  1.0000
  H   H26       1.0  0.39661  0.11018  0.75375  1.0000
  H   H27       1.0  0.89661  0.38982  0.24625  1.0000
  H   H28       1.0  0.10339  0.61018  0.24625  1.0000
  H   H29       1.0  0.10339  0.38982  0.25375  1.0000
  H   H30       1.0  0.89661  0.61018  0.25375  1.0000
  H   H31       1.0  0.39661  0.88982  0.74625  1.0000
  H   H32       1.0  0.60339  0.11018  0.74625  1.0000
  F   F1        1.0  0.07670  0.41160  0.00000  1.0000
  F   F2        1.0  0.92330  0.58840  0.00000  1.0000
  F   F3        1.0  0.42330  0.91160  0.00000  1.0000
  F   F4        1.0  0.57670  0.08840  0.00000  1.0000
  F   F5        1.0  0.57670  0.91160  0.50000  1.0000
  F   F6        1.0  0.42330  0.08840  0.50000  1.0000
  F   F7        1.0  0.92330  0.41160  0.50000  1.0000
  F   F8        1.0  0.07670  0.58840  0.50000  1.0000
  Ni  Ni1       1.0  0.00000  0.50000  0.06983  1.0000
  Ni  Ni2       1.0  0.50000  0.00000  0.93017  1.0000
  Ni  Ni3       1.0  0.50000  0.00000  0.56983  1.0000
  Ni  Ni4       1.0  0.00000  0.50000  0.43017  1.0000
  Ni  Ni5       1.0  0.00000  0.50000  0.93017  1.0000
  Ni  Ni6       1.0  0.50000  0.00000  0.06983  1.0000
  Ni  Ni7       1.0  0.50000  0.00000  0.43017  1.0000
  Ni  Ni8       1.0  0.00000  0.50000  0.56983  1.0000
  Ni  Ni9       1.0  0.25645  0.36279  0.00000  1.0000
  Ni  Ni10      1.0  0.74355  0.63721  0.00000  1.0000
  Ni  Ni11      1.0  0.24355  0.86279  0.00000  1.0000
  Ni  Ni12      1.0  0.75645  0.13721  0.00000  1.0000
  Ni  Ni13      1.0  0.75645  0.86279  0.50000  1.0000
  Ni  Ni14      1.0  0.24355  0.13721  0.50000  1.0000
  Ni  Ni15      1.0  0.74355  0.36279  0.50000  1.0000
  Ni  Ni16      1.0  0.25645  0.63721  0.50000  1.0000
  O   O1        1.0  0.07890  0.40880  0.13568  1.0000
  O   O2        1.0  0.92110  0.59120  0.13568  1.0000
  O   O3        1.0  0.42110  0.90880  0.86432  1.0000
  O   O4        1.0  0.57890  0.09120  0.86432  1.0000
  O   O5        1.0  0.57890  0.90880  0.63568  1.0000
  O   O6        1.0  0.42110  0.09120  0.63568  1.0000
  O   O7        1.0  0.92110  0.40880  0.36432  1.0000
  O   O8        1.0  0.07890  0.59120  0.36432  1.0000
  O   O9        1.0  0.92110  0.59120  0.86432  1.0000
  O   O10       1.0  0.07890  0.40880  0.86432  1.0000
  O   O11       1.0  0.57890  0.09120  0.13568  1.0000
  O   O12       1.0  0.42110  0.90880  0.13568  1.0000
  O   O13       1.0  0.42110  0.09120  0.36432  1.0000
  O   O14       1.0  0.57890  0.90880  0.36432  1.0000
  O   O15       1.0  0.07890  0.59120  0.63568  1.0000
  O   O16       1.0  0.92110  0.40880  0.63568  1.0000
  O   O17       1.0  0.26530  0.36210  0.09390  1.0000
  O   O18       1.0  0.73470  0.63790  0.09390  1.0000
  O   O19       1.0  0.23470  0.86210  0.90610  1.0000
  O   O20       1.0  0.76530  0.13790  0.90610  1.0000
  O   O21       1.0  0.76530  0.86210  0.59390  1.0000
  O   O22       1.0  0.23470  0.13790  0.59390  1.0000
  O   O23       1.0  0.73470  0.36210  0.40610  1.0000
  O   O24       1.0  0.26530  0.63790  0.40610  1.0000
  O   O25       1.0  0.73470  0.63790  0.90610  1.0000
  O   O26       1.0  0.26530  0.36210  0.90610  1.0000
  O   O27       1.0  0.76530  0.13790  0.09390  1.0000
  O   O28       1.0  0.23470  0.86210  0.09390  1.0000
  O   O29       1.0  0.23470  0.13790  0.40610  1.0000
  O   O30       1.0  0.76530  0.86210  0.40610  1.0000
  O   O31       1.0  0.26530  0.63790  0.59390  1.0000
  O   O32       1.0  0.73470  0.36210  0.59390  1.0000
  O   O33       1.0  0.84400  0.39760  0.05681  1.0000
  O   O34       1.0  0.15600  0.60240  0.05681  1.0000
  O   O35       1.0  0.65600  0.89760  0.94319  1.0000
  O   O36       1.0  0.34400  0.10240  0.94319  1.0000
  O   O37       1.0  0.34400  0.89760  0.55681  1.0000
  O   O38       1.0  0.65600  0.10240  0.55681  1.0000
  O   O39       1.0  0.15600  0.39760  0.44319  1.0000
  O   O40       1.0  0.84400  0.60240  0.44319  1.0000
  O   O41       1.0  0.15600  0.60240  0.94319  1.0000
  O   O42       1.0  0.84400  0.39760  0.94319  1.0000
  O   O43       1.0  0.34400  0.10240  0.05681  1.0000
  O   O44       1.0  0.65600  0.89760  0.05681  1.0000
  O   O45       1.0  0.65600  0.10240  0.44319  1.0000
  O   O46       1.0  0.34400  0.89760  0.44319  1.0000
  O   O47       1.0  0.84400  0.60240  0.55681  1.0000
  O   O48       1.0  0.15600  0.39760  0.55681  1.0000
  O   O49       1.0  0.69200  0.29360  0.00000  1.0000
  O   O50       1.0  0.30800  0.70640  0.00000  1.0000
  O   O51       1.0  0.80800  0.79360  0.00000  1.0000
  O   O52       1.0  0.19200  0.20640  0.00000  1.0000
  O   O53       1.0  0.19200  0.79360  0.50000  1.0000
  O   O54       1.0  0.80800  0.20640  0.50000  1.0000
  O   O55       1.0  0.30800  0.29360  0.50000  1.0000
  O   O56       1.0  0.69200  0.70640  0.50000  1.0000
  O   O57       1.0  0.67290  0.48250  0.00000  1.0000
  O   O58       1.0  0.32710  0.51750  0.00000  1.0000
  O   O59       1.0  0.82710  0.98250  0.00000  1.0000
  O   O60       1.0  0.17290  0.01750  0.00000  1.0000
  O   O61       1.0  0.17290  0.98250  0.50000  1.0000
  O   O62       1.0  0.82710  0.01750  0.50000  1.0000
  O   O63       1.0  0.32710  0.48250  0.50000  1.0000
  O   O64       1.0  0.67290  0.51750  0.50000  1.0000
  O   O65       1.0  0.44010  0.31030  0.00000  1.0000
  O   O66       1.0  0.55990  0.68970  0.00000  1.0000
  O   O67       1.0  0.05990  0.81030  0.00000  1.0000
  O   O68       1.0  0.94010  0.18970  0.00000  1.0000
  O   O69       1.0  0.94010  0.81030  0.50000  1.0000
  O   O70       1.0  0.05990  0.18970  0.50000  1.0000
  O   O71       1.0  0.55990  0.31030  0.50000  1.0000
  O   O72       1.0  0.44010  0.68970  0.50000  1.0000
  S   S1        1.0  0.76604  0.39356  0.00000  1.0000
  S   S2        1.0  0.23396  0.60644  0.00000  1.0000
  S   S3        1.0  0.73396  0.89356  0.00000  1.0000
  S   S4        1.0  0.26604  0.10644  0.00000  1.0000
  S   S5        1.0  0.26604  0.89356  0.50000  1.0000
  S   S6        1.0  0.73396  0.10644  0.50000  1.0000
  S   S7        1.0  0.23396  0.39356  0.50000  1.0000
  S   S8        1.0  0.76604  0.60644  0.50000  1.0000
  H   H33       1.0  0.47818  0.25011  0.00000  1.0000
  H   H34       1.0  0.52182  0.74989  0.00000  1.0000
  H   H35       1.0  0.02182  0.75011  0.00000  1.0000
  H   H36       1.0  0.97818  0.24989  0.00000  1.0000
  H   H37       1.0  0.97818  0.75011  0.50000  1.0000
  H   H38       1.0  0.02182  0.24989  0.50000  1.0000
  H   H39       1.0  0.52182  0.25011  0.50000  1.0000
  H   H40       1.0  0.47818  0.74989  0.50000  1.0000
  H   H41       1.0  0.50157  0.35520  0.00000  1.0000
  H   H42       1.0  0.49843  0.64480  0.00000  1.0000
  H   H43       1.0  0.99843  0.85520  0.00000  1.0000
  H   H44       1.0  0.00157  0.14480  0.00000  1.0000
  H   H45       1.0  0.00157  0.85520  0.50000  1.0000
  H   H46       1.0  0.99843  0.14480  0.50000  1.0000
  H   H47       1.0  0.49843  0.35520  0.50000  1.0000
  H   H48       1.0  0.50157  0.64480  0.50000  1.0000
