data_image0
_chemical_formula_structural       In6O32N8C24H8C8H8C16H8C8H8C16H8C16H8C16H8C16H8C8H8C16H8C8H8C32H8C16H8
_chemical_formula_sum              "In6 O32 N8 C200 H104"
_cell_length_a       23.5482
_cell_length_b       23.548
_cell_length_c       31.983
_cell_angle_alpha    90
_cell_angle_beta     90
_cell_angle_gamma    90

_space_group_name_H-M_alt    "P 1"
_space_group_IT_number       1

loop_
  _space_group_symop_operation_xyz
  'x, y, z'

loop_
  _atom_site_type_symbol
  _atom_site_label
  _atom_site_symmetry_multiplicity
  _atom_site_fract_x
  _atom_site_fract_y
  _atom_site_fract_z
  _atom_site_occupancy
  In  In1       1.0  0.50000  0.50000  0.25002  1.0000
  In  In2       1.0  0.00000  0.00000  0.24998  1.0000
  In  In3       1.0  0.50000  0.50000  0.74998  1.0000
  In  In4       1.0  0.00000  0.00000  0.75002  1.0000
  In  In5       1.0  0.50000  0.00000  0.50000  1.0000
  In  In6       1.0  0.00000  0.50000  0.00000  1.0000
  O   O1        1.0  0.09001  0.03198  0.24006  1.0000
  O   O2        1.0  0.90999  0.96802  0.24006  1.0000
  O   O3        1.0  0.40999  0.53198  0.25994  1.0000
  O   O4        1.0  0.59001  0.46802  0.25994  1.0000
  O   O5        1.0  0.90999  0.96802  0.75994  1.0000
  O   O6        1.0  0.09001  0.03198  0.75994  1.0000
  O   O7        1.0  0.59001  0.46802  0.74006  1.0000
  O   O8        1.0  0.40999  0.53198  0.74006  1.0000
  O   O9        1.0  0.06035  0.01866  0.30570  1.0000
  O   O10       1.0  0.93965  0.98134  0.30570  1.0000
  O   O11       1.0  0.43965  0.51866  0.19430  1.0000
  O   O12       1.0  0.56035  0.48134  0.19430  1.0000
  O   O13       1.0  0.93965  0.98134  0.69430  1.0000
  O   O14       1.0  0.06035  0.01866  0.69430  1.0000
  O   O15       1.0  0.56035  0.48134  0.80570  1.0000
  O   O16       1.0  0.43965  0.51866  0.80570  1.0000
  O   O17       1.0  0.46824  0.40964  0.24004  1.0000
  O   O18       1.0  0.53176  0.59036  0.24004  1.0000
  O   O19       1.0  0.03176  0.90964  0.25996  1.0000
  O   O20       1.0  0.96824  0.09036  0.25996  1.0000
  O   O21       1.0  0.53176  0.59036  0.75996  1.0000
  O   O22       1.0  0.46824  0.40964  0.75996  1.0000
  O   O23       1.0  0.96824  0.09036  0.74004  1.0000
  O   O24       1.0  0.03176  0.90964  0.74004  1.0000
  O   O25       1.0  0.48218  0.44032  0.30647  1.0000
  O   O26       1.0  0.51782  0.55968  0.30647  1.0000
  O   O27       1.0  0.01782  0.94032  0.19353  1.0000
  O   O28       1.0  0.98218  0.05968  0.19353  1.0000
  O   O29       1.0  0.51782  0.55968  0.69353  1.0000
  O   O30       1.0  0.48218  0.44032  0.69353  1.0000
  O   O31       1.0  0.98218  0.05968  0.80647  1.0000
  O   O32       1.0  0.01782  0.94032  0.80647  1.0000
  N   N1        1.0  0.44180  0.05810  0.50000  1.0000
  N   N2        1.0  0.55820  0.94190  0.50000  1.0000
  N   N3        1.0  0.05820  0.55810  0.00000  1.0000
  N   N4        1.0  0.94180  0.44190  0.00000  1.0000
  N   N5        1.0  0.50000  0.00000  0.43780  1.0000
  N   N6        1.0  0.00000  0.50000  0.06220  1.0000
  N   N7        1.0  0.50000  0.00000  0.56220  1.0000
  N   N8        1.0  0.00000  0.50000  0.93780  1.0000
  C   C1        1.0  0.46730  0.40310  0.28030  1.0000
  C   C2        1.0  0.53270  0.59690  0.28030  1.0000
  C   C3        1.0  0.03270  0.90310  0.21970  1.0000
  C   C4        1.0  0.96730  0.09690  0.21970  1.0000
  C   C5        1.0  0.53270  0.59690  0.71970  1.0000
  C   C6        1.0  0.46730  0.40310  0.71970  1.0000
  C   C7        1.0  0.96730  0.09690  0.78030  1.0000
  C   C8        1.0  0.03270  0.90310  0.78030  1.0000
  C   C9        1.0  0.44860  0.34250  0.29530  1.0000
  C   C10       1.0  0.55140  0.65750  0.29530  1.0000
  C   C11       1.0  0.05140  0.84250  0.20470  1.0000
  C   C12       1.0  0.94860  0.15750  0.20470  1.0000
  C   C13       1.0  0.55140  0.65750  0.70470  1.0000
  C   C14       1.0  0.44860  0.34250  0.70470  1.0000
  C   C15       1.0  0.94860  0.15750  0.79530  1.0000
  C   C16       1.0  0.05140  0.84250  0.79530  1.0000
  C   C17       1.0  0.42880  0.30390  0.26860  1.0000
  C   C18       1.0  0.57120  0.69610  0.26860  1.0000
  C   C19       1.0  0.07120  0.80390  0.23140  1.0000
  C   C20       1.0  0.92880  0.19610  0.23140  1.0000
  C   C21       1.0  0.57120  0.69610  0.73140  1.0000
  C   C22       1.0  0.42880  0.30390  0.73140  1.0000
  C   C23       1.0  0.92880  0.19610  0.76860  1.0000
  C   C24       1.0  0.07120  0.80390  0.76860  1.0000
  H   H1        1.0  0.42870  0.31130  0.24000  1.0000
  H   H2        1.0  0.57130  0.68870  0.24000  1.0000
  H   H3        1.0  0.07130  0.81130  0.26000  1.0000
  H   H4        1.0  0.92870  0.18870  0.26000  1.0000
  H   H5        1.0  0.57130  0.68870  0.76000  1.0000
  H   H6        1.0  0.42870  0.31130  0.76000  1.0000
  H   H7        1.0  0.92870  0.18870  0.74000  1.0000
  H   H8        1.0  0.07130  0.81130  0.74000  1.0000
  C   C25       1.0  0.40790  0.25130  0.28410  1.0000
  C   C26       1.0  0.59210  0.74870  0.28410  1.0000
  C   C27       1.0  0.09210  0.75130  0.21590  1.0000
  C   C28       1.0  0.90790  0.24870  0.21590  1.0000
  C   C29       1.0  0.59210  0.74870  0.71590  1.0000
  C   C30       1.0  0.40790  0.25130  0.71590  1.0000
  C   C31       1.0  0.90790  0.24870  0.78410  1.0000
  C   C32       1.0  0.09210  0.75130  0.78410  1.0000
  H   H9        1.0  0.39320  0.22480  0.26540  1.0000
  H   H10       1.0  0.60680  0.77520  0.26540  1.0000
  H   H11       1.0  0.10680  0.72480  0.23460  1.0000
  H   H12       1.0  0.89320  0.27520  0.23460  1.0000
  H   H13       1.0  0.60680  0.77520  0.73460  1.0000
  H   H14       1.0  0.39320  0.22480  0.73460  1.0000
  H   H15       1.0  0.89320  0.27520  0.76540  1.0000
  H   H16       1.0  0.10680  0.72480  0.76540  1.0000
  C   C33       1.0  0.40920  0.23870  0.32710  1.0000
  C   C34       1.0  0.59080  0.76130  0.32710  1.0000
  C   C35       1.0  0.09080  0.73870  0.17290  1.0000
  C   C36       1.0  0.90920  0.26130  0.17290  1.0000
  C   C37       1.0  0.59080  0.76130  0.67290  1.0000
  C   C38       1.0  0.40920  0.23870  0.67290  1.0000
  C   C39       1.0  0.90920  0.26130  0.82710  1.0000
  C   C40       1.0  0.09080  0.73870  0.82710  1.0000
  C   C41       1.0  0.43260  0.28100  0.35334  1.0000
  C   C42       1.0  0.56740  0.71900  0.35334  1.0000
  C   C43       1.0  0.06740  0.78100  0.14666  1.0000
  C   C44       1.0  0.93260  0.21900  0.14666  1.0000
  C   C45       1.0  0.56740  0.71900  0.64666  1.0000
  C   C46       1.0  0.43260  0.28100  0.64666  1.0000
  C   C47       1.0  0.93260  0.21900  0.85334  1.0000
  C   C48       1.0  0.06740  0.78100  0.85334  1.0000
  H   H17       1.0  0.43550  0.27390  0.38190  1.0000
  H   H18       1.0  0.56450  0.72610  0.38190  1.0000
  H   H19       1.0  0.06450  0.77390  0.11810  1.0000
  H   H20       1.0  0.93550  0.22610  0.11810  1.0000
  H   H21       1.0  0.56450  0.72610  0.61810  1.0000
  H   H22       1.0  0.43550  0.27390  0.61810  1.0000
  H   H23       1.0  0.93550  0.22610  0.88190  1.0000
  H   H24       1.0  0.06450  0.77390  0.88190  1.0000
  C   C49       1.0  0.45150  0.33260  0.33790  1.0000
  C   C50       1.0  0.54850  0.66740  0.33790  1.0000
  C   C51       1.0  0.04850  0.83260  0.16210  1.0000
  C   C52       1.0  0.95150  0.16740  0.16210  1.0000
  C   C53       1.0  0.54850  0.66740  0.66210  1.0000
  C   C54       1.0  0.45150  0.33260  0.66210  1.0000
  C   C55       1.0  0.95150  0.16740  0.83790  1.0000
  C   C56       1.0  0.04850  0.83260  0.83790  1.0000
  H   H25       1.0  0.46580  0.36010  0.35590  1.0000
  H   H26       1.0  0.53420  0.63990  0.35590  1.0000
  H   H27       1.0  0.03420  0.86010  0.14410  1.0000
  H   H28       1.0  0.96580  0.13990  0.14410  1.0000
  H   H29       1.0  0.53420  0.63990  0.64410  1.0000
  H   H30       1.0  0.46580  0.36010  0.64410  1.0000
  H   H31       1.0  0.96580  0.13990  0.85590  1.0000
  H   H32       1.0  0.03420  0.86010  0.85590  1.0000
  C   C57       1.0  0.38730  0.18460  0.34303  1.0000
  C   C58       1.0  0.61270  0.81540  0.34303  1.0000
  C   C59       1.0  0.11270  0.68460  0.15697  1.0000
  C   C60       1.0  0.88730  0.31540  0.15697  1.0000
  C   C61       1.0  0.61270  0.81540  0.65697  1.0000
  C   C62       1.0  0.38730  0.18460  0.65697  1.0000
  C   C63       1.0  0.88730  0.31540  0.84303  1.0000
  C   C64       1.0  0.11270  0.68460  0.84303  1.0000
  C   C65       1.0  0.33800  0.16280  0.32704  1.0000
  C   C66       1.0  0.66200  0.83720  0.32704  1.0000
  C   C67       1.0  0.16200  0.66280  0.17296  1.0000
  C   C68       1.0  0.83800  0.33720  0.17296  1.0000
  C   C69       1.0  0.66200  0.83720  0.67296  1.0000
  C   C70       1.0  0.33800  0.16280  0.67296  1.0000
  C   C71       1.0  0.83800  0.33720  0.82704  1.0000
  C   C72       1.0  0.16200  0.66280  0.82704  1.0000
  H   H33       1.0  0.31940  0.18170  0.30550  1.0000
  H   H34       1.0  0.68060  0.81830  0.30550  1.0000
  H   H35       1.0  0.18060  0.68170  0.19450  1.0000
  H   H36       1.0  0.81940  0.31830  0.19450  1.0000
  H   H37       1.0  0.68060  0.81830  0.69450  1.0000
  H   H38       1.0  0.31940  0.18170  0.69450  1.0000
  H   H39       1.0  0.81940  0.31830  0.80550  1.0000
  H   H40       1.0  0.18060  0.68170  0.80550  1.0000
  C   C73       1.0  0.31550  0.11270  0.34277  1.0000
  C   C74       1.0  0.68450  0.88730  0.34277  1.0000
  C   C75       1.0  0.18450  0.61270  0.15723  1.0000
  C   C76       1.0  0.81550  0.38730  0.15723  1.0000
  C   C77       1.0  0.68450  0.88730  0.65723  1.0000
  C   C78       1.0  0.31550  0.11270  0.65723  1.0000
  C   C79       1.0  0.81550  0.38730  0.84277  1.0000
  C   C80       1.0  0.18450  0.61270  0.84277  1.0000
  C   C81       1.0  0.34360  0.08290  0.37461  1.0000
  C   C82       1.0  0.65640  0.91710  0.37461  1.0000
  C   C83       1.0  0.15640  0.58290  0.12539  1.0000
  C   C84       1.0  0.84360  0.41710  0.12539  1.0000
  C   C85       1.0  0.65640  0.91710  0.62539  1.0000
  C   C86       1.0  0.34360  0.08290  0.62539  1.0000
  C   C87       1.0  0.84360  0.41710  0.87461  1.0000
  C   C88       1.0  0.15640  0.58290  0.87461  1.0000
  H   H41       1.0  0.32840  0.04940  0.38530  1.0000
  H   H42       1.0  0.67160  0.95060  0.38530  1.0000
  H   H43       1.0  0.17160  0.54940  0.11470  1.0000
  H   H44       1.0  0.82840  0.45060  0.11470  1.0000
  H   H45       1.0  0.67160  0.95060  0.61470  1.0000
  H   H46       1.0  0.32840  0.04940  0.61470  1.0000
  H   H47       1.0  0.82840  0.45060  0.88530  1.0000
  H   H48       1.0  0.17160  0.54940  0.88530  1.0000
  C   C89       1.0  0.39460  0.10430  0.38998  1.0000
  C   C90       1.0  0.60540  0.89570  0.38998  1.0000
  C   C91       1.0  0.10540  0.60430  0.11002  1.0000
  C   C92       1.0  0.89460  0.39570  0.11002  1.0000
  C   C93       1.0  0.60540  0.89570  0.61002  1.0000
  C   C94       1.0  0.39460  0.10430  0.61002  1.0000
  C   C95       1.0  0.89460  0.39570  0.88998  1.0000
  C   C96       1.0  0.10540  0.60430  0.88998  1.0000
  C   C97       1.0  0.41580  0.15630  0.37427  1.0000
  C   C98       1.0  0.58420  0.84370  0.37427  1.0000
  C   C99       1.0  0.08420  0.65630  0.12573  1.0000
  C   C100      1.0  0.91580  0.34370  0.12573  1.0000
  C   C101      1.0  0.58420  0.84370  0.62573  1.0000
  C   C102      1.0  0.41580  0.15630  0.62573  1.0000
  C   C103      1.0  0.91580  0.34370  0.87427  1.0000
  C   C104      1.0  0.08420  0.65630  0.87427  1.0000
  H   H49       1.0  0.44920  0.17140  0.38510  1.0000
  H   H50       1.0  0.55080  0.82860  0.38510  1.0000
  H   H51       1.0  0.05080  0.67140  0.11490  1.0000
  H   H52       1.0  0.94920  0.32860  0.11490  1.0000
  H   H53       1.0  0.55080  0.82860  0.61490  1.0000
  H   H54       1.0  0.44920  0.17140  0.61490  1.0000
  H   H55       1.0  0.94920  0.32860  0.88510  1.0000
  H   H56       1.0  0.05080  0.67140  0.88510  1.0000
  C   C105      1.0  0.26060  0.09120  0.32660  1.0000
  C   C106      1.0  0.73940  0.90880  0.32660  1.0000
  C   C107      1.0  0.23940  0.59120  0.17340  1.0000
  C   C108      1.0  0.76060  0.40880  0.17340  1.0000
  C   C109      1.0  0.73940  0.90880  0.67340  1.0000
  C   C110      1.0  0.26060  0.09120  0.67340  1.0000
  C   C111      1.0  0.76060  0.40880  0.82660  1.0000
  C   C112      1.0  0.23940  0.59120  0.82660  1.0000
  C   C113      1.0  0.24760  0.09260  0.28340  1.0000
  C   C114      1.0  0.75240  0.90740  0.28340  1.0000
  C   C115      1.0  0.25240  0.59260  0.21660  1.0000
  C   C116      1.0  0.74760  0.40740  0.21660  1.0000
  C   C117      1.0  0.75240  0.90740  0.71660  1.0000
  C   C118      1.0  0.24760  0.09260  0.71660  1.0000
  C   C119      1.0  0.74760  0.40740  0.78340  1.0000
  C   C120      1.0  0.25240  0.59260  0.78340  1.0000
  H   H57       1.0  0.27410  0.10680  0.26450  1.0000
  H   H58       1.0  0.72590  0.89320  0.26450  1.0000
  H   H59       1.0  0.22590  0.60680  0.23550  1.0000
  H   H60       1.0  0.77410  0.39320  0.23550  1.0000
  H   H61       1.0  0.72590  0.89320  0.73550  1.0000
  H   H62       1.0  0.27410  0.10680  0.73550  1.0000
  H   H63       1.0  0.77410  0.39320  0.76450  1.0000
  H   H64       1.0  0.22590  0.60680  0.76450  1.0000
  C   C121      1.0  0.19520  0.07280  0.26900  1.0000
  C   C122      1.0  0.80480  0.92720  0.26900  1.0000
  C   C123      1.0  0.30480  0.57280  0.23100  1.0000
  C   C124      1.0  0.69520  0.42720  0.23100  1.0000
  C   C125      1.0  0.80480  0.92720  0.73100  1.0000
  C   C126      1.0  0.19520  0.07280  0.73100  1.0000
  C   C127      1.0  0.69520  0.42720  0.76900  1.0000
  C   C128      1.0  0.30480  0.57280  0.76900  1.0000
  H   H65       1.0  0.18710  0.07390  0.24060  1.0000
  H   H66       1.0  0.81290  0.92610  0.24060  1.0000
  H   H67       1.0  0.31290  0.57390  0.25940  1.0000
  H   H68       1.0  0.68710  0.42610  0.25940  1.0000
  H   H69       1.0  0.81290  0.92610  0.75940  1.0000
  H   H70       1.0  0.18710  0.07390  0.75940  1.0000
  H   H71       1.0  0.68710  0.42610  0.74060  1.0000
  H   H72       1.0  0.31290  0.57390  0.74060  1.0000
  C   C129      1.0  0.15620  0.05210  0.29600  1.0000
  C   C130      1.0  0.84380  0.94790  0.29600  1.0000
  C   C131      1.0  0.34380  0.55210  0.20400  1.0000
  C   C132      1.0  0.65620  0.44790  0.20400  1.0000
  C   C133      1.0  0.84380  0.94790  0.70400  1.0000
  C   C134      1.0  0.15620  0.05210  0.70400  1.0000
  C   C135      1.0  0.65620  0.44790  0.79600  1.0000
  C   C136      1.0  0.34380  0.55210  0.79600  1.0000
  C   C137      1.0  0.16720  0.04940  0.33880  1.0000
  C   C138      1.0  0.83280  0.95060  0.33880  1.0000
  C   C139      1.0  0.33280  0.54940  0.16120  1.0000
  C   C140      1.0  0.66720  0.45060  0.16120  1.0000
  C   C141      1.0  0.83280  0.95060  0.66120  1.0000
  C   C142      1.0  0.16720  0.04940  0.66120  1.0000
  C   C143      1.0  0.66720  0.45060  0.83880  1.0000
  C   C144      1.0  0.33280  0.54940  0.83880  1.0000
  H   H73       1.0  0.13970  0.03520  0.35690  1.0000
  H   H74       1.0  0.86030  0.96480  0.35690  1.0000
  H   H75       1.0  0.36030  0.53520  0.14310  1.0000
  H   H76       1.0  0.63970  0.46480  0.14310  1.0000
  H   H77       1.0  0.86030  0.96480  0.64310  1.0000
  H   H78       1.0  0.13970  0.03520  0.64310  1.0000
  H   H79       1.0  0.63970  0.46480  0.85690  1.0000
  H   H80       1.0  0.36030  0.53520  0.85690  1.0000
  C   C145      1.0  0.21850  0.06770  0.35430  1.0000
  C   C146      1.0  0.78150  0.93230  0.35430  1.0000
  C   C147      1.0  0.28150  0.56770  0.14570  1.0000
  C   C148      1.0  0.71850  0.43230  0.14570  1.0000
  C   C149      1.0  0.78150  0.93230  0.64570  1.0000
  C   C150      1.0  0.21850  0.06770  0.64570  1.0000
  C   C151      1.0  0.71850  0.43230  0.85430  1.0000
  C   C152      1.0  0.28150  0.56770  0.85430  1.0000
  H   H81       1.0  0.22610  0.06500  0.38280  1.0000
  H   H82       1.0  0.77390  0.93500  0.38280  1.0000
  H   H83       1.0  0.27390  0.56500  0.11720  1.0000
  H   H84       1.0  0.72610  0.43500  0.11720  1.0000
  H   H85       1.0  0.77390  0.93500  0.61720  1.0000
  H   H86       1.0  0.22610  0.06500  0.61720  1.0000
  H   H87       1.0  0.72610  0.43500  0.88280  1.0000
  H   H88       1.0  0.27390  0.56500  0.88280  1.0000
  C   C153      1.0  0.09860  0.03330  0.27840  1.0000
  C   C154      1.0  0.90140  0.96670  0.27840  1.0000
  C   C155      1.0  0.40140  0.53330  0.22160  1.0000
  C   C156      1.0  0.59860  0.46670  0.22160  1.0000
  C   C157      1.0  0.90140  0.96670  0.72160  1.0000
  C   C158      1.0  0.09860  0.03330  0.72160  1.0000
  C   C159      1.0  0.59860  0.46670  0.77840  1.0000
  C   C160      1.0  0.40140  0.53330  0.77840  1.0000
  C   C161      1.0  0.42540  0.07440  0.42430  1.0000
  C   C162      1.0  0.57460  0.92560  0.42430  1.0000
  C   C163      1.0  0.07460  0.57440  0.07570  1.0000
  C   C164      1.0  0.92540  0.42560  0.07570  1.0000
  C   C165      1.0  0.57460  0.92560  0.57570  1.0000
  C   C166      1.0  0.42540  0.07440  0.57570  1.0000
  C   C167      1.0  0.92540  0.42560  0.92430  1.0000
  C   C168      1.0  0.07460  0.57440  0.92430  1.0000
  C   C169      1.0  0.41390  0.08590  0.46610  1.0000
  C   C170      1.0  0.58610  0.91410  0.46610  1.0000
  C   C171      1.0  0.08610  0.58590  0.03390  1.0000
  C   C172      1.0  0.91390  0.41410  0.03390  1.0000
  C   C173      1.0  0.58610  0.91410  0.53390  1.0000
  C   C174      1.0  0.41390  0.08590  0.53390  1.0000
  C   C175      1.0  0.91390  0.41410  0.96610  1.0000
  C   C176      1.0  0.08610  0.58590  0.96610  1.0000
  C   C177      1.0  0.37190  0.12780  0.47891  1.0000
  C   C178      1.0  0.62810  0.87220  0.47891  1.0000
  C   C179      1.0  0.12810  0.62780  0.02109  1.0000
  C   C180      1.0  0.87190  0.37220  0.02109  1.0000
  C   C181      1.0  0.62810  0.87220  0.52109  1.0000
  C   C182      1.0  0.37190  0.12780  0.52109  1.0000
  C   C183      1.0  0.87190  0.37220  0.97891  1.0000
  C   C184      1.0  0.12810  0.62780  0.97891  1.0000
  H   H89       1.0  0.34950  0.15010  0.46150  1.0000
  H   H90       1.0  0.65050  0.84990  0.46150  1.0000
  H   H91       1.0  0.15050  0.65010  0.03850  1.0000
  H   H92       1.0  0.84950  0.34990  0.03850  1.0000
  H   H93       1.0  0.65050  0.84990  0.53850  1.0000
  H   H94       1.0  0.34950  0.15010  0.53850  1.0000
  H   H95       1.0  0.84950  0.34990  0.96150  1.0000
  H   H96       1.0  0.15050  0.65010  0.96150  1.0000
  C   C185      1.0  0.46530  0.03450  0.41040  1.0000
  C   C186      1.0  0.53470  0.96550  0.41040  1.0000
  C   C187      1.0  0.03470  0.53450  0.08960  1.0000
  C   C188      1.0  0.96530  0.46550  0.08960  1.0000
  C   C189      1.0  0.53470  0.96550  0.58960  1.0000
  C   C190      1.0  0.46530  0.03450  0.58960  1.0000
  C   C191      1.0  0.96530  0.46550  0.91040  1.0000
  C   C192      1.0  0.03470  0.53450  0.91040  1.0000
  C   C193      1.0  0.48050  0.02030  0.36500  1.0000
  C   C194      1.0  0.51950  0.97970  0.36500  1.0000
  C   C195      1.0  0.01950  0.52030  0.13500  1.0000
  C   C196      1.0  0.98050  0.47970  0.13500  1.0000
  C   C197      1.0  0.51950  0.97970  0.63500  1.0000
  C   C198      1.0  0.48050  0.02030  0.63500  1.0000
  C   C199      1.0  0.98050  0.47970  0.86500  1.0000
  C   C200      1.0  0.01950  0.52030  0.86500  1.0000
  H   H97       1.0  0.46480  0.03720  0.34140  1.0000
  H   H98       1.0  0.53520  0.96280  0.34140  1.0000
  H   H99       1.0  0.03520  0.53720  0.15860  1.0000
  H   H100      1.0  0.96480  0.46280  0.15860  1.0000
  H   H101      1.0  0.53520  0.96280  0.65860  1.0000
  H   H102      1.0  0.46480  0.03720  0.65860  1.0000
  H   H103      1.0  0.96480  0.46280  0.84140  1.0000
  H   H104      1.0  0.03520  0.53720  0.84140  1.0000
