data_image0
_chemical_formula_structural       In6O32N8C24H8C8H8C16H8C8H8C16H8C16H8C16H8C16H8C8H8C16H8C8H8C32H8C16H8
_chemical_formula_sum              "In6 O32 N8 C200 H104"
_cell_length_a       23.881
_cell_length_b       23.915
_cell_length_c       28.808
_cell_angle_alpha    90
_cell_angle_beta     90
_cell_angle_gamma    90

_space_group_name_H-M_alt    "P 1"
_space_group_IT_number       1

loop_
  _space_group_symop_operation_xyz
  'x, y, z'

loop_
  _atom_site_type_symbol
  _atom_site_label
  _atom_site_symmetry_multiplicity
  _atom_site_fract_x
  _atom_site_fract_y
  _atom_site_fract_z
  _atom_site_occupancy
  In  In1       1.0  0.50000  0.50000  0.25017  1.0000
  In  In2       1.0  0.00000  0.00000  0.24983  1.0000
  In  In3       1.0  0.50000  0.50000  0.74983  1.0000
  In  In4       1.0  0.00000  0.00000  0.75017  1.0000
  In  In5       1.0  0.50000  0.00000  0.50000  1.0000
  In  In6       1.0  0.00000  0.50000  0.00000  1.0000
  O   O1        1.0  0.08447  0.03429  0.23517  1.0000
  O   O2        1.0  0.91553  0.96571  0.23517  1.0000
  O   O3        1.0  0.41553  0.53429  0.26483  1.0000
  O   O4        1.0  0.58447  0.46571  0.26483  1.0000
  O   O5        1.0  0.91553  0.96571  0.76483  1.0000
  O   O6        1.0  0.08447  0.03429  0.76483  1.0000
  O   O7        1.0  0.58447  0.46571  0.73517  1.0000
  O   O8        1.0  0.41553  0.53429  0.73517  1.0000
  O   O9        1.0  0.06192  0.02184  0.31009  1.0000
  O   O10       1.0  0.93808  0.97816  0.31009  1.0000
  O   O11       1.0  0.43808  0.52184  0.18991  1.0000
  O   O12       1.0  0.56192  0.47816  0.18991  1.0000
  O   O13       1.0  0.93808  0.97816  0.68991  1.0000
  O   O14       1.0  0.06192  0.02184  0.68991  1.0000
  O   O15       1.0  0.56192  0.47816  0.81009  1.0000
  O   O16       1.0  0.43808  0.52184  0.81009  1.0000
  O   O17       1.0  0.46611  0.41516  0.23554  1.0000
  O   O18       1.0  0.53389  0.58484  0.23554  1.0000
  O   O19       1.0  0.03389  0.91516  0.26446  1.0000
  O   O20       1.0  0.96611  0.08484  0.26446  1.0000
  O   O21       1.0  0.53389  0.58484  0.76446  1.0000
  O   O22       1.0  0.46611  0.41516  0.76446  1.0000
  O   O23       1.0  0.96611  0.08484  0.73554  1.0000
  O   O24       1.0  0.03389  0.91516  0.73554  1.0000
  O   O25       1.0  0.47874  0.43815  0.30993  1.0000
  O   O26       1.0  0.52126  0.56185  0.30993  1.0000
  O   O27       1.0  0.02126  0.93815  0.19007  1.0000
  O   O28       1.0  0.97874  0.06185  0.19007  1.0000
  O   O29       1.0  0.52126  0.56185  0.69007  1.0000
  O   O30       1.0  0.47874  0.43815  0.69007  1.0000
  O   O31       1.0  0.97874  0.06185  0.80993  1.0000
  O   O32       1.0  0.02126  0.93815  0.80993  1.0000
  N   N1        1.0  0.44030  0.05930  0.50000  1.0000
  N   N2        1.0  0.55970  0.94070  0.50000  1.0000
  N   N3        1.0  0.05970  0.55930  0.00000  1.0000
  N   N4        1.0  0.94030  0.44070  0.00000  1.0000
  N   N5        1.0  0.50000  0.00000  0.43020  1.0000
  N   N6        1.0  0.00000  0.50000  0.06980  1.0000
  N   N7        1.0  0.50000  0.00000  0.56980  1.0000
  N   N8        1.0  0.00000  0.50000  0.93020  1.0000
  C   C1        1.0  0.46275  0.40500  0.27740  1.0000
  C   C2        1.0  0.53725  0.59500  0.27740  1.0000
  C   C3        1.0  0.03725  0.90500  0.22260  1.0000
  C   C4        1.0  0.96275  0.09500  0.22260  1.0000
  C   C5        1.0  0.53725  0.59500  0.72260  1.0000
  C   C6        1.0  0.46275  0.40500  0.72260  1.0000
  C   C7        1.0  0.96275  0.09500  0.77740  1.0000
  C   C8        1.0  0.03725  0.90500  0.77740  1.0000
  C   C9        1.0  0.44234  0.34685  0.29410  1.0000
  C   C10       1.0  0.55766  0.65315  0.29410  1.0000
  C   C11       1.0  0.05766  0.84685  0.20590  1.0000
  C   C12       1.0  0.94234  0.15315  0.20590  1.0000
  C   C13       1.0  0.55766  0.65315  0.70590  1.0000
  C   C14       1.0  0.44234  0.34685  0.70590  1.0000
  C   C15       1.0  0.94234  0.15315  0.79410  1.0000
  C   C16       1.0  0.05766  0.84685  0.79410  1.0000
  C   C17       1.0  0.42070  0.31160  0.25780  1.0000
  C   C18       1.0  0.57930  0.68840  0.25780  1.0000
  C   C19       1.0  0.07930  0.81160  0.24220  1.0000
  C   C20       1.0  0.92070  0.18840  0.24220  1.0000
  C   C21       1.0  0.57930  0.68840  0.74220  1.0000
  C   C22       1.0  0.42070  0.31160  0.74220  1.0000
  C   C23       1.0  0.92070  0.18840  0.75780  1.0000
  C   C24       1.0  0.07930  0.81160  0.75780  1.0000
  H   H1        1.0  0.41950  0.32310  0.22700  1.0000
  H   H2        1.0  0.58050  0.67690  0.22700  1.0000
  H   H3        1.0  0.08050  0.82310  0.27300  1.0000
  H   H4        1.0  0.91950  0.17690  0.27300  1.0000
  H   H5        1.0  0.58050  0.67690  0.77300  1.0000
  H   H6        1.0  0.41950  0.32310  0.77300  1.0000
  H   H7        1.0  0.91950  0.17690  0.72700  1.0000
  H   H8        1.0  0.08050  0.82310  0.72700  1.0000
  C   C25       1.0  0.40130  0.25850  0.27200  1.0000
  C   C26       1.0  0.59870  0.74150  0.27200  1.0000
  C   C27       1.0  0.09870  0.75850  0.22800  1.0000
  C   C28       1.0  0.90130  0.24150  0.22800  1.0000
  C   C29       1.0  0.59870  0.74150  0.72800  1.0000
  C   C30       1.0  0.40130  0.25850  0.72800  1.0000
  C   C31       1.0  0.90130  0.24150  0.77200  1.0000
  C   C32       1.0  0.09870  0.75850  0.77200  1.0000
  H   H9        1.0  0.38520  0.23440  0.25040  1.0000
  H   H10       1.0  0.61480  0.76560  0.25040  1.0000
  H   H11       1.0  0.11480  0.73440  0.24960  1.0000
  H   H12       1.0  0.88520  0.26560  0.24960  1.0000
  H   H13       1.0  0.61480  0.76560  0.74960  1.0000
  H   H14       1.0  0.38520  0.23440  0.74960  1.0000
  H   H15       1.0  0.88520  0.26560  0.75040  1.0000
  H   H16       1.0  0.11480  0.73440  0.75040  1.0000
  C   C33       1.0  0.40613  0.24280  0.31640  1.0000
  C   C34       1.0  0.59387  0.75720  0.31640  1.0000
  C   C35       1.0  0.09387  0.74280  0.18360  1.0000
  C   C36       1.0  0.90613  0.25720  0.18360  1.0000
  C   C37       1.0  0.59387  0.75720  0.68360  1.0000
  C   C38       1.0  0.40613  0.24280  0.68360  1.0000
  C   C39       1.0  0.90613  0.25720  0.81640  1.0000
  C   C40       1.0  0.09387  0.74280  0.81640  1.0000
  C   C41       1.0  0.42970  0.27690  0.35170  1.0000
  C   C42       1.0  0.57030  0.72310  0.35170  1.0000
  C   C43       1.0  0.07030  0.77690  0.14830  1.0000
  C   C44       1.0  0.92970  0.22310  0.14830  1.0000
  C   C45       1.0  0.57030  0.72310  0.64830  1.0000
  C   C46       1.0  0.42970  0.27690  0.64830  1.0000
  C   C47       1.0  0.92970  0.22310  0.85170  1.0000
  C   C48       1.0  0.07030  0.77690  0.85170  1.0000
  H   H17       1.0  0.43300  0.26400  0.38200  1.0000
  H   H18       1.0  0.56700  0.73600  0.38200  1.0000
  H   H19       1.0  0.06700  0.76400  0.11800  1.0000
  H   H20       1.0  0.93300  0.23600  0.11800  1.0000
  H   H21       1.0  0.56700  0.73600  0.61800  1.0000
  H   H22       1.0  0.43300  0.26400  0.61800  1.0000
  H   H23       1.0  0.93300  0.23600  0.88200  1.0000
  H   H24       1.0  0.06700  0.76400  0.88200  1.0000
  C   C49       1.0  0.44800  0.33170  0.33910  1.0000
  C   C50       1.0  0.55200  0.66830  0.33910  1.0000
  C   C51       1.0  0.05200  0.83170  0.16090  1.0000
  C   C52       1.0  0.94800  0.16830  0.16090  1.0000
  C   C53       1.0  0.55200  0.66830  0.66090  1.0000
  C   C54       1.0  0.44800  0.33170  0.66090  1.0000
  C   C55       1.0  0.94800  0.16830  0.83910  1.0000
  C   C56       1.0  0.05200  0.83170  0.83910  1.0000
  H   H25       1.0  0.46310  0.35600  0.36100  1.0000
  H   H26       1.0  0.53690  0.64400  0.36100  1.0000
  H   H27       1.0  0.03690  0.85600  0.13900  1.0000
  H   H28       1.0  0.96310  0.14400  0.13900  1.0000
  H   H29       1.0  0.53690  0.64400  0.63900  1.0000
  H   H30       1.0  0.46310  0.35600  0.63900  1.0000
  H   H31       1.0  0.96310  0.14400  0.86100  1.0000
  H   H32       1.0  0.03690  0.85600  0.86100  1.0000
  C   C57       1.0  0.38620  0.18500  0.33310  1.0000
  C   C58       1.0  0.61380  0.81500  0.33310  1.0000
  C   C59       1.0  0.11380  0.68500  0.16690  1.0000
  C   C60       1.0  0.88620  0.31500  0.16690  1.0000
  C   C61       1.0  0.61380  0.81500  0.66690  1.0000
  C   C62       1.0  0.38620  0.18500  0.66690  1.0000
  C   C63       1.0  0.88620  0.31500  0.83310  1.0000
  C   C64       1.0  0.11380  0.68500  0.83310  1.0000
  C   C65       1.0  0.33530  0.16490  0.31800  1.0000
  C   C66       1.0  0.66470  0.83510  0.31800  1.0000
  C   C67       1.0  0.16470  0.66490  0.18200  1.0000
  C   C68       1.0  0.83530  0.33510  0.18200  1.0000
  C   C69       1.0  0.66470  0.83510  0.68200  1.0000
  C   C70       1.0  0.33530  0.16490  0.68200  1.0000
  C   C71       1.0  0.83530  0.33510  0.81800  1.0000
  C   C72       1.0  0.16470  0.66490  0.81800  1.0000
  H   H33       1.0  0.31440  0.18570  0.29690  1.0000
  H   H34       1.0  0.68560  0.81430  0.29690  1.0000
  H   H35       1.0  0.18560  0.68570  0.20310  1.0000
  H   H36       1.0  0.81440  0.31430  0.20310  1.0000
  H   H37       1.0  0.68560  0.81430  0.70310  1.0000
  H   H38       1.0  0.31440  0.18570  0.70310  1.0000
  H   H39       1.0  0.81440  0.31430  0.79690  1.0000
  H   H40       1.0  0.18560  0.68570  0.79690  1.0000
  C   C73       1.0  0.31480  0.11420  0.33400  1.0000
  C   C74       1.0  0.68520  0.88580  0.33400  1.0000
  C   C75       1.0  0.18520  0.61420  0.16600  1.0000
  C   C76       1.0  0.81480  0.38580  0.16600  1.0000
  C   C77       1.0  0.68520  0.88580  0.66600  1.0000
  C   C78       1.0  0.31480  0.11420  0.66600  1.0000
  C   C79       1.0  0.81480  0.38580  0.83400  1.0000
  C   C80       1.0  0.18520  0.61420  0.83400  1.0000
  C   C81       1.0  0.34550  0.08420  0.36534  1.0000
  C   C82       1.0  0.65450  0.91580  0.36534  1.0000
  C   C83       1.0  0.15450  0.58420  0.13466  1.0000
  C   C84       1.0  0.84550  0.41580  0.13466  1.0000
  C   C85       1.0  0.65450  0.91580  0.63466  1.0000
  C   C86       1.0  0.34550  0.08420  0.63466  1.0000
  C   C87       1.0  0.84550  0.41580  0.86534  1.0000
  C   C88       1.0  0.15450  0.58420  0.86534  1.0000
  H   H41       1.0  0.33120  0.05100  0.37720  1.0000
  H   H42       1.0  0.66880  0.94900  0.37720  1.0000
  H   H43       1.0  0.16880  0.55100  0.12280  1.0000
  H   H44       1.0  0.83120  0.44900  0.12280  1.0000
  H   H45       1.0  0.66880  0.94900  0.62280  1.0000
  H   H46       1.0  0.33120  0.05100  0.62280  1.0000
  H   H47       1.0  0.83120  0.44900  0.87720  1.0000
  H   H48       1.0  0.16880  0.55100  0.87720  1.0000
  C   C89       1.0  0.39730  0.10250  0.37960  1.0000
  C   C90       1.0  0.60270  0.89750  0.37960  1.0000
  C   C91       1.0  0.10270  0.60250  0.12040  1.0000
  C   C92       1.0  0.89730  0.39750  0.12040  1.0000
  C   C93       1.0  0.60270  0.89750  0.62040  1.0000
  C   C94       1.0  0.39730  0.10250  0.62040  1.0000
  C   C95       1.0  0.89730  0.39750  0.87960  1.0000
  C   C96       1.0  0.10270  0.60250  0.87960  1.0000
  C   C97       1.0  0.41544  0.15500  0.36550  1.0000
  C   C98       1.0  0.58456  0.84500  0.36550  1.0000
  C   C99       1.0  0.08456  0.65500  0.13450  1.0000
  C   C100      1.0  0.91544  0.34500  0.13450  1.0000
  C   C101      1.0  0.58456  0.84500  0.63450  1.0000
  C   C102      1.0  0.41544  0.15500  0.63450  1.0000
  C   C103      1.0  0.91544  0.34500  0.86550  1.0000
  C   C104      1.0  0.08456  0.65500  0.86550  1.0000
  H   H49       1.0  0.44790  0.17000  0.37830  1.0000
  H   H50       1.0  0.55210  0.83000  0.37830  1.0000
  H   H51       1.0  0.05210  0.67000  0.12170  1.0000
  H   H52       1.0  0.94790  0.33000  0.12170  1.0000
  H   H53       1.0  0.55210  0.83000  0.62170  1.0000
  H   H54       1.0  0.44790  0.17000  0.62170  1.0000
  H   H55       1.0  0.94790  0.33000  0.87830  1.0000
  H   H56       1.0  0.05210  0.67000  0.87830  1.0000
  C   C105      1.0  0.25780  0.09470  0.31760  1.0000
  C   C106      1.0  0.74220  0.90530  0.31760  1.0000
  C   C107      1.0  0.24220  0.59470  0.18240  1.0000
  C   C108      1.0  0.75780  0.40530  0.18240  1.0000
  C   C109      1.0  0.74220  0.90530  0.68240  1.0000
  C   C110      1.0  0.25780  0.09470  0.68240  1.0000
  C   C111      1.0  0.75780  0.40530  0.81760  1.0000
  C   C112      1.0  0.24220  0.59470  0.81760  1.0000
  C   C113      1.0  0.24160  0.09870  0.27190  1.0000
  C   C114      1.0  0.75840  0.90130  0.27190  1.0000
  C   C115      1.0  0.25840  0.59870  0.22810  1.0000
  C   C116      1.0  0.74160  0.40130  0.22810  1.0000
  C   C117      1.0  0.75840  0.90130  0.72810  1.0000
  C   C118      1.0  0.24160  0.09870  0.72810  1.0000
  C   C119      1.0  0.74160  0.40130  0.77190  1.0000
  C   C120      1.0  0.25840  0.59870  0.77190  1.0000
  H   H57       1.0  0.26610  0.11390  0.25010  1.0000
  H   H58       1.0  0.73390  0.88610  0.25010  1.0000
  H   H59       1.0  0.23390  0.61390  0.24990  1.0000
  H   H60       1.0  0.76610  0.38610  0.24990  1.0000
  H   H61       1.0  0.73390  0.88610  0.74990  1.0000
  H   H62       1.0  0.26610  0.11390  0.74990  1.0000
  H   H63       1.0  0.76610  0.38610  0.75010  1.0000
  H   H64       1.0  0.23390  0.61390  0.75010  1.0000
  C   C121      1.0  0.18840  0.08010  0.25800  1.0000
  C   C122      1.0  0.81160  0.91990  0.25800  1.0000
  C   C123      1.0  0.31160  0.58010  0.24200  1.0000
  C   C124      1.0  0.68840  0.41990  0.24200  1.0000
  C   C125      1.0  0.81160  0.91990  0.74200  1.0000
  C   C126      1.0  0.18840  0.08010  0.74200  1.0000
  C   C127      1.0  0.68840  0.41990  0.75800  1.0000
  C   C128      1.0  0.31160  0.58010  0.75800  1.0000
  H   H65       1.0  0.17650  0.08210  0.22730  1.0000
  H   H66       1.0  0.82350  0.91790  0.22730  1.0000
  H   H67       1.0  0.32350  0.58210  0.27270  1.0000
  H   H68       1.0  0.67650  0.41790  0.27270  1.0000
  H   H69       1.0  0.82350  0.91790  0.77270  1.0000
  H   H70       1.0  0.17650  0.08210  0.77270  1.0000
  H   H71       1.0  0.67650  0.41790  0.72730  1.0000
  H   H72       1.0  0.32350  0.58210  0.72730  1.0000
  C   C129      1.0  0.15290  0.05738  0.29470  1.0000
  C   C130      1.0  0.84710  0.94262  0.29470  1.0000
  C   C131      1.0  0.34710  0.55738  0.20530  1.0000
  C   C132      1.0  0.65290  0.44262  0.20530  1.0000
  C   C133      1.0  0.84710  0.94262  0.70530  1.0000
  C   C134      1.0  0.15290  0.05738  0.70530  1.0000
  C   C135      1.0  0.65290  0.44262  0.79470  1.0000
  C   C136      1.0  0.34710  0.55738  0.79470  1.0000
  C   C137      1.0  0.16980  0.05250  0.33850  1.0000
  C   C138      1.0  0.83020  0.94750  0.33850  1.0000
  C   C139      1.0  0.33020  0.55250  0.16150  1.0000
  C   C140      1.0  0.66980  0.44750  0.16150  1.0000
  C   C141      1.0  0.83020  0.94750  0.66150  1.0000
  C   C142      1.0  0.16980  0.05250  0.66150  1.0000
  C   C143      1.0  0.66980  0.44750  0.83850  1.0000
  C   C144      1.0  0.33020  0.55250  0.83850  1.0000
  H   H73       1.0  0.14610  0.03740  0.36090  1.0000
  H   H74       1.0  0.85390  0.96260  0.36090  1.0000
  H   H75       1.0  0.35390  0.53740  0.13910  1.0000
  H   H76       1.0  0.64610  0.46260  0.13910  1.0000
  H   H77       1.0  0.85390  0.96260  0.63910  1.0000
  H   H78       1.0  0.14610  0.03740  0.63910  1.0000
  H   H79       1.0  0.64610  0.46260  0.86090  1.0000
  H   H80       1.0  0.35390  0.53740  0.86090  1.0000
  C   C145      1.0  0.22330  0.07050  0.35050  1.0000
  C   C146      1.0  0.77670  0.92950  0.35050  1.0000
  C   C147      1.0  0.27670  0.57050  0.14950  1.0000
  C   C148      1.0  0.72330  0.42950  0.14950  1.0000
  C   C149      1.0  0.77670  0.92950  0.64950  1.0000
  C   C150      1.0  0.22330  0.07050  0.64950  1.0000
  C   C151      1.0  0.72330  0.42950  0.85050  1.0000
  C   C152      1.0  0.27670  0.57050  0.85050  1.0000
  H   H81       1.0  0.23600  0.06620  0.38080  1.0000
  H   H82       1.0  0.76400  0.93380  0.38080  1.0000
  H   H83       1.0  0.26400  0.56620  0.11920  1.0000
  H   H84       1.0  0.73600  0.43380  0.11920  1.0000
  H   H85       1.0  0.76400  0.93380  0.61920  1.0000
  H   H86       1.0  0.23600  0.06620  0.61920  1.0000
  H   H87       1.0  0.73600  0.43380  0.88080  1.0000
  H   H88       1.0  0.26400  0.56620  0.88080  1.0000
  C   C153      1.0  0.09580  0.03790  0.27690  1.0000
  C   C154      1.0  0.90420  0.96210  0.27690  1.0000
  C   C155      1.0  0.40420  0.53790  0.22310  1.0000
  C   C156      1.0  0.59580  0.46210  0.22310  1.0000
  C   C157      1.0  0.90420  0.96210  0.72310  1.0000
  C   C158      1.0  0.09580  0.03790  0.72310  1.0000
  C   C159      1.0  0.59580  0.46210  0.77690  1.0000
  C   C160      1.0  0.40420  0.53790  0.77690  1.0000
  C   C161      1.0  0.42783  0.07250  0.41740  1.0000
  C   C162      1.0  0.57217  0.92750  0.41740  1.0000
  C   C163      1.0  0.07217  0.57250  0.08260  1.0000
  C   C164      1.0  0.92783  0.42750  0.08260  1.0000
  C   C165      1.0  0.57217  0.92750  0.58260  1.0000
  C   C166      1.0  0.42783  0.07250  0.58260  1.0000
  C   C167      1.0  0.92783  0.42750  0.91740  1.0000
  C   C168      1.0  0.07217  0.57250  0.91740  1.0000
  C   C169      1.0  0.41650  0.08340  0.46110  1.0000
  C   C170      1.0  0.58350  0.91660  0.46110  1.0000
  C   C171      1.0  0.08350  0.58340  0.03890  1.0000
  C   C172      1.0  0.91650  0.41660  0.03890  1.0000
  C   C173      1.0  0.58350  0.91660  0.53890  1.0000
  C   C174      1.0  0.41650  0.08340  0.53890  1.0000
  C   C175      1.0  0.91650  0.41660  0.96110  1.0000
  C   C176      1.0  0.08350  0.58340  0.96110  1.0000
  C   C177      1.0  0.37460  0.12560  0.47774  1.0000
  C   C178      1.0  0.62540  0.87440  0.47774  1.0000
  C   C179      1.0  0.12540  0.62560  0.02226  1.0000
  C   C180      1.0  0.87460  0.37440  0.02226  1.0000
  C   C181      1.0  0.62540  0.87440  0.52226  1.0000
  C   C182      1.0  0.37460  0.12560  0.52226  1.0000
  C   C183      1.0  0.87460  0.37440  0.97774  1.0000
  C   C184      1.0  0.12540  0.62560  0.97774  1.0000
  H   H89       1.0  0.35240  0.14810  0.45890  1.0000
  H   H90       1.0  0.64760  0.85190  0.45890  1.0000
  H   H91       1.0  0.14760  0.64810  0.04110  1.0000
  H   H92       1.0  0.85240  0.35190  0.04110  1.0000
  H   H93       1.0  0.64760  0.85190  0.54110  1.0000
  H   H94       1.0  0.35240  0.14810  0.54110  1.0000
  H   H95       1.0  0.85240  0.35190  0.95890  1.0000
  H   H96       1.0  0.14760  0.64810  0.95890  1.0000
  C   C185      1.0  0.46706  0.03200  0.39910  1.0000
  C   C186      1.0  0.53294  0.96800  0.39910  1.0000
  C   C187      1.0  0.03294  0.53200  0.10090  1.0000
  C   C188      1.0  0.96706  0.46800  0.10090  1.0000
  C   C189      1.0  0.53294  0.96800  0.60090  1.0000
  C   C190      1.0  0.46706  0.03200  0.60090  1.0000
  C   C191      1.0  0.96706  0.46800  0.89910  1.0000
  C   C192      1.0  0.03294  0.53200  0.89910  1.0000
  C   C193      1.0  0.48190  0.01840  0.35180  1.0000
  C   C194      1.0  0.51810  0.98160  0.35180  1.0000
  C   C195      1.0  0.01810  0.51840  0.14820  1.0000
  C   C196      1.0  0.98190  0.48160  0.14820  1.0000
  C   C197      1.0  0.51810  0.98160  0.64820  1.0000
  C   C198      1.0  0.48190  0.01840  0.64820  1.0000
  C   C199      1.0  0.98190  0.48160  0.85180  1.0000
  C   C200      1.0  0.01810  0.51840  0.85180  1.0000
  H   H97       1.0  0.46650  0.03470  0.32550  1.0000
  H   H98       1.0  0.53350  0.96530  0.32550  1.0000
  H   H99       1.0  0.03350  0.53470  0.17450  1.0000
  H   H100      1.0  0.96650  0.46530  0.17450  1.0000
  H   H101      1.0  0.53350  0.96530  0.67450  1.0000
  H   H102      1.0  0.46650  0.03470  0.67450  1.0000
  H   H103      1.0  0.96650  0.46530  0.82550  1.0000
  H   H104      1.0  0.03350  0.53470  0.82550  1.0000
