data_image0
_chemical_formula_structural       Eu8O56C4H4C4H4C8H4C8H4C20H12C8H12C8H12C4
_chemical_formula_sum              "Eu8 O56 C64 H52"
_cell_length_a       15.145
_cell_length_b       10.3501
_cell_length_c       14.005
_cell_angle_alpha    90
_cell_angle_beta     90
_cell_angle_gamma    90

_space_group_name_H-M_alt    "P 1"
_space_group_IT_number       1

loop_
  _space_group_symop_operation_xyz
  'x, y, z'

loop_
  _atom_site_type_symbol
  _atom_site_label
  _atom_site_symmetry_multiplicity
  _atom_site_fract_x
  _atom_site_fract_y
  _atom_site_fract_z
  _atom_site_occupancy
  Eu  Eu1       1.0  0.36785  0.37615  0.40716  1.0000
  Eu  Eu2       1.0  0.63215  0.62385  0.90716  1.0000
  Eu  Eu3       1.0  0.86785  0.12385  0.40716  1.0000
  Eu  Eu4       1.0  0.13215  0.87615  0.90716  1.0000
  Eu  Eu5       1.0  0.65038  0.36465  0.45203  1.0000
  Eu  Eu6       1.0  0.34962  0.63535  0.95203  1.0000
  Eu  Eu7       1.0  0.15038  0.13535  0.45203  1.0000
  Eu  Eu8       1.0  0.84962  0.86465  0.95203  1.0000
  O   O1        1.0  0.65260  0.57720  0.73950  1.0000
  O   O2        1.0  0.34740  0.42280  0.23950  1.0000
  O   O3        1.0  0.15260  0.92280  0.73950  1.0000
  O   O4        1.0  0.84740  0.07720  0.23950  1.0000
  O   O5        1.0  0.65800  0.47330  0.60050  1.0000
  O   O6        1.0  0.34200  0.52670  0.10050  1.0000
  O   O7        1.0  0.15800  0.02670  0.60050  1.0000
  O   O8        1.0  0.84200  0.97330  0.10050  1.0000
  O   O9        1.0  0.59950  0.19230  0.55820  1.0000
  O   O10       1.0  0.40050  0.80770  0.05820  1.0000
  O   O11       1.0  0.09950  0.30770  0.55820  1.0000
  O   O12       1.0  0.90050  0.69230  0.05820  1.0000
  O   O13       1.0  0.48290  0.30120  0.51340  1.0000
  O   O14       1.0  0.51710  0.69880  0.01340  1.0000
  O   O15       1.0  0.98290  0.19880  0.51340  1.0000
  O   O16       1.0  0.01710  0.80120  0.01340  1.0000
  O   O17       1.0  0.51740  0.34910  0.33160  1.0000
  O   O18       1.0  0.48260  0.65090  0.83160  1.0000
  O   O19       1.0  0.01740  0.15090  0.33160  1.0000
  O   O20       1.0  0.98260  0.84910  0.83160  1.0000
  O   O21       1.0  0.64890  0.40130  0.27470  1.0000
  O   O22       1.0  0.35110  0.59870  0.77470  1.0000
  O   O23       1.0  0.14890  0.09870  0.27470  1.0000
  O   O24       1.0  0.85110  0.90130  0.77470  1.0000
  O   O25       1.0  0.27830  0.24680  0.52750  1.0000
  O   O26       1.0  0.72170  0.75320  0.02750  1.0000
  O   O27       1.0  0.77830  0.25320  0.52750  1.0000
  O   O28       1.0  0.22170  0.74680  0.02750  1.0000
  O   O29       1.0  0.32240  0.43990  0.56990  1.0000
  O   O30       1.0  0.67760  0.56010  0.06990  1.0000
  O   O31       1.0  0.82240  0.06010  0.56990  1.0000
  O   O32       1.0  0.17760  0.93990  0.06990  1.0000
  O   O33       1.0  0.43630  0.57580  0.41710  1.0000
  O   O34       1.0  0.56370  0.42420  0.91710  1.0000
  O   O35       1.0  0.93630  0.92420  0.41710  1.0000
  O   O36       1.0  0.06370  0.07580  0.91710  1.0000
  O   O37       1.0  0.58260  0.57400  0.43220  1.0000
  O   O38       1.0  0.41740  0.42600  0.93220  1.0000
  O   O39       1.0  0.08260  0.92600  0.43220  1.0000
  O   O40       1.0  0.91740  0.07400  0.93220  1.0000
  O   O41       1.0  0.74480  0.97610  0.39040  1.0000
  O   O42       1.0  0.25520  0.02390  0.89040  1.0000
  O   O43       1.0  0.24480  0.52390  0.39040  1.0000
  O   O44       1.0  0.75520  0.47610  0.89040  1.0000
  O   O45       1.0  0.68020  0.16240  0.36570  1.0000
  O   O46       1.0  0.31980  0.83760  0.86570  1.0000
  O   O47       1.0  0.18020  0.33760  0.36570  1.0000
  O   O48       1.0  0.81980  0.66240  0.86570  1.0000
  O   O49       1.0  0.27850  0.00410  0.41570  1.0000
  O   O50       1.0  0.72150  0.99590  0.91570  1.0000
  O   O51       1.0  0.77850  0.49590  0.41570  1.0000
  O   O52       1.0  0.22150  0.50410  0.91570  1.0000
  O   O53       1.0  0.35160  0.16600  0.34880  1.0000
  O   O54       1.0  0.64840  0.83400  0.84880  1.0000
  O   O55       1.0  0.85160  0.33400  0.34880  1.0000
  O   O56       1.0  0.14840  0.66600  0.84880  1.0000
  C   C1        1.0  0.63880  0.48080  0.68550  1.0000
  C   C2        1.0  0.36120  0.51920  0.18550  1.0000
  C   C3        1.0  0.13880  0.01920  0.68550  1.0000
  C   C4        1.0  0.86120  0.98080  0.18550  1.0000
  H   H1        1.0  0.61168  0.40914  0.71282  1.0000
  H   H2        1.0  0.38832  0.59086  0.21282  1.0000
  H   H3        1.0  0.11168  0.09086  0.71282  1.0000
  H   H4        1.0  0.88832  0.90914  0.21282  1.0000
  C   C5        1.0  0.59050  0.83680  0.38740  1.0000
  C   C6        1.0  0.40950  0.16320  0.88740  1.0000
  C   C7        1.0  0.09050  0.66320  0.38740  1.0000
  C   C8        1.0  0.90950  0.33680  0.88740  1.0000
  H   H5        1.0  0.64346  0.79164  0.39141  1.0000
  H   H6        1.0  0.35654  0.20836  0.89141  1.0000
  H   H7        1.0  0.14346  0.70836  0.39141  1.0000
  H   H8        1.0  0.85654  0.29164  0.89141  1.0000
  C   C9        1.0  0.50990  0.77180  0.39650  1.0000
  C   C10       1.0  0.49010  0.22820  0.89650  1.0000
  C   C11       1.0  0.00990  0.72820  0.39650  1.0000
  C   C12       1.0  0.99010  0.27180  0.89650  1.0000
  C   C13       1.0  0.43100  0.84040  0.39050  1.0000
  C   C14       1.0  0.56900  0.15960  0.89050  1.0000
  C   C15       1.0  0.93100  0.65960  0.39050  1.0000
  C   C16       1.0  0.06900  0.34040  0.89050  1.0000
  H   H9        1.0  0.37785  0.79613  0.39597  1.0000
  H   H10       1.0  0.62215  0.20387  0.89597  1.0000
  H   H11       1.0  0.87785  0.70387  0.39597  1.0000
  H   H12       1.0  0.12215  0.29613  0.89597  1.0000
  C   C17       1.0  0.42970  0.97260  0.37650  1.0000
  C   C18       1.0  0.57030  0.02740  0.87650  1.0000
  C   C19       1.0  0.92970  0.52740  0.37650  1.0000
  C   C20       1.0  0.07030  0.47260  0.87650  1.0000
  C   C21       1.0  0.51150  0.03630  0.36550  1.0000
  C   C22       1.0  0.48850  0.96370  0.86550  1.0000
  C   C23       1.0  0.01150  0.46370  0.36550  1.0000
  C   C24       1.0  0.98850  0.53630  0.86550  1.0000
  H   H13       1.0  0.51210  0.12467  0.35355  1.0000
  H   H14       1.0  0.48790  0.87533  0.85355  1.0000
  H   H15       1.0  0.01210  0.37533  0.35355  1.0000
  H   H16       1.0  0.98790  0.62467  0.85355  1.0000
  C   C25       1.0  0.59050  0.97110  0.37210  1.0000
  C   C26       1.0  0.40950  0.02890  0.87210  1.0000
  C   C27       1.0  0.09050  0.52890  0.37210  1.0000
  C   C28       1.0  0.90950  0.47110  0.87210  1.0000
  C   C29       1.0  0.67760  0.04110  0.37670  1.0000
  C   C30       1.0  0.32240  0.95890  0.87670  1.0000
  C   C31       1.0  0.17760  0.45890  0.37670  1.0000
  C   C32       1.0  0.82240  0.54110  0.87670  1.0000
  C   C33       1.0  0.34760  0.05200  0.37980  1.0000
  C   C34       1.0  0.65240  0.94800  0.87980  1.0000
  C   C35       1.0  0.84760  0.44800  0.37980  1.0000
  C   C36       1.0  0.15240  0.55200  0.87980  1.0000
  C   C37       1.0  0.51160  0.62740  0.41630  1.0000
  C   C38       1.0  0.48840  0.37260  0.91630  1.0000
  C   C39       1.0  0.01160  0.87260  0.41630  1.0000
  C   C40       1.0  0.98840  0.12740  0.91630  1.0000
  C   C41       1.0  0.53800  0.35100  0.16100  1.0000
  C   C42       1.0  0.46200  0.64900  0.66100  1.0000
  C   C43       1.0  0.03800  0.14900  0.16100  1.0000
  C   C44       1.0  0.96200  0.85100  0.66100  1.0000
  H   H17       1.0  0.48484  0.30081  0.16083  1.0000
  H   H18       1.0  0.51516  0.69919  0.66083  1.0000
  H   H19       1.0  0.98484  0.19919  0.16083  1.0000
  H   H20       1.0  0.01516  0.80081  0.66083  1.0000
  H   H21       1.0  0.58350  0.30398  0.12706  1.0000
  H   H22       1.0  0.41650  0.69602  0.62706  1.0000
  H   H23       1.0  0.08350  0.19602  0.12706  1.0000
  H   H24       1.0  0.91650  0.80398  0.62706  1.0000
  H   H25       1.0  0.52799  0.43178  0.12946  1.0000
  H   H26       1.0  0.47201  0.56822  0.62946  1.0000
  H   H27       1.0  0.02799  0.06822  0.12946  1.0000
  H   H28       1.0  0.97201  0.93178  0.62946  1.0000
  C   C45       1.0  0.56800  0.37460  0.26320  1.0000
  C   C46       1.0  0.43200  0.62540  0.76320  1.0000
  C   C47       1.0  0.06800  0.12540  0.26320  1.0000
  C   C48       1.0  0.93200  0.87460  0.76320  1.0000
  C   C49       1.0  0.46320  0.11860  0.61810  1.0000
  C   C50       1.0  0.53680  0.88140  0.11810  1.0000
  C   C51       1.0  0.96320  0.38140  0.61810  1.0000
  C   C52       1.0  0.03680  0.61860  0.11810  1.0000
  H   H29       1.0  0.49392  0.03794  0.62485  1.0000
  H   H30       1.0  0.50608  0.96206  0.12485  1.0000
  H   H31       1.0  0.99392  0.46206  0.62485  1.0000
  H   H32       1.0  0.00608  0.53794  0.12485  1.0000
  H   H33       1.0  0.40743  0.10390  0.58734  1.0000
  H   H34       1.0  0.59257  0.89610  0.08734  1.0000
  H   H35       1.0  0.90743  0.39610  0.58734  1.0000
  H   H36       1.0  0.09257  0.60390  0.08734  1.0000
  H   H37       1.0  0.45349  0.15576  0.67996  1.0000
  H   H38       1.0  0.54651  0.84424  0.17996  1.0000
  H   H39       1.0  0.95349  0.34424  0.67996  1.0000
  H   H40       1.0  0.04651  0.65576  0.17996  1.0000
  C   C53       1.0  0.51750  0.20920  0.55880  1.0000
  C   C54       1.0  0.48250  0.79080  0.05880  1.0000
  C   C55       1.0  0.01750  0.29080  0.55880  1.0000
  C   C56       1.0  0.98250  0.70920  0.05880  1.0000
  C   C57       1.0  0.26320  0.30820  0.69210  1.0000
  C   C58       1.0  0.73680  0.69180  0.19210  1.0000
  C   C59       1.0  0.76320  0.19180  0.69210  1.0000
  C   C60       1.0  0.23680  0.80820  0.19210  1.0000
  H   H41       1.0  0.20005  0.30940  0.69815  1.0000
  H   H42       1.0  0.79995  0.69060  0.19815  1.0000
  H   H43       1.0  0.70005  0.19060  0.69815  1.0000
  H   H44       1.0  0.29995  0.80940  0.19815  1.0000
  H   H45       1.0  0.28825  0.37382  0.73232  1.0000
  H   H46       1.0  0.71175  0.62618  0.23232  1.0000
  H   H47       1.0  0.78825  0.12618  0.73232  1.0000
  H   H48       1.0  0.21175  0.87382  0.23232  1.0000
  H   H49       1.0  0.28524  0.22516  0.71111  1.0000
  H   H50       1.0  0.71476  0.77484  0.21111  1.0000
  H   H51       1.0  0.78524  0.27484  0.71111  1.0000
  H   H52       1.0  0.21476  0.72516  0.21111  1.0000
  C   C61       1.0  0.28820  0.33380  0.59030  1.0000
  C   C62       1.0  0.71180  0.66620  0.09030  1.0000
  C   C63       1.0  0.78820  0.16620  0.59030  1.0000
  C   C64       1.0  0.21180  0.83380  0.09030  1.0000
