data_image0
_chemical_formula_structural       Bi4C4H4C4H4C4H8C8H4C4H4Cl16N12
_chemical_formula_sum              "Bi4 C24 H24 Cl16 N12"
_cell_length_a       12.4672
_cell_length_b       26.739
_cell_length_c       7.6421
_cell_angle_alpha    90
_cell_angle_beta     105.045
_cell_angle_gamma    90

_space_group_name_H-M_alt    "P 1"
_space_group_IT_number       1

loop_
  _space_group_symop_operation_xyz
  'x, y, z'

loop_
  _atom_site_type_symbol
  _atom_site_label
  _atom_site_symmetry_multiplicity
  _atom_site_fract_x
  _atom_site_fract_y
  _atom_site_fract_z
  _atom_site_occupancy
  Bi  Bi1       1.0  0.02922  0.92966  0.62732  1.0000
  Bi  Bi2       1.0  0.97078  0.42966  0.87268  1.0000
  Bi  Bi3       1.0  0.97078  0.07034  0.37268  1.0000
  Bi  Bi4       1.0  0.02922  0.57034  0.12732  1.0000
  C   C1        1.0  0.81240  0.99150  0.75900  1.0000
  C   C2        1.0  0.18760  0.49150  0.74100  1.0000
  C   C3        1.0  0.18760  0.00850  0.24100  1.0000
  C   C4        1.0  0.81240  0.50850  0.25900  1.0000
  H   H1        1.0  0.86110  0.01500  0.82630  1.0000
  H   H2        1.0  0.13890  0.51500  0.67370  1.0000
  H   H3        1.0  0.13890  0.98500  0.17370  1.0000
  H   H4        1.0  0.86110  0.48500  0.32630  1.0000
  C   C5        1.0  0.74440  0.92950  0.60800  1.0000
  C   C6        1.0  0.25560  0.42950  0.89200  1.0000
  C   C7        1.0  0.25560  0.07050  0.39200  1.0000
  C   C8        1.0  0.74440  0.57050  0.10800  1.0000
  H   H5        1.0  0.73900  0.89910  0.54720  1.0000
  H   H6        1.0  0.26100  0.39910  0.95280  1.0000
  H   H7        1.0  0.26100  0.10090  0.45280  1.0000
  H   H8        1.0  0.73900  0.60090  0.04720  1.0000
  C   C9        1.0  0.63500  0.03460  0.76700  1.0000
  C   C10       1.0  0.36500  0.53460  0.73300  1.0000
  C   C11       1.0  0.36500  0.96540  0.23300  1.0000
  C   C12       1.0  0.63500  0.46540  0.26700  1.0000
  H   H9        1.0  0.58650  0.04820  0.65730  1.0000
  H   H10       1.0  0.41350  0.54820  0.84270  1.0000
  H   H11       1.0  0.41350  0.95180  0.34270  1.0000
  H   H12       1.0  0.58650  0.45180  0.15730  1.0000
  H   H13       1.0  0.68320  0.06130  0.82810  1.0000
  H   H14       1.0  0.31680  0.56130  0.67190  1.0000
  H   H15       1.0  0.31680  0.93870  0.17190  1.0000
  H   H16       1.0  0.68320  0.43870  0.32810  1.0000
  C   C13       1.0  0.56610  0.01600  0.88840  1.0000
  C   C14       1.0  0.43390  0.51600  0.61160  1.0000
  C   C15       1.0  0.43390  0.98400  0.11160  1.0000
  C   C16       1.0  0.56610  0.48400  0.38840  1.0000
  C   C17       1.0  0.60920  0.01430  0.06600  1.0000
  C   C18       1.0  0.39080  0.51430  0.43400  1.0000
  C   C19       1.0  0.39080  0.98570  0.93400  1.0000
  C   C20       1.0  0.60920  0.48570  0.56600  1.0000
  H   H17       1.0  0.68270  0.02370  0.11440  1.0000
  H   H18       1.0  0.31730  0.52370  0.38560  1.0000
  H   H19       1.0  0.31730  0.97630  0.88560  1.0000
  H   H20       1.0  0.68270  0.47630  0.61440  1.0000
  C   C21       1.0  0.45490  0.00150  0.82000  1.0000
  C   C22       1.0  0.54510  0.50150  0.68000  1.0000
  C   C23       1.0  0.54510  0.99850  0.18000  1.0000
  C   C24       1.0  0.45490  0.49850  0.32000  1.0000
  H   H21       1.0  0.42330  0.00250  0.69560  1.0000
  H   H22       1.0  0.57670  0.50250  0.80440  1.0000
  H   H23       1.0  0.57670  0.99750  0.30440  1.0000
  H   H24       1.0  0.42330  0.49750  0.19560  1.0000
  Cl  Cl1       1.0  0.91760  0.96975  0.26910  1.0000
  Cl  Cl2       1.0  0.08240  0.46975  0.23090  1.0000
  Cl  Cl3       1.0  0.08240  0.03025  0.73090  1.0000
  Cl  Cl4       1.0  0.91760  0.53025  0.76910  1.0000
  Cl  Cl5       1.0  0.93850  0.84399  0.51440  1.0000
  Cl  Cl6       1.0  0.06150  0.34399  0.98560  1.0000
  Cl  Cl7       1.0  0.06150  0.15601  0.48560  1.0000
  Cl  Cl8       1.0  0.93850  0.65601  0.01440  1.0000
  Cl  Cl9       1.0  0.21860  0.90800  0.55150  1.0000
  Cl  Cl10      1.0  0.78140  0.40800  0.94850  1.0000
  Cl  Cl11      1.0  0.78140  0.09200  0.44850  1.0000
  Cl  Cl12      1.0  0.21860  0.59200  0.05150  1.0000
  Cl  Cl13      1.0  0.10070  0.89887  0.95270  1.0000
  Cl  Cl14      1.0  0.89930  0.39887  0.54730  1.0000
  Cl  Cl15      1.0  0.89930  0.10113  0.04730  1.0000
  Cl  Cl16      1.0  0.10070  0.60113  0.45270  1.0000
  N   N1        1.0  0.84210  0.95080  0.68970  1.0000
  N   N2        1.0  0.15790  0.45080  0.81030  1.0000
  N   N3        1.0  0.15790  0.04920  0.31030  1.0000
  N   N4        1.0  0.84210  0.54920  0.18970  1.0000
  N   N5        1.0  0.65950  0.95470  0.61940  1.0000
  N   N6        1.0  0.34050  0.45470  0.88060  1.0000
  N   N7        1.0  0.34050  0.04530  0.38060  1.0000
  N   N8        1.0  0.65950  0.54530  0.11940  1.0000
  N   N9        1.0  0.70290  0.99450  0.72010  1.0000
  N   N10       1.0  0.29710  0.49450  0.77990  1.0000
  N   N11       1.0  0.29710  0.00550  0.27990  1.0000
  N   N12       1.0  0.70290  0.50550  0.22010  1.0000
