data_image0
_chemical_formula_structural       Co2O12C4Co4C8O20C4H12Co4C8O16H4C8H4Co4C8H4C4H4O16C4O4C4O4C28H4C8H8C8H4C16H4C4H8C4H8C4H4C4H4C8H4O8C4H12C4H4C12O2C20H4C4H4C4H4C4H4C4H8C4H8C8H8
_chemical_formula_sum              "Co14 O82 C204 H132"
_cell_length_a       19.4499
_cell_length_b       10.8839
_cell_length_c       27.7796
_cell_angle_alpha    90
_cell_angle_beta     104.467
_cell_angle_gamma    90

_space_group_name_H-M_alt    "P 1"
_space_group_IT_number       1

loop_
  _space_group_symop_operation_xyz
  'x, y, z'

loop_
  _atom_site_type_symbol
  _atom_site_label
  _atom_site_symmetry_multiplicity
  _atom_site_fract_x
  _atom_site_fract_y
  _atom_site_fract_z
  _atom_site_occupancy
  Co  Co1       1.0  0.50000  0.50000  0.00000  1.0000
  Co  Co2       1.0  0.50000  0.50000  0.50000  1.0000
  O   O1        1.0  0.45826  0.45310  0.06063  1.0000
  O   O2        1.0  0.54174  0.45310  0.43937  1.0000
  O   O3        1.0  0.54174  0.54690  0.93937  1.0000
  O   O4        1.0  0.45826  0.54690  0.56063  1.0000
  O   O5        1.0  0.41617  0.63151  0.97766  1.0000
  O   O6        1.0  0.58383  0.63151  0.52234  1.0000
  O   O7        1.0  0.58383  0.36849  0.02234  1.0000
  O   O8        1.0  0.41617  0.36849  0.47766  1.0000
  O   O9        1.0  0.43049  0.62200  0.45937  1.0000
  O   O10       1.0  0.56951  0.62200  0.04063  1.0000
  O   O11       1.0  0.56951  0.37800  0.54063  1.0000
  O   O12       1.0  0.43049  0.37800  0.95937  1.0000
  C   C1        1.0  0.41540  0.47930  0.08502  1.0000
  C   C2        1.0  0.58460  0.47930  0.41498  1.0000
  C   C3        1.0  0.58460  0.52070  0.91498  1.0000
  C   C4        1.0  0.41540  0.52070  0.58502  1.0000
  Co  Co3       1.0  0.40132  0.72571  0.04219  1.0000
  Co  Co4       1.0  0.59868  0.72571  0.45781  1.0000
  Co  Co5       1.0  0.59868  0.27429  0.95781  1.0000
  Co  Co6       1.0  0.40132  0.27429  0.54219  1.0000
  C   C5        1.0  0.40848  0.73300  0.95382  1.0000
  C   C6        1.0  0.59152  0.73300  0.54618  1.0000
  C   C7        1.0  0.59152  0.26700  0.04618  1.0000
  C   C8        1.0  0.40848  0.26700  0.45382  1.0000
  C   C9        1.0  0.40990  0.39500  0.12655  1.0000
  C   C10       1.0  0.59010  0.39500  0.37345  1.0000
  C   C11       1.0  0.59010  0.60500  0.87345  1.0000
  C   C12       1.0  0.40990  0.60500  0.62655  1.0000
  O   O13       1.0  0.37535  0.57430  0.07676  1.0000
  O   O14       1.0  0.62465  0.57430  0.42324  1.0000
  O   O15       1.0  0.62465  0.42570  0.92324  1.0000
  O   O16       1.0  0.37535  0.42570  0.57676  1.0000
  O   O17       1.0  0.40209  0.82980  0.97679  1.0000
  O   O18       1.0  0.59791  0.82980  0.52321  1.0000
  O   O19       1.0  0.59791  0.17020  0.02321  1.0000
  O   O20       1.0  0.40209  0.17020  0.47679  1.0000
  O   O21       1.0  0.49513  0.73740  0.42085  1.0000
  O   O22       1.0  0.50487  0.73740  0.07915  1.0000
  O   O23       1.0  0.50487  0.26260  0.57915  1.0000
  O   O24       1.0  0.49513  0.26260  0.92085  1.0000
  O   O25       1.0  0.38488  0.14620  0.59029  1.0000
  O   O26       1.0  0.61512  0.14620  0.90971  1.0000
  O   O27       1.0  0.61512  0.85380  0.40971  1.0000
  O   O28       1.0  0.38488  0.85380  0.09029  1.0000
  O   O29       1.0  0.27973  0.27080  0.51378  1.0000
  O   O30       1.0  0.72027  0.27080  0.98622  1.0000
  O   O31       1.0  0.72027  0.72920  0.48622  1.0000
  O   O32       1.0  0.27973  0.72920  0.01378  1.0000
  C   C13       1.0  0.40330  0.73440  0.89977  1.0000
  C   C14       1.0  0.59670  0.73440  0.60023  1.0000
  C   C15       1.0  0.59670  0.26560  0.10023  1.0000
  C   C16       1.0  0.40330  0.26560  0.39977  1.0000
  H   H1        1.0  0.36190  0.36660  0.12130  1.0000
  H   H2        1.0  0.63810  0.36660  0.37870  1.0000
  H   H3        1.0  0.63810  0.63340  0.87870  1.0000
  H   H4        1.0  0.36190  0.63340  0.62130  1.0000
  H   H5        1.0  0.42340  0.43850  0.15760  1.0000
  H   H6        1.0  0.57660  0.43850  0.34240  1.0000
  H   H7        1.0  0.57660  0.56150  0.84240  1.0000
  H   H8        1.0  0.42340  0.56150  0.65760  1.0000
  H   H9        1.0  0.44100  0.32600  0.12740  1.0000
  H   H10       1.0  0.55900  0.32600  0.37260  1.0000
  H   H11       1.0  0.55900  0.67400  0.87260  1.0000
  H   H12       1.0  0.44100  0.67400  0.62740  1.0000
  Co  Co7       1.0  0.27081  0.62442  0.08154  1.0000
  Co  Co8       1.0  0.72919  0.62442  0.41846  1.0000
  Co  Co9       1.0  0.72919  0.37558  0.91846  1.0000
  Co  Co10      1.0  0.27081  0.37558  0.58154  1.0000
  C   C17       1.0  0.39228  0.62630  0.87220  1.0000
  C   C18       1.0  0.60772  0.62630  0.62780  1.0000
  C   C19       1.0  0.60772  0.37370  0.12780  1.0000
  C   C20       1.0  0.39228  0.37370  0.37220  1.0000
  C   C21       1.0  0.40805  0.84480  0.87561  1.0000
  C   C22       1.0  0.59195  0.84480  0.62439  1.0000
  C   C23       1.0  0.59195  0.15520  0.12439  1.0000
  C   C24       1.0  0.40805  0.15520  0.37561  1.0000
  O   O33       1.0  0.15996  0.66960  0.07740  1.0000
  O   O34       1.0  0.84004  0.66960  0.42260  1.0000
  O   O35       1.0  0.84004  0.33040  0.92260  1.0000
  O   O36       1.0  0.15996  0.33040  0.57740  1.0000
  O   O37       1.0  0.25729  0.48620  0.12523  1.0000
  O   O38       1.0  0.74271  0.48620  0.37477  1.0000
  O   O39       1.0  0.74271  0.51380  0.87477  1.0000
  O   O40       1.0  0.25729  0.51380  0.62523  1.0000
  O   O41       1.0  0.30269  0.22710  0.62445  1.0000
  O   O42       1.0  0.69731  0.22710  0.87555  1.0000
  O   O43       1.0  0.69731  0.77290  0.37555  1.0000
  O   O44       1.0  0.30269  0.77290  0.12445  1.0000
  O   O45       1.0  0.21639  0.43850  0.50721  1.0000
  O   O46       1.0  0.78361  0.43850  0.99279  1.0000
  O   O47       1.0  0.78361  0.56150  0.49279  1.0000
  O   O48       1.0  0.21639  0.56150  0.00721  1.0000
  H   H13       1.0  0.38990  0.55180  0.88810  1.0000
  H   H14       1.0  0.61010  0.55180  0.61190  1.0000
  H   H15       1.0  0.61010  0.44820  0.11190  1.0000
  H   H16       1.0  0.38990  0.44820  0.38810  1.0000
  C   C25       1.0  0.38487  0.62840  0.82172  1.0000
  C   C26       1.0  0.61513  0.62840  0.67828  1.0000
  C   C27       1.0  0.61513  0.37160  0.17828  1.0000
  C   C28       1.0  0.38487  0.37160  0.32172  1.0000
  C   C29       1.0  0.40187  0.84710  0.82499  1.0000
  C   C30       1.0  0.59813  0.84710  0.67501  1.0000
  C   C31       1.0  0.59813  0.15290  0.17501  1.0000
  C   C32       1.0  0.40187  0.15290  0.32499  1.0000
  H   H17       1.0  0.41540  0.91770  0.89370  1.0000
  H   H18       1.0  0.58460  0.91770  0.60630  1.0000
  H   H19       1.0  0.58460  0.08230  0.10630  1.0000
  H   H20       1.0  0.41540  0.08230  0.39370  1.0000
  Co  Co11      1.0  0.11185  0.53395  0.02687  1.0000
  Co  Co12      1.0  0.88815  0.53395  0.47313  1.0000
  Co  Co13      1.0  0.88815  0.46605  0.97313  1.0000
  Co  Co14      1.0  0.11185  0.46605  0.52687  1.0000
  C   C33       1.0  0.12623  0.76110  0.09085  1.0000
  C   C34       1.0  0.87377  0.76110  0.40915  1.0000
  C   C35       1.0  0.87377  0.23890  0.90915  1.0000
  C   C36       1.0  0.12623  0.23890  0.59085  1.0000
  C   C37       1.0  0.20236  0.41970  0.11794  1.0000
  C   C38       1.0  0.79764  0.41970  0.38206  1.0000
  C   C39       1.0  0.79764  0.58030  0.88206  1.0000
  C   C40       1.0  0.20236  0.58030  0.61794  1.0000
  H   H21       1.0  0.37670  0.55580  0.80350  1.0000
  H   H22       1.0  0.62330  0.55580  0.69650  1.0000
  H   H23       1.0  0.62330  0.44420  0.19650  1.0000
  H   H24       1.0  0.37670  0.44420  0.30350  1.0000
  C   C41       1.0  0.38953  0.73860  0.79793  1.0000
  C   C42       1.0  0.61047  0.73860  0.70207  1.0000
  C   C43       1.0  0.61047  0.26140  0.20207  1.0000
  C   C44       1.0  0.38953  0.26140  0.29793  1.0000
  H   H25       1.0  0.40600  0.92100  0.80910  1.0000
  H   H26       1.0  0.59400  0.92100  0.69090  1.0000
  H   H27       1.0  0.59400  0.07900  0.19090  1.0000
  H   H28       1.0  0.40600  0.07900  0.30910  1.0000
  O   O49       1.0  0.16114  0.39860  0.07616  1.0000
  O   O50       1.0  0.83886  0.39860  0.42384  1.0000
  O   O51       1.0  0.83886  0.60140  0.92384  1.0000
  O   O52       1.0  0.16114  0.60140  0.57616  1.0000
  O   O53       1.0  0.08019  0.41060  0.97006  1.0000
  O   O54       1.0  0.91981  0.41060  0.52994  1.0000
  O   O55       1.0  0.91981  0.58940  0.02994  1.0000
  O   O56       1.0  0.08019  0.58940  0.47006  1.0000
  O   O57       1.0  0.06135  0.67930  0.98128  1.0000
  O   O58       1.0  0.93865  0.67930  0.51872  1.0000
  O   O59       1.0  0.93865  0.32070  0.01872  1.0000
  O   O60       1.0  0.06135  0.32070  0.48128  1.0000
  O   O61       1.0  0.97217  0.48960  0.94002  1.0000
  O   O62       1.0  0.02783  0.48960  0.55998  1.0000
  O   O63       1.0  0.02783  0.51040  0.05998  1.0000
  O   O64       1.0  0.97217  0.51040  0.44002  1.0000
  C   C45       1.0  0.14516  0.79280  0.14494  1.0000
  C   C46       1.0  0.85484  0.79280  0.35506  1.0000
  C   C47       1.0  0.85484  0.20720  0.85506  1.0000
  C   C48       1.0  0.14516  0.20720  0.64494  1.0000
  O   O65       1.0  0.07937  0.81920  0.06174  1.0000
  O   O66       1.0  0.92063  0.81920  0.43826  1.0000
  O   O67       1.0  0.92063  0.18080  0.93826  1.0000
  O   O68       1.0  0.07937  0.18080  0.56174  1.0000
  C   C49       1.0  0.18444  0.36560  0.16271  1.0000
  C   C50       1.0  0.81556  0.36560  0.33729  1.0000
  C   C51       1.0  0.81556  0.63440  0.83729  1.0000
  C   C52       1.0  0.18444  0.63440  0.66271  1.0000
  O   O69       1.0  0.38429  0.73190  0.74776  1.0000
  O   O70       1.0  0.61571  0.73190  0.75224  1.0000
  O   O71       1.0  0.61571  0.26810  0.25224  1.0000
  O   O72       1.0  0.38429  0.26810  0.24776  1.0000
  C   C53       1.0  0.02433  0.42680  0.93576  1.0000
  C   C54       1.0  0.97567  0.42680  0.56424  1.0000
  C   C55       1.0  0.97567  0.57320  0.06424  1.0000
  C   C56       1.0  0.02433  0.57320  0.43576  1.0000
  C   C57       1.0  0.11612  0.89530  0.16188  1.0000
  C   C58       1.0  0.88388  0.89530  0.33812  1.0000
  C   C59       1.0  0.88388  0.10470  0.83812  1.0000
  C   C60       1.0  0.11612  0.10470  0.66188  1.0000
  C   C61       1.0  0.19001  0.71750  0.17921  1.0000
  C   C62       1.0  0.80999  0.71750  0.32079  1.0000
  C   C63       1.0  0.80999  0.28250  0.82079  1.0000
  C   C64       1.0  0.19001  0.28250  0.67921  1.0000
  C   C65       1.0  0.12305  0.29610  0.15780  1.0000
  C   C66       1.0  0.87695  0.29610  0.34220  1.0000
  C   C67       1.0  0.87695  0.70390  0.84220  1.0000
  C   C68       1.0  0.12305  0.70390  0.65780  1.0000
  C   C69       1.0  0.22455  0.39190  0.21002  1.0000
  C   C70       1.0  0.77545  0.39190  0.28998  1.0000
  C   C71       1.0  0.77545  0.60810  0.78998  1.0000
  C   C72       1.0  0.22455  0.60810  0.71002  1.0000
  C   C73       1.0  0.37450  0.83860  0.71908  1.0000
  C   C74       1.0  0.62550  0.83860  0.78092  1.0000
  C   C75       1.0  0.62550  0.16140  0.28092  1.0000
  C   C76       1.0  0.37450  0.16140  0.21908  1.0000
  C   C77       1.0  0.02095  0.37120  0.88618  1.0000
  C   C78       1.0  0.97905  0.37120  0.61382  1.0000
  C   C79       1.0  0.97905  0.62880  0.11382  1.0000
  C   C80       1.0  0.02095  0.62880  0.38618  1.0000
  H   H29       1.0  0.08540  0.94570  0.13920  1.0000
  H   H30       1.0  0.91460  0.94570  0.36080  1.0000
  H   H31       1.0  0.91460  0.05430  0.86080  1.0000
  H   H32       1.0  0.08540  0.05430  0.63920  1.0000
  C   C81       1.0  0.13209  0.92390  0.21198  1.0000
  C   C82       1.0  0.86791  0.92390  0.28802  1.0000
  C   C83       1.0  0.86791  0.07610  0.78802  1.0000
  C   C84       1.0  0.13209  0.07610  0.71198  1.0000
  C   C85       1.0  0.20583  0.74430  0.22939  1.0000
  C   C86       1.0  0.79417  0.74430  0.27061  1.0000
  C   C87       1.0  0.79417  0.25570  0.77061  1.0000
  C   C88       1.0  0.20583  0.25570  0.72939  1.0000
  H   H33       1.0  0.20960  0.64820  0.16830  1.0000
  H   H34       1.0  0.79040  0.64820  0.33170  1.0000
  H   H35       1.0  0.79040  0.35180  0.83170  1.0000
  H   H36       1.0  0.20960  0.35180  0.66830  1.0000
  H   H37       1.0  0.09590  0.27600  0.12620  1.0000
  H   H38       1.0  0.90410  0.27600  0.37380  1.0000
  H   H39       1.0  0.90410  0.72400  0.87380  1.0000
  H   H40       1.0  0.09590  0.72400  0.62620  1.0000
  C   C89       1.0  0.10188  0.25650  0.19911  1.0000
  C   C90       1.0  0.89812  0.25650  0.30089  1.0000
  C   C91       1.0  0.89812  0.74350  0.80089  1.0000
  C   C92       1.0  0.10188  0.74350  0.69911  1.0000
  C   C93       1.0  0.20456  0.35270  0.25196  1.0000
  C   C94       1.0  0.79544  0.35270  0.24804  1.0000
  C   C95       1.0  0.79544  0.64730  0.74804  1.0000
  C   C96       1.0  0.20456  0.64730  0.75196  1.0000
  H   H41       1.0  0.26610  0.43720  0.21380  1.0000
  H   H42       1.0  0.73390  0.43720  0.28620  1.0000
  H   H43       1.0  0.73390  0.56280  0.78620  1.0000
  H   H44       1.0  0.26610  0.56280  0.71380  1.0000
  C   C97       1.0  0.42649  0.86750  0.69543  1.0000
  C   C98       1.0  0.57351  0.86750  0.80457  1.0000
  C   C99       1.0  0.57351  0.13250  0.30457  1.0000
  C   C100      1.0  0.42649  0.13250  0.19543  1.0000
  C   C101      1.0  0.31330  0.90810  0.71181  1.0000
  C   C102      1.0  0.68670  0.90810  0.78819  1.0000
  C   C103      1.0  0.68670  0.09190  0.28819  1.0000
  C   C104      1.0  0.31330  0.09190  0.21181  1.0000
  C   C105      1.0  0.97434  0.41980  0.84427  1.0000
  C   C106      1.0  0.02566  0.41980  0.65573  1.0000
  C   C107      1.0  0.02566  0.58020  0.15573  1.0000
  C   C108      1.0  0.97434  0.58020  0.34427  1.0000
  C   C109      1.0  0.06123  0.27010  0.88125  1.0000
  C   C110      1.0  0.93877  0.27010  0.61875  1.0000
  C   C111      1.0  0.93877  0.72990  0.11875  1.0000
  C   C112      1.0  0.06123  0.72990  0.38125  1.0000
  H   H45       1.0  0.11300  0.99370  0.22300  1.0000
  H   H46       1.0  0.88700  0.99370  0.27700  1.0000
  H   H47       1.0  0.88700  0.00630  0.77700  1.0000
  H   H48       1.0  0.11300  0.00630  0.72300  1.0000
  C   C113      1.0  0.17668  0.84740  0.24520  1.0000
  C   C114      1.0  0.82332  0.84740  0.25480  1.0000
  C   C115      1.0  0.82332  0.15260  0.75480  1.0000
  C   C116      1.0  0.17668  0.15260  0.74520  1.0000
  H   H49       1.0  0.23580  0.69330  0.25220  1.0000
  H   H50       1.0  0.76420  0.69330  0.24780  1.0000
  H   H51       1.0  0.76420  0.30670  0.74780  1.0000
  H   H52       1.0  0.23580  0.30670  0.75220  1.0000
  H   H53       1.0  0.06050  0.21070  0.19540  1.0000
  H   H54       1.0  0.93950  0.21070  0.30460  1.0000
  H   H55       1.0  0.93950  0.78930  0.80460  1.0000
  H   H56       1.0  0.06050  0.78930  0.69540  1.0000
  C   C117      1.0  0.14290  0.28550  0.24614  1.0000
  C   C118      1.0  0.85710  0.28550  0.25386  1.0000
  C   C119      1.0  0.85710  0.71450  0.75386  1.0000
  C   C120      1.0  0.14290  0.71450  0.74614  1.0000
  H   H57       1.0  0.23230  0.37130  0.28350  1.0000
  H   H58       1.0  0.76770  0.37130  0.21650  1.0000
  H   H59       1.0  0.76770  0.62870  0.71650  1.0000
  H   H60       1.0  0.23230  0.62870  0.78350  1.0000
  H   H61       1.0  0.46780  0.82090  0.70110  1.0000
  H   H62       1.0  0.53220  0.82090  0.79890  1.0000
  H   H63       1.0  0.53220  0.17910  0.29890  1.0000
  H   H64       1.0  0.46780  0.17910  0.20110  1.0000
  C   C121      1.0  0.41695  0.96630  0.66315  1.0000
  C   C122      1.0  0.58305  0.96630  0.83685  1.0000
  C   C123      1.0  0.58305  0.03370  0.33685  1.0000
  C   C124      1.0  0.41695  0.03370  0.16315  1.0000
  H   H65       1.0  0.27820  0.88760  0.72780  1.0000
  H   H66       1.0  0.72180  0.88760  0.77220  1.0000
  H   H67       1.0  0.72180  0.11240  0.27220  1.0000
  H   H68       1.0  0.27820  0.11240  0.22780  1.0000
  C   C125      1.0  0.30497  0.00880  0.68045  1.0000
  C   C126      1.0  0.69503  0.00880  0.81955  1.0000
  C   C127      1.0  0.69503  0.99120  0.31955  1.0000
  C   C128      1.0  0.30497  0.99120  0.18045  1.0000
  H   H69       1.0  0.94640  0.48720  0.84750  1.0000
  H   H70       1.0  0.05360  0.48720  0.65250  1.0000
  H   H71       1.0  0.05360  0.51280  0.15250  1.0000
  H   H72       1.0  0.94640  0.51280  0.34750  1.0000
  C   C129      1.0  0.96897  0.36880  0.79759  1.0000
  C   C130      1.0  0.03103  0.36880  0.70241  1.0000
  C   C131      1.0  0.03103  0.63120  0.20241  1.0000
  C   C132      1.0  0.96897  0.63120  0.29759  1.0000
  C   C133      1.0  0.05432  0.21500  0.83565  1.0000
  C   C134      1.0  0.94568  0.21500  0.66435  1.0000
  C   C135      1.0  0.94568  0.78500  0.16435  1.0000
  C   C136      1.0  0.05432  0.78500  0.33565  1.0000
  H   H73       1.0  0.09350  0.23870  0.90900  1.0000
  H   H74       1.0  0.90650  0.23870  0.59100  1.0000
  H   H75       1.0  0.90650  0.76130  0.09100  1.0000
  H   H76       1.0  0.09350  0.76130  0.40900  1.0000
  O   O73       1.0  0.18907  0.87840  0.29500  1.0000
  O   O74       1.0  0.81093  0.87840  0.20500  1.0000
  O   O75       1.0  0.81093  0.12160  0.70500  1.0000
  O   O76       1.0  0.18907  0.12160  0.79500  1.0000
  O   O77       1.0  0.11829  0.24060  0.28489  1.0000
  O   O78       1.0  0.88171  0.24060  0.21511  1.0000
  O   O79       1.0  0.88171  0.75940  0.71511  1.0000
  O   O80       1.0  0.11829  0.75940  0.78489  1.0000
  C   C137      1.0  0.35639  0.03890  0.65606  1.0000
  C   C138      1.0  0.64361  0.03890  0.84394  1.0000
  C   C139      1.0  0.64361  0.96110  0.34394  1.0000
  C   C140      1.0  0.35639  0.96110  0.15606  1.0000
  H   H77       1.0  0.45120  0.98430  0.64610  1.0000
  H   H78       1.0  0.54880  0.98430  0.85390  1.0000
  H   H79       1.0  0.54880  0.01570  0.35390  1.0000
  H   H80       1.0  0.45120  0.01570  0.14610  1.0000
  H   H81       1.0  0.26420  0.05670  0.67580  1.0000
  H   H82       1.0  0.73580  0.05670  0.82420  1.0000
  H   H83       1.0  0.73580  0.94330  0.32420  1.0000
  H   H84       1.0  0.26420  0.94330  0.17580  1.0000
  H   H85       1.0  0.93950  0.40390  0.76940  1.0000
  H   H86       1.0  0.06050  0.40390  0.73060  1.0000
  H   H87       1.0  0.06050  0.59610  0.23060  1.0000
  H   H88       1.0  0.93950  0.59610  0.26940  1.0000
  C   C141      1.0  0.00819  0.26510  0.79390  1.0000
  C   C142      1.0  0.99181  0.26510  0.70610  1.0000
  C   C143      1.0  0.99181  0.73490  0.20610  1.0000
  C   C144      1.0  0.00819  0.73490  0.29390  1.0000
  H   H89       1.0  0.08030  0.14480  0.83290  1.0000
  H   H90       1.0  0.91970  0.14480  0.66710  1.0000
  H   H91       1.0  0.91970  0.85520  0.16710  1.0000
  H   H92       1.0  0.08030  0.85520  0.33290  1.0000
  C   C145      1.0  0.25001  0.82900  0.32668  1.0000
  C   C146      1.0  0.74999  0.82900  0.17332  1.0000
  C   C147      1.0  0.74999  0.17100  0.67332  1.0000
  C   C148      1.0  0.25001  0.17100  0.82668  1.0000
  C   C149      1.0  0.15326  0.27270  0.33343  1.0000
  C   C150      1.0  0.84674  0.27270  0.16657  1.0000
  C   C151      1.0  0.84674  0.72730  0.66657  1.0000
  C   C152      1.0  0.15326  0.72730  0.83343  1.0000
  C   C153      1.0  0.34705  0.14620  0.62091  1.0000
  C   C154      1.0  0.65295  0.14620  0.87909  1.0000
  C   C155      1.0  0.65295  0.85380  0.37909  1.0000
  C   C156      1.0  0.34705  0.85380  0.12091  1.0000
  O   O81       1.0  0.00000  0.20150  0.75000  1.0000
  O   O82       1.0  0.00000  0.79850  0.25000  1.0000
  C   C157      1.0  0.24436  0.73830  0.35949  1.0000
  C   C158      1.0  0.75564  0.73830  0.14051  1.0000
  C   C159      1.0  0.75564  0.26170  0.64051  1.0000
  C   C160      1.0  0.24436  0.26170  0.85949  1.0000
  C   C161      1.0  0.31460  0.87360  0.32428  1.0000
  C   C162      1.0  0.68540  0.87360  0.17572  1.0000
  C   C163      1.0  0.68540  0.12640  0.67572  1.0000
  C   C164      1.0  0.31460  0.12640  0.82428  1.0000
  C   C165      1.0  0.19780  0.18920  0.36194  1.0000
  C   C166      1.0  0.80220  0.18920  0.13806  1.0000
  C   C167      1.0  0.80220  0.81080  0.63806  1.0000
  C   C168      1.0  0.19780  0.81080  0.86194  1.0000
  C   C169      1.0  0.13800  0.38330  0.35291  1.0000
  C   C170      1.0  0.86200  0.38330  0.14709  1.0000
  C   C171      1.0  0.86200  0.61670  0.64709  1.0000
  C   C172      1.0  0.13800  0.61670  0.85291  1.0000
  C   C173      1.0  0.30590  0.69410  0.39168  1.0000
  C   C174      1.0  0.69410  0.69410  0.10832  1.0000
  C   C175      1.0  0.69410  0.30590  0.60832  1.0000
  C   C176      1.0  0.30590  0.30590  0.89168  1.0000
  H   H93       1.0  0.20020  0.70680  0.36020  1.0000
  H   H94       1.0  0.79980  0.70680  0.13980  1.0000
  H   H95       1.0  0.79980  0.29320  0.63980  1.0000
  H   H96       1.0  0.20020  0.29320  0.86020  1.0000
  C   C177      1.0  0.37532  0.82940  0.35641  1.0000
  C   C178      1.0  0.62468  0.82940  0.14359  1.0000
  C   C179      1.0  0.62468  0.17060  0.64359  1.0000
  C   C180      1.0  0.37532  0.17060  0.85641  1.0000
  H   H97       1.0  0.31770  0.93370  0.30110  1.0000
  H   H98       1.0  0.68230  0.93370  0.19890  1.0000
  H   H99       1.0  0.68230  0.06630  0.69890  1.0000
  H   H100      1.0  0.31770  0.06630  0.80110  1.0000
  C   C181      1.0  0.22733  0.21500  0.41184  1.0000
  C   C182      1.0  0.77267  0.21500  0.08816  1.0000
  C   C183      1.0  0.77267  0.78500  0.58816  1.0000
  C   C184      1.0  0.22733  0.78500  0.91184  1.0000
  H   H101      1.0  0.20840  0.11590  0.34810  1.0000
  H   H102      1.0  0.79160  0.11590  0.15190  1.0000
  H   H103      1.0  0.79160  0.88410  0.65190  1.0000
  H   H104      1.0  0.20840  0.88410  0.84810  1.0000
  C   C185      1.0  0.16690  0.40820  0.40254  1.0000
  C   C186      1.0  0.83310  0.40820  0.09746  1.0000
  C   C187      1.0  0.83310  0.59180  0.59746  1.0000
  C   C188      1.0  0.16690  0.59180  0.90254  1.0000
  H   H105      1.0  0.10850  0.44020  0.33280  1.0000
  H   H106      1.0  0.89150  0.44020  0.16720  1.0000
  H   H107      1.0  0.89150  0.55980  0.66720  1.0000
  H   H108      1.0  0.10850  0.55980  0.83280  1.0000
  C   C189      1.0  0.37144  0.74110  0.39076  1.0000
  C   C190      1.0  0.62856  0.74110  0.10924  1.0000
  C   C191      1.0  0.62856  0.25890  0.60924  1.0000
  C   C192      1.0  0.37144  0.25890  0.89076  1.0000
  H   H109      1.0  0.30290  0.63210  0.41410  1.0000
  H   H110      1.0  0.69710  0.63210  0.08590  1.0000
  H   H111      1.0  0.69710  0.36790  0.58590  1.0000
  H   H112      1.0  0.30290  0.36790  0.91410  1.0000
  H   H113      1.0  0.41940  0.85980  0.35480  1.0000
  H   H114      1.0  0.58060  0.85980  0.14520  1.0000
  H   H115      1.0  0.58060  0.14020  0.64520  1.0000
  H   H116      1.0  0.41940  0.14020  0.85480  1.0000
  C   C193      1.0  0.21118  0.32410  0.43268  1.0000
  C   C194      1.0  0.78882  0.32410  0.06732  1.0000
  C   C195      1.0  0.78882  0.67590  0.56732  1.0000
  C   C196      1.0  0.21118  0.67590  0.93268  1.0000
  H   H117      1.0  0.25810  0.15890  0.43140  1.0000
  H   H118      1.0  0.74190  0.15890  0.06860  1.0000
  H   H119      1.0  0.74190  0.84110  0.56860  1.0000
  H   H120      1.0  0.25810  0.84110  0.93140  1.0000
  H   H121      1.0  0.15670  0.48230  0.41590  1.0000
  H   H122      1.0  0.84330  0.48230  0.08410  1.0000
  H   H123      1.0  0.84330  0.51770  0.58410  1.0000
  H   H124      1.0  0.15670  0.51770  0.91590  1.0000
  C   C197      1.0  0.43789  0.69550  0.42644  1.0000
  C   C198      1.0  0.56211  0.69550  0.07356  1.0000
  C   C199      1.0  0.56211  0.30450  0.57356  1.0000
  C   C200      1.0  0.43789  0.30450  0.92644  1.0000
  C   C201      1.0  0.23751  0.34660  0.48695  1.0000
  C   C202      1.0  0.76249  0.34660  0.01305  1.0000
  C   C203      1.0  0.76249  0.65340  0.51305  1.0000
  C   C204      1.0  0.23751  0.65340  0.98695  1.0000
  H   H125      1.0  0.02110  0.65820  0.96660  1.0000
  H   H126      1.0  0.97890  0.65820  0.53340  1.0000
  H   H127      1.0  0.97890  0.34180  0.03340  1.0000
  H   H128      1.0  0.02110  0.34180  0.46660  1.0000
  H   H129      1.0  0.06200  0.74100  0.00200  1.0000
  H   H130      1.0  0.93800  0.74100  0.49800  1.0000
  H   H131      1.0  0.93800  0.25900  0.99800  1.0000
  H   H132      1.0  0.06200  0.25900  0.50200  1.0000
