data_image0
_chemical_formula_structural       C16H16C8H16C8H16C8N8O64Sr8H16
_chemical_formula_sum              "C40 H64 N8 O64 Sr8"
_cell_length_a       8.0945
_cell_length_b       15.7091
_cell_length_c       20.6169
_cell_angle_alpha    90
_cell_angle_beta     96.807
_cell_angle_gamma    90

_space_group_name_H-M_alt    "P 1"
_space_group_IT_number       1

loop_
  _space_group_symop_operation_xyz
  'x, y, z'

loop_
  _atom_site_type_symbol
  _atom_site_label
  _atom_site_symmetry_multiplicity
  _atom_site_fract_x
  _atom_site_fract_y
  _atom_site_fract_z
  _atom_site_occupancy
  C   C1        1.0  0.10180  0.38255  0.43721  1.0000
  C   C2        1.0  0.89820  0.38255  0.06279  1.0000
  C   C3        1.0  0.60180  0.88255  0.43721  1.0000
  C   C4        1.0  0.39820  0.88255  0.06279  1.0000
  C   C5        1.0  0.89820  0.61745  0.56279  1.0000
  C   C6        1.0  0.10180  0.61745  0.93721  1.0000
  C   C7        1.0  0.39820  0.11745  0.56279  1.0000
  C   C8        1.0  0.60180  0.11745  0.93721  1.0000
  C   C9        1.0  0.14490  0.47344  0.42628  1.0000
  C   C10       1.0  0.85510  0.47344  0.07372  1.0000
  C   C11       1.0  0.64490  0.97344  0.42628  1.0000
  C   C12       1.0  0.35510  0.97344  0.07372  1.0000
  C   C13       1.0  0.85510  0.52656  0.57372  1.0000
  C   C14       1.0  0.14490  0.52656  0.92628  1.0000
  C   C15       1.0  0.35510  0.02656  0.57372  1.0000
  C   C16       1.0  0.64490  0.02656  0.92628  1.0000
  H   H1        1.0  0.26210  0.47690  0.42090  1.0000
  H   H2        1.0  0.73790  0.47690  0.07910  1.0000
  H   H3        1.0  0.76210  0.97690  0.42090  1.0000
  H   H4        1.0  0.23790  0.97690  0.07910  1.0000
  H   H5        1.0  0.73790  0.52310  0.57910  1.0000
  H   H6        1.0  0.26210  0.52310  0.92090  1.0000
  H   H7        1.0  0.23790  0.02310  0.57910  1.0000
  H   H8        1.0  0.76210  0.02310  0.92090  1.0000
  H   H9        1.0  0.12750  0.50600  0.46490  1.0000
  H   H10       1.0  0.87250  0.50600  0.03510  1.0000
  H   H11       1.0  0.62750  0.00600  0.46490  1.0000
  H   H12       1.0  0.37250  0.00600  0.03510  1.0000
  H   H13       1.0  0.87250  0.49400  0.53510  1.0000
  H   H14       1.0  0.12750  0.49400  0.96490  1.0000
  H   H15       1.0  0.37250  0.99400  0.53510  1.0000
  H   H16       1.0  0.62750  0.99400  0.96490  1.0000
  C   C17       1.0  0.04310  0.51473  0.36632  1.0000
  C   C18       1.0  0.95690  0.51473  0.13368  1.0000
  C   C19       1.0  0.54310  0.01473  0.36632  1.0000
  C   C20       1.0  0.45690  0.01473  0.13368  1.0000
  C   C21       1.0  0.95690  0.48527  0.63368  1.0000
  C   C22       1.0  0.04310  0.48527  0.86632  1.0000
  C   C23       1.0  0.45690  0.98527  0.63368  1.0000
  C   C24       1.0  0.54310  0.98527  0.86632  1.0000
  H   H17       1.0  0.92790  0.51960  0.37450  1.0000
  H   H18       1.0  0.07210  0.51960  0.12550  1.0000
  H   H19       1.0  0.42790  0.01960  0.37450  1.0000
  H   H20       1.0  0.57210  0.01960  0.12550  1.0000
  H   H21       1.0  0.07210  0.48040  0.62550  1.0000
  H   H22       1.0  0.92790  0.48040  0.87450  1.0000
  H   H23       1.0  0.57210  0.98040  0.62550  1.0000
  H   H24       1.0  0.42790  0.98040  0.87450  1.0000
  H   H25       1.0  0.04660  0.47800  0.32870  1.0000
  H   H26       1.0  0.95340  0.47800  0.17130  1.0000
  H   H27       1.0  0.54660  0.97800  0.32870  1.0000
  H   H28       1.0  0.45340  0.97800  0.17130  1.0000
  H   H29       1.0  0.95340  0.52200  0.67130  1.0000
  H   H30       1.0  0.04660  0.52200  0.82870  1.0000
  H   H31       1.0  0.45340  0.02200  0.67130  1.0000
  H   H32       1.0  0.54660  0.02200  0.82870  1.0000
  C   C25       1.0  0.10910  0.60442  0.35033  1.0000
  C   C26       1.0  0.89090  0.60442  0.14967  1.0000
  C   C27       1.0  0.60910  0.10442  0.35033  1.0000
  C   C28       1.0  0.39090  0.10442  0.14967  1.0000
  C   C29       1.0  0.89090  0.39558  0.64967  1.0000
  C   C30       1.0  0.10910  0.39558  0.85033  1.0000
  C   C31       1.0  0.39090  0.89558  0.64967  1.0000
  C   C32       1.0  0.60910  0.89558  0.85033  1.0000
  H   H33       1.0  0.22710  0.60060  0.34620  1.0000
  H   H34       1.0  0.77290  0.60060  0.15380  1.0000
  H   H35       1.0  0.72710  0.10060  0.34620  1.0000
  H   H36       1.0  0.27290  0.10060  0.15380  1.0000
  H   H37       1.0  0.77290  0.39940  0.65380  1.0000
  H   H38       1.0  0.22710  0.39940  0.84620  1.0000
  H   H39       1.0  0.27290  0.89940  0.65380  1.0000
  H   H40       1.0  0.72710  0.89940  0.84620  1.0000
  H   H41       1.0  0.05270  0.62340  0.30870  1.0000
  H   H42       1.0  0.94730  0.62340  0.19130  1.0000
  H   H43       1.0  0.55270  0.12340  0.30870  1.0000
  H   H44       1.0  0.44730  0.12340  0.19130  1.0000
  H   H45       1.0  0.94730  0.37660  0.69130  1.0000
  H   H46       1.0  0.05270  0.37660  0.80870  1.0000
  H   H47       1.0  0.44730  0.87660  0.69130  1.0000
  H   H48       1.0  0.55270  0.87660  0.80870  1.0000
  C   C33       1.0  0.08270  0.66847  0.40181  1.0000
  C   C34       1.0  0.91730  0.66847  0.09819  1.0000
  C   C35       1.0  0.58270  0.16847  0.40181  1.0000
  C   C36       1.0  0.41730  0.16847  0.09819  1.0000
  C   C37       1.0  0.91730  0.33153  0.59819  1.0000
  C   C38       1.0  0.08270  0.33153  0.90181  1.0000
  C   C39       1.0  0.41730  0.83153  0.59819  1.0000
  C   C40       1.0  0.58270  0.83153  0.90181  1.0000
  N   N1        1.0  0.06789  0.10379  0.37074  1.0000
  N   N2        1.0  0.93211  0.10379  0.12926  1.0000
  N   N3        1.0  0.56789  0.60379  0.37074  1.0000
  N   N4        1.0  0.43211  0.60379  0.12926  1.0000
  N   N5        1.0  0.93211  0.89621  0.62926  1.0000
  N   N6        1.0  0.06789  0.89621  0.87074  1.0000
  N   N7        1.0  0.43211  0.39621  0.62926  1.0000
  N   N8        1.0  0.56789  0.39621  0.87074  1.0000
  O   O1        1.0  0.21403  0.33205  0.45999  1.0000
  O   O2        1.0  0.78597  0.33205  0.04001  1.0000
  O   O3        1.0  0.71403  0.83205  0.45999  1.0000
  O   O4        1.0  0.28597  0.83205  0.04001  1.0000
  O   O5        1.0  0.78597  0.66795  0.54001  1.0000
  O   O6        1.0  0.21403  0.66795  0.95999  1.0000
  O   O7        1.0  0.28597  0.16795  0.54001  1.0000
  O   O8        1.0  0.71403  0.16795  0.95999  1.0000
  O   O9        1.0  0.95211  0.35761  0.42307  1.0000
  O   O10       1.0  0.04789  0.35761  0.07693  1.0000
  O   O11       1.0  0.45211  0.85761  0.42307  1.0000
  O   O12       1.0  0.54789  0.85761  0.07693  1.0000
  O   O13       1.0  0.04789  0.64239  0.57693  1.0000
  O   O14       1.0  0.95211  0.64239  0.92307  1.0000
  O   O15       1.0  0.54789  0.14239  0.57693  1.0000
  O   O16       1.0  0.45211  0.14239  0.92307  1.0000
  O   O17       1.0  0.88437  0.10539  0.56795  1.0000
  O   O18       1.0  0.11563  0.10539  0.93205  1.0000
  O   O19       1.0  0.38437  0.60539  0.56795  1.0000
  O   O20       1.0  0.61563  0.60539  0.93205  1.0000
  O   O21       1.0  0.11563  0.89461  0.43205  1.0000
  O   O22       1.0  0.88437  0.89461  0.06795  1.0000
  O   O23       1.0  0.61563  0.39461  0.43205  1.0000
  O   O24       1.0  0.38437  0.39461  0.06795  1.0000
  O   O25       1.0  0.93518  0.69278  0.40604  1.0000
  O   O26       1.0  0.06482  0.69278  0.09396  1.0000
  O   O27       1.0  0.43518  0.19278  0.40604  1.0000
  O   O28       1.0  0.56482  0.19278  0.09396  1.0000
  O   O29       1.0  0.06482  0.30722  0.59396  1.0000
  O   O30       1.0  0.93518  0.30722  0.90604  1.0000
  O   O31       1.0  0.56482  0.80722  0.59396  1.0000
  O   O32       1.0  0.43518  0.80722  0.90604  1.0000
  O   O33       1.0  0.20262  0.69467  0.44076  1.0000
  O   O34       1.0  0.79738  0.69467  0.05924  1.0000
  O   O35       1.0  0.70262  0.19467  0.44076  1.0000
  O   O36       1.0  0.29738  0.19467  0.05924  1.0000
  O   O37       1.0  0.79738  0.30533  0.55924  1.0000
  O   O38       1.0  0.20262  0.30533  0.94076  1.0000
  O   O39       1.0  0.29738  0.80533  0.55924  1.0000
  O   O40       1.0  0.70262  0.80533  0.94076  1.0000
  O   O41       1.0  0.10370  0.06317  0.32359  1.0000
  O   O42       1.0  0.89630  0.06317  0.17641  1.0000
  O   O43       1.0  0.60370  0.56317  0.32359  1.0000
  O   O44       1.0  0.39630  0.56317  0.17641  1.0000
  O   O45       1.0  0.89630  0.93683  0.67641  1.0000
  O   O46       1.0  0.10370  0.93683  0.82359  1.0000
  O   O47       1.0  0.39630  0.43683  0.67641  1.0000
  O   O48       1.0  0.60370  0.43683  0.82359  1.0000
  O   O49       1.0  0.03955  0.18226  0.36632  1.0000
  O   O50       1.0  0.96045  0.18226  0.13368  1.0000
  O   O51       1.0  0.53955  0.68226  0.36632  1.0000
  O   O52       1.0  0.46045  0.68226  0.13368  1.0000
  O   O53       1.0  0.96045  0.81774  0.63368  1.0000
  O   O54       1.0  0.03955  0.81774  0.86632  1.0000
  O   O55       1.0  0.46045  0.31774  0.63368  1.0000
  O   O56       1.0  0.53955  0.31774  0.86632  1.0000
  O   O57       1.0  0.05833  0.06854  0.42545  1.0000
  O   O58       1.0  0.94167  0.06854  0.07455  1.0000
  O   O59       1.0  0.55833  0.56854  0.42545  1.0000
  O   O60       1.0  0.44167  0.56854  0.07455  1.0000
  O   O61       1.0  0.94167  0.93146  0.57455  1.0000
  O   O62       1.0  0.05833  0.93146  0.92545  1.0000
  O   O63       1.0  0.44167  0.43146  0.57455  1.0000
  O   O64       1.0  0.55833  0.43146  0.92545  1.0000
  Sr  Sr1       1.0  0.00025  0.21191  0.49004  1.0000
  Sr  Sr2       1.0  0.99975  0.21191  0.00996  1.0000
  Sr  Sr3       1.0  0.50025  0.71191  0.49004  1.0000
  Sr  Sr4       1.0  0.49975  0.71191  0.00996  1.0000
  Sr  Sr5       1.0  0.99975  0.78809  0.50996  1.0000
  Sr  Sr6       1.0  0.00025  0.78809  0.99004  1.0000
  Sr  Sr7       1.0  0.49975  0.28809  0.50996  1.0000
  Sr  Sr8       1.0  0.50025  0.28809  0.99004  1.0000
  H   H49       1.0  0.90600  0.05200  0.57080  1.0000
  H   H50       1.0  0.09400  0.05200  0.92920  1.0000
  H   H51       1.0  0.40600  0.55200  0.57080  1.0000
  H   H52       1.0  0.59400  0.55200  0.92920  1.0000
  H   H53       1.0  0.09400  0.94800  0.42920  1.0000
  H   H54       1.0  0.90600  0.94800  0.07080  1.0000
  H   H55       1.0  0.59400  0.44800  0.42920  1.0000
  H   H56       1.0  0.40600  0.44800  0.07080  1.0000
  H   H57       1.0  0.78500  0.11130  0.57020  1.0000
  H   H58       1.0  0.21500  0.11130  0.92980  1.0000
  H   H59       1.0  0.28500  0.61130  0.57020  1.0000
  H   H60       1.0  0.71500  0.61130  0.92980  1.0000
  H   H61       1.0  0.21500  0.88870  0.42980  1.0000
  H   H62       1.0  0.78500  0.88870  0.07020  1.0000
  H   H63       1.0  0.71500  0.38870  0.42980  1.0000
  H   H64       1.0  0.28500  0.38870  0.07020  1.0000
