data_image0
_chemical_formula_structural       Zn44O168C120H24C48H24C24H24C24H24C48H24C24H24C24H24C48H24C24H24C24H72
_chemical_formula_sum              "Zn44 O168 C408 H288"
_cell_length_a       28.8085
_cell_length_b       28.8085
_cell_length_c       28.8085
_cell_angle_alpha    90
_cell_angle_beta     90
_cell_angle_gamma    90

_space_group_name_H-M_alt    "P 1"
_space_group_IT_number       1

loop_
  _space_group_symop_operation_xyz
  'x, y, z'

loop_
  _atom_site_type_symbol
  _atom_site_label
  _atom_site_symmetry_multiplicity
  _atom_site_fract_x
  _atom_site_fract_y
  _atom_site_fract_z
  _atom_site_occupancy
  Zn  Zn1       1.0  0.37131  0.37131  0.37131  1.0000
  Zn  Zn2       1.0  0.12869  0.62869  0.87131  1.0000
  Zn  Zn3       1.0  0.62869  0.87131  0.12869  1.0000
  Zn  Zn4       1.0  0.87131  0.12869  0.62869  1.0000
  Zn  Zn5       1.0  0.62131  0.12131  0.37869  1.0000
  Zn  Zn6       1.0  0.87869  0.87869  0.87869  1.0000
  Zn  Zn7       1.0  0.12131  0.37869  0.62131  1.0000
  Zn  Zn8       1.0  0.37869  0.62131  0.12131  1.0000
  Zn  Zn9       1.0  0.15805  0.62500  0.09195  1.0000
  Zn  Zn10      1.0  0.34195  0.37500  0.59195  1.0000
  Zn  Zn11      1.0  0.84195  0.12500  0.40805  1.0000
  Zn  Zn12      1.0  0.65805  0.87500  0.90805  1.0000
  Zn  Zn13      1.0  0.09195  0.15805  0.62500  1.0000
  Zn  Zn14      1.0  0.59195  0.34195  0.37500  1.0000
  Zn  Zn15      1.0  0.40805  0.84195  0.12500  1.0000
  Zn  Zn16      1.0  0.90805  0.65805  0.87500  1.0000
  Zn  Zn17      1.0  0.62500  0.09195  0.15805  1.0000
  Zn  Zn18      1.0  0.37500  0.59195  0.34195  1.0000
  Zn  Zn19      1.0  0.12500  0.40805  0.84195  1.0000
  Zn  Zn20      1.0  0.87500  0.90805  0.65805  1.0000
  Zn  Zn21      1.0  0.26416  0.58615  0.12124  1.0000
  Zn  Zn22      1.0  0.23584  0.41385  0.62124  1.0000
  Zn  Zn23      1.0  0.73584  0.08615  0.37876  1.0000
  Zn  Zn24      1.0  0.76416  0.91385  0.87876  1.0000
  Zn  Zn25      1.0  0.12124  0.26416  0.58615  1.0000
  Zn  Zn26      1.0  0.62124  0.23584  0.41385  1.0000
  Zn  Zn27      1.0  0.37876  0.73584  0.08615  1.0000
  Zn  Zn28      1.0  0.87876  0.76416  0.91385  1.0000
  Zn  Zn29      1.0  0.58615  0.12124  0.26416  1.0000
  Zn  Zn30      1.0  0.41385  0.62124  0.23584  1.0000
  Zn  Zn31      1.0  0.08615  0.37876  0.73584  1.0000
  Zn  Zn32      1.0  0.91385  0.87876  0.76416  1.0000
  Zn  Zn33      1.0  0.83615  0.01416  0.62876  1.0000
  Zn  Zn34      1.0  0.66385  0.98584  0.12876  1.0000
  Zn  Zn35      1.0  0.33615  0.48584  0.37124  1.0000
  Zn  Zn36      1.0  0.16385  0.51416  0.87124  1.0000
  Zn  Zn37      1.0  0.51416  0.87124  0.16385  1.0000
  Zn  Zn38      1.0  0.48584  0.37124  0.33615  1.0000
  Zn  Zn39      1.0  0.98584  0.12876  0.66385  1.0000
  Zn  Zn40      1.0  0.01416  0.62876  0.83615  1.0000
  Zn  Zn41      1.0  0.37124  0.33615  0.48584  1.0000
  Zn  Zn42      1.0  0.87124  0.16385  0.51416  1.0000
  Zn  Zn43      1.0  0.62876  0.83615  0.01416  1.0000
  Zn  Zn44      1.0  0.12876  0.66385  0.98584  1.0000
  O   O1        1.0  0.31124  0.64288  0.10727  1.0000
  O   O2        1.0  0.18876  0.35712  0.60727  1.0000
  O   O3        1.0  0.68876  0.14288  0.39273  1.0000
  O   O4        1.0  0.81124  0.85712  0.89273  1.0000
  O   O5        1.0  0.10727  0.31124  0.64288  1.0000
  O   O6        1.0  0.60727  0.18876  0.35712  1.0000
  O   O7        1.0  0.39273  0.68876  0.14288  1.0000
  O   O8        1.0  0.89273  0.81124  0.85712  1.0000
  O   O9        1.0  0.64288  0.10727  0.31124  1.0000
  O   O10       1.0  0.35712  0.60727  0.18876  1.0000
  O   O11       1.0  0.14288  0.39273  0.68876  1.0000
  O   O12       1.0  0.85712  0.89273  0.81124  1.0000
  O   O13       1.0  0.89288  0.06124  0.64273  1.0000
  O   O14       1.0  0.60712  0.93876  0.14273  1.0000
  O   O15       1.0  0.39288  0.43876  0.35727  1.0000
  O   O16       1.0  0.10712  0.56124  0.85727  1.0000
  O   O17       1.0  0.56124  0.85727  0.10712  1.0000
  O   O18       1.0  0.43876  0.35727  0.39288  1.0000
  O   O19       1.0  0.93876  0.14273  0.60712  1.0000
  O   O20       1.0  0.06124  0.64273  0.89288  1.0000
  O   O21       1.0  0.35727  0.39288  0.43876  1.0000
  O   O22       1.0  0.85727  0.10712  0.56124  1.0000
  O   O23       1.0  0.64273  0.89288  0.06124  1.0000
  O   O24       1.0  0.14273  0.60712  0.93876  1.0000
  O   O25       1.0  0.29203  0.45676  0.32707  1.0000
  O   O26       1.0  0.20797  0.54324  0.82707  1.0000
  O   O27       1.0  0.70797  0.95676  0.17293  1.0000
  O   O28       1.0  0.79203  0.04324  0.67293  1.0000
  O   O29       1.0  0.32707  0.29203  0.45676  1.0000
  O   O30       1.0  0.82707  0.20797  0.54324  1.0000
  O   O31       1.0  0.17293  0.70797  0.95676  1.0000
  O   O32       1.0  0.67293  0.79203  0.04324  1.0000
  O   O33       1.0  0.45676  0.32707  0.29203  1.0000
  O   O34       1.0  0.54324  0.82707  0.20797  1.0000
  O   O35       1.0  0.95676  0.17293  0.70797  1.0000
  O   O36       1.0  0.04324  0.67293  0.79203  1.0000
  O   O37       1.0  0.70676  0.04203  0.42293  1.0000
  O   O38       1.0  0.79324  0.95797  0.92293  1.0000
  O   O39       1.0  0.20676  0.45797  0.57707  1.0000
  O   O40       1.0  0.29324  0.54203  0.07707  1.0000
  O   O41       1.0  0.54203  0.07707  0.29324  1.0000
  O   O42       1.0  0.45797  0.57707  0.20676  1.0000
  O   O43       1.0  0.95797  0.92293  0.79324  1.0000
  O   O44       1.0  0.04203  0.42293  0.70676  1.0000
  O   O45       1.0  0.57707  0.20676  0.45797  1.0000
  O   O46       1.0  0.07707  0.29324  0.54203  1.0000
  O   O47       1.0  0.42293  0.70676  0.04203  1.0000
  O   O48       1.0  0.92293  0.79324  0.95797  1.0000
  O   O49       1.0  0.30389  0.38602  0.35576  1.0000
  O   O50       1.0  0.19611  0.61398  0.85576  1.0000
  O   O51       1.0  0.69611  0.88602  0.14424  1.0000
  O   O52       1.0  0.80389  0.11398  0.64424  1.0000
  O   O53       1.0  0.35576  0.30389  0.38602  1.0000
  O   O54       1.0  0.85576  0.19611  0.61398  1.0000
  O   O55       1.0  0.14424  0.69611  0.88602  1.0000
  O   O56       1.0  0.64424  0.80389  0.11398  1.0000
  O   O57       1.0  0.38602  0.35576  0.30389  1.0000
  O   O58       1.0  0.61398  0.85576  0.19611  1.0000
  O   O59       1.0  0.88602  0.14424  0.69611  1.0000
  O   O60       1.0  0.11398  0.64424  0.80389  1.0000
  O   O61       1.0  0.63602  0.05389  0.39424  1.0000
  O   O62       1.0  0.86398  0.94611  0.89424  1.0000
  O   O63       1.0  0.13602  0.44611  0.60576  1.0000
  O   O64       1.0  0.36398  0.55389  0.10576  1.0000
  O   O65       1.0  0.55389  0.10576  0.36398  1.0000
  O   O66       1.0  0.44611  0.60576  0.13602  1.0000
  O   O67       1.0  0.94611  0.89424  0.86398  1.0000
  O   O68       1.0  0.05389  0.39424  0.63602  1.0000
  O   O69       1.0  0.60576  0.13602  0.44611  1.0000
  O   O70       1.0  0.10576  0.36398  0.55389  1.0000
  O   O71       1.0  0.39424  0.63602  0.05389  1.0000
  O   O72       1.0  0.89424  0.86398  0.94611  1.0000
  O   O73       1.0  0.22130  0.63699  0.10519  1.0000
  O   O74       1.0  0.27870  0.36301  0.60519  1.0000
  O   O75       1.0  0.77870  0.13699  0.39481  1.0000
  O   O76       1.0  0.72130  0.86301  0.89481  1.0000
  O   O77       1.0  0.10519  0.22130  0.63699  1.0000
  O   O78       1.0  0.60519  0.27870  0.36301  1.0000
  O   O79       1.0  0.39481  0.77870  0.13699  1.0000
  O   O80       1.0  0.89481  0.72130  0.86301  1.0000
  O   O81       1.0  0.63699  0.10519  0.22130  1.0000
  O   O82       1.0  0.36301  0.60519  0.27870  1.0000
  O   O83       1.0  0.13699  0.39481  0.77870  1.0000
  O   O84       1.0  0.86301  0.89481  0.72130  1.0000
  O   O85       1.0  0.88699  0.97130  0.64481  1.0000
  O   O86       1.0  0.61301  0.02870  0.14481  1.0000
  O   O87       1.0  0.38699  0.52870  0.35519  1.0000
  O   O88       1.0  0.11301  0.47130  0.85519  1.0000
  O   O89       1.0  0.47130  0.85519  0.11301  1.0000
  O   O90       1.0  0.52870  0.35519  0.38699  1.0000
  O   O91       1.0  0.02870  0.14481  0.61301  1.0000
  O   O92       1.0  0.97130  0.64481  0.88699  1.0000
  O   O93       1.0  0.35519  0.38699  0.52870  1.0000
  O   O94       1.0  0.85519  0.11301  0.47130  1.0000
  O   O95       1.0  0.64481  0.88699  0.97130  1.0000
  O   O96       1.0  0.14481  0.61301  0.02870  1.0000
  O   O97       1.0  0.31170  0.71743  0.08573  1.0000
  O   O98       1.0  0.18830  0.28257  0.58573  1.0000
  O   O99       1.0  0.68830  0.21743  0.41427  1.0000
  O   O100      1.0  0.81170  0.78257  0.91427  1.0000
  O   O101      1.0  0.08573  0.31170  0.71743  1.0000
  O   O102      1.0  0.58573  0.18830  0.28257  1.0000
  O   O103      1.0  0.41427  0.68830  0.21743  1.0000
  O   O104      1.0  0.91427  0.81170  0.78257  1.0000
  O   O105      1.0  0.71743  0.08573  0.31170  1.0000
  O   O106      1.0  0.28257  0.58573  0.18830  1.0000
  O   O107      1.0  0.21743  0.41427  0.68830  1.0000
  O   O108      1.0  0.78257  0.91427  0.81170  1.0000
  O   O109      1.0  0.96743  0.06170  0.66427  1.0000
  O   O110      1.0  0.53257  0.93830  0.16427  1.0000
  O   O111      1.0  0.46743  0.43830  0.33573  1.0000
  O   O112      1.0  0.03257  0.56170  0.83573  1.0000
  O   O113      1.0  0.56170  0.83573  0.03257  1.0000
  O   O114      1.0  0.43830  0.33573  0.46743  1.0000
  O   O115      1.0  0.93830  0.16427  0.53257  1.0000
  O   O116      1.0  0.06170  0.66427  0.96743  1.0000
  O   O117      1.0  0.33573  0.46743  0.43830  1.0000
  O   O118      1.0  0.83573  0.03257  0.56170  1.0000
  O   O119      1.0  0.66427  0.96743  0.06170  1.0000
  O   O120      1.0  0.16427  0.53257  0.93830  1.0000
  O   O121      1.0  0.13913  0.57118  0.12895  1.0000
  O   O122      1.0  0.36087  0.42882  0.62895  1.0000
  O   O123      1.0  0.86087  0.07118  0.37105  1.0000
  O   O124      1.0  0.63913  0.92882  0.87105  1.0000
  O   O125      1.0  0.12895  0.13913  0.57118  1.0000
  O   O126      1.0  0.62895  0.36087  0.42882  1.0000
  O   O127      1.0  0.37105  0.86087  0.07118  1.0000
  O   O128      1.0  0.87105  0.63913  0.92882  1.0000
  O   O129      1.0  0.57118  0.12895  0.13913  1.0000
  O   O130      1.0  0.42882  0.62895  0.36087  1.0000
  O   O131      1.0  0.07118  0.37105  0.86087  1.0000
  O   O132      1.0  0.92882  0.87105  0.63913  1.0000
  O   O133      1.0  0.82118  0.88913  0.62105  1.0000
  O   O134      1.0  0.67882  0.11087  0.12105  1.0000
  O   O135      1.0  0.32118  0.61087  0.37895  1.0000
  O   O136      1.0  0.17882  0.38913  0.87895  1.0000
  O   O137      1.0  0.38913  0.87895  0.17882  1.0000
  O   O138      1.0  0.61087  0.37895  0.32118  1.0000
  O   O139      1.0  0.11087  0.12105  0.67882  1.0000
  O   O140      1.0  0.88913  0.62105  0.82118  1.0000
  O   O141      1.0  0.37895  0.32118  0.61087  1.0000
  O   O142      1.0  0.87895  0.17882  0.38913  1.0000
  O   O143      1.0  0.62105  0.82118  0.88913  1.0000
  O   O144      1.0  0.12105  0.67882  0.11087  1.0000
  O   O145      1.0  0.20988  0.54093  0.13573  1.0000
  O   O146      1.0  0.29012  0.45907  0.63573  1.0000
  O   O147      1.0  0.79012  0.04093  0.36427  1.0000
  O   O148      1.0  0.70988  0.95907  0.86427  1.0000
  O   O149      1.0  0.13573  0.20988  0.54093  1.0000
  O   O150      1.0  0.63573  0.29012  0.45907  1.0000
  O   O151      1.0  0.36427  0.79012  0.04093  1.0000
  O   O152      1.0  0.86427  0.70988  0.95907  1.0000
  O   O153      1.0  0.54093  0.13573  0.20988  1.0000
  O   O154      1.0  0.45907  0.63573  0.29012  1.0000
  O   O155      1.0  0.04093  0.36427  0.79012  1.0000
  O   O156      1.0  0.95907  0.86427  0.70988  1.0000
  O   O157      1.0  0.79093  0.95988  0.61427  1.0000
  O   O158      1.0  0.70907  0.04012  0.11427  1.0000
  O   O159      1.0  0.29093  0.54012  0.38573  1.0000
  O   O160      1.0  0.20907  0.45988  0.88573  1.0000
  O   O161      1.0  0.45988  0.88573  0.20907  1.0000
  O   O162      1.0  0.54012  0.38573  0.29093  1.0000
  O   O163      1.0  0.04012  0.11427  0.70907  1.0000
  O   O164      1.0  0.95988  0.61427  0.79093  1.0000
  O   O165      1.0  0.38573  0.29093  0.54012  1.0000
  O   O166      1.0  0.88573  0.20907  0.45988  1.0000
  O   O167      1.0  0.61427  0.79093  0.95988  1.0000
  O   O168      1.0  0.11427  0.70907  0.04012  1.0000
  C   C1        1.0  0.28400  0.41330  0.32940  1.0000
  C   C2        1.0  0.21600  0.58670  0.82940  1.0000
  C   C3        1.0  0.71600  0.91330  0.17060  1.0000
  C   C4        1.0  0.78400  0.08670  0.67060  1.0000
  C   C5        1.0  0.32940  0.28400  0.41330  1.0000
  C   C6        1.0  0.82940  0.21600  0.58670  1.0000
  C   C7        1.0  0.17060  0.71600  0.91330  1.0000
  C   C8        1.0  0.67060  0.78400  0.08670  1.0000
  C   C9        1.0  0.41330  0.32940  0.28400  1.0000
  C   C10       1.0  0.58670  0.82940  0.21600  1.0000
  C   C11       1.0  0.91330  0.17060  0.71600  1.0000
  C   C12       1.0  0.08670  0.67060  0.78400  1.0000
  C   C13       1.0  0.66330  0.03400  0.42060  1.0000
  C   C14       1.0  0.83670  0.96600  0.92060  1.0000
  C   C15       1.0  0.16330  0.46600  0.57940  1.0000
  C   C16       1.0  0.33670  0.53400  0.07940  1.0000
  C   C17       1.0  0.53400  0.07940  0.33670  1.0000
  C   C18       1.0  0.46600  0.57940  0.16330  1.0000
  C   C19       1.0  0.96600  0.92060  0.83670  1.0000
  C   C20       1.0  0.03400  0.42060  0.66330  1.0000
  C   C21       1.0  0.57940  0.16330  0.46600  1.0000
  C   C22       1.0  0.07940  0.33670  0.53400  1.0000
  C   C23       1.0  0.42060  0.66330  0.03400  1.0000
  C   C24       1.0  0.92060  0.83670  0.96600  1.0000
  C   C25       1.0  0.16690  0.54070  0.14160  1.0000
  C   C26       1.0  0.33310  0.45930  0.64160  1.0000
  C   C27       1.0  0.83310  0.04070  0.35840  1.0000
  C   C28       1.0  0.66690  0.95930  0.85840  1.0000
  C   C29       1.0  0.14160  0.16690  0.54070  1.0000
  C   C30       1.0  0.64160  0.33310  0.45930  1.0000
  C   C31       1.0  0.35840  0.83310  0.04070  1.0000
  C   C32       1.0  0.85840  0.66690  0.95930  1.0000
  C   C33       1.0  0.54070  0.14160  0.16690  1.0000
  C   C34       1.0  0.45930  0.64160  0.33310  1.0000
  C   C35       1.0  0.04070  0.35840  0.83310  1.0000
  C   C36       1.0  0.95930  0.85840  0.66690  1.0000
  C   C37       1.0  0.79070  0.91690  0.60840  1.0000
  C   C38       1.0  0.70930  0.08310  0.10840  1.0000
  C   C39       1.0  0.29070  0.58310  0.39160  1.0000
  C   C40       1.0  0.20930  0.41690  0.89160  1.0000
  C   C41       1.0  0.41690  0.89160  0.20930  1.0000
  C   C42       1.0  0.58310  0.39160  0.29070  1.0000
  C   C43       1.0  0.08310  0.10840  0.70930  1.0000
  C   C44       1.0  0.91690  0.60840  0.79070  1.0000
  C   C45       1.0  0.39160  0.29070  0.58310  1.0000
  C   C46       1.0  0.89160  0.20930  0.41690  1.0000
  C   C47       1.0  0.60840  0.79070  0.91690  1.0000
  C   C48       1.0  0.10840  0.70930  0.08310  1.0000
  C   C49       1.0  0.29180  0.68000  0.09740  1.0000
  C   C50       1.0  0.20820  0.32000  0.59740  1.0000
  C   C51       1.0  0.70820  0.18000  0.40260  1.0000
  C   C52       1.0  0.79180  0.82000  0.90260  1.0000
  C   C53       1.0  0.09740  0.29180  0.68000  1.0000
  C   C54       1.0  0.59740  0.20820  0.32000  1.0000
  C   C55       1.0  0.40260  0.70820  0.18000  1.0000
  C   C56       1.0  0.90260  0.79180  0.82000  1.0000
  C   C57       1.0  0.68000  0.09740  0.29180  1.0000
  C   C58       1.0  0.32000  0.59740  0.20820  1.0000
  C   C59       1.0  0.18000  0.40260  0.70820  1.0000
  C   C60       1.0  0.82000  0.90260  0.79180  1.0000
  C   C61       1.0  0.93000  0.04180  0.65260  1.0000
  C   C62       1.0  0.57000  0.95820  0.15260  1.0000
  C   C63       1.0  0.43000  0.45820  0.34740  1.0000
  C   C64       1.0  0.07000  0.54180  0.84740  1.0000
  C   C65       1.0  0.54180  0.84740  0.07000  1.0000
  C   C66       1.0  0.45820  0.34740  0.43000  1.0000
  C   C67       1.0  0.95820  0.15260  0.57000  1.0000
  C   C68       1.0  0.04180  0.65260  0.93000  1.0000
  C   C69       1.0  0.34740  0.43000  0.45820  1.0000
  C   C70       1.0  0.84740  0.07000  0.54180  1.0000
  C   C71       1.0  0.65260  0.93000  0.04180  1.0000
  C   C72       1.0  0.15260  0.57000  0.95820  1.0000
  C   C73       1.0  0.15533  0.43175  0.21236  1.0000
  C   C74       1.0  0.34467  0.56825  0.71236  1.0000
  C   C75       1.0  0.84467  0.93175  0.28764  1.0000
  C   C76       1.0  0.65533  0.06825  0.78764  1.0000
  C   C77       1.0  0.21236  0.15533  0.43175  1.0000
  C   C78       1.0  0.71236  0.34467  0.56825  1.0000
  C   C79       1.0  0.28764  0.84467  0.93175  1.0000
  C   C80       1.0  0.78764  0.65533  0.06825  1.0000
  C   C81       1.0  0.43175  0.21236  0.15533  1.0000
  C   C82       1.0  0.56825  0.71236  0.34467  1.0000
  C   C83       1.0  0.93175  0.28764  0.84467  1.0000
  C   C84       1.0  0.06825  0.78764  0.65533  1.0000
  C   C85       1.0  0.68175  0.90533  0.53764  1.0000
  C   C86       1.0  0.81825  0.09467  0.03764  1.0000
  C   C87       1.0  0.18175  0.59467  0.46236  1.0000
  C   C88       1.0  0.31825  0.40533  0.96236  1.0000
  C   C89       1.0  0.40533  0.96236  0.31825  1.0000
  C   C90       1.0  0.59467  0.46236  0.18175  1.0000
  C   C91       1.0  0.09467  0.03764  0.81825  1.0000
  C   C92       1.0  0.90533  0.53764  0.68175  1.0000
  C   C93       1.0  0.46236  0.18175  0.59467  1.0000
  C   C94       1.0  0.96236  0.31825  0.40533  1.0000
  C   C95       1.0  0.53764  0.68175  0.90533  1.0000
  C   C96       1.0  0.03764  0.81825  0.09467  1.0000
  C   C97       1.0  0.17427  0.47053  0.19077  1.0000
  C   C98       1.0  0.32573  0.52947  0.69077  1.0000
  C   C99       1.0  0.82573  0.97053  0.30923  1.0000
  C   C100      1.0  0.67427  0.02947  0.80923  1.0000
  C   C101      1.0  0.19077  0.17427  0.47053  1.0000
  C   C102      1.0  0.69077  0.32573  0.52947  1.0000
  C   C103      1.0  0.30923  0.82573  0.97053  1.0000
  C   C104      1.0  0.80923  0.67427  0.02947  1.0000
  C   C105      1.0  0.47053  0.19077  0.17427  1.0000
  C   C106      1.0  0.52947  0.69077  0.32573  1.0000
  C   C107      1.0  0.97053  0.30923  0.82573  1.0000
  C   C108      1.0  0.02947  0.80923  0.67427  1.0000
  C   C109      1.0  0.72053  0.92427  0.55923  1.0000
  C   C110      1.0  0.77947  0.07573  0.05923  1.0000
  C   C111      1.0  0.22053  0.57573  0.44077  1.0000
  C   C112      1.0  0.27947  0.42427  0.94077  1.0000
  C   C113      1.0  0.42427  0.94077  0.27947  1.0000
  C   C114      1.0  0.57573  0.44077  0.22053  1.0000
  C   C115      1.0  0.07573  0.05923  0.77947  1.0000
  C   C116      1.0  0.92427  0.55923  0.72053  1.0000
  C   C117      1.0  0.44077  0.22053  0.57573  1.0000
  C   C118      1.0  0.94077  0.27947  0.42427  1.0000
  C   C119      1.0  0.55923  0.72053  0.92427  1.0000
  C   C120      1.0  0.05923  0.77947  0.07573  1.0000
  H   H1        1.0  0.20584  0.47670  0.19348  1.0000
  H   H2        1.0  0.29416  0.52330  0.69348  1.0000
  H   H3        1.0  0.79416  0.97670  0.30652  1.0000
  H   H4        1.0  0.70584  0.02330  0.80652  1.0000
  H   H5        1.0  0.19348  0.20584  0.47670  1.0000
  H   H6        1.0  0.69348  0.29416  0.52330  1.0000
  H   H7        1.0  0.30652  0.79416  0.97670  1.0000
  H   H8        1.0  0.80652  0.70584  0.02330  1.0000
  H   H9        1.0  0.47670  0.19348  0.20584  1.0000
  H   H10       1.0  0.52330  0.69348  0.29416  1.0000
  H   H11       1.0  0.97670  0.30652  0.79416  1.0000
  H   H12       1.0  0.02330  0.80652  0.70584  1.0000
  H   H13       1.0  0.72670  0.95584  0.55652  1.0000
  H   H14       1.0  0.77330  0.04416  0.05652  1.0000
  H   H15       1.0  0.22670  0.54416  0.44348  1.0000
  H   H16       1.0  0.27330  0.45584  0.94348  1.0000
  H   H17       1.0  0.45584  0.94348  0.27330  1.0000
  H   H18       1.0  0.54416  0.44348  0.22670  1.0000
  H   H19       1.0  0.04416  0.05652  0.77330  1.0000
  H   H20       1.0  0.95584  0.55652  0.72670  1.0000
  H   H21       1.0  0.44348  0.22670  0.54416  1.0000
  H   H22       1.0  0.94348  0.27330  0.45584  1.0000
  H   H23       1.0  0.55652  0.72670  0.95584  1.0000
  H   H24       1.0  0.05652  0.77330  0.04416  1.0000
  C   C121      1.0  0.14601  0.50008  0.16515  1.0000
  C   C122      1.0  0.35399  0.49992  0.66515  1.0000
  C   C123      1.0  0.85399  0.00008  0.33485  1.0000
  C   C124      1.0  0.64601  0.99992  0.83485  1.0000
  C   C125      1.0  0.16515  0.14601  0.50008  1.0000
  C   C126      1.0  0.66515  0.35399  0.49992  1.0000
  C   C127      1.0  0.33485  0.85399  0.00008  1.0000
  C   C128      1.0  0.83485  0.64601  0.99992  1.0000
  C   C129      1.0  0.50008  0.16515  0.14601  1.0000
  C   C130      1.0  0.49992  0.66515  0.35399  1.0000
  C   C131      1.0  0.00008  0.33485  0.85399  1.0000
  C   C132      1.0  0.99992  0.83485  0.64601  1.0000
  C   C133      1.0  0.75008  0.89601  0.58485  1.0000
  C   C134      1.0  0.74992  0.10399  0.08485  1.0000
  C   C135      1.0  0.25008  0.60399  0.41515  1.0000
  C   C136      1.0  0.24992  0.39601  0.91515  1.0000
  C   C137      1.0  0.39601  0.91515  0.24992  1.0000
  C   C138      1.0  0.60399  0.41515  0.25008  1.0000
  C   C139      1.0  0.10399  0.08485  0.74992  1.0000
  C   C140      1.0  0.89601  0.58485  0.75008  1.0000
  C   C141      1.0  0.41515  0.25008  0.60399  1.0000
  C   C142      1.0  0.91515  0.24992  0.39601  1.0000
  C   C143      1.0  0.58485  0.75008  0.89601  1.0000
  C   C144      1.0  0.08485  0.74992  0.10399  1.0000
  C   C145      1.0  0.09883  0.49085  0.16110  1.0000
  C   C146      1.0  0.40117  0.50915  0.66110  1.0000
  C   C147      1.0  0.90117  0.99085  0.33890  1.0000
  C   C148      1.0  0.59883  0.00915  0.83890  1.0000
  C   C149      1.0  0.16110  0.09883  0.49085  1.0000
  C   C150      1.0  0.66110  0.40117  0.50915  1.0000
  C   C151      1.0  0.33890  0.90117  0.99085  1.0000
  C   C152      1.0  0.83890  0.59883  0.00915  1.0000
  C   C153      1.0  0.49085  0.16110  0.09883  1.0000
  C   C154      1.0  0.50915  0.66110  0.40117  1.0000
  C   C155      1.0  0.99085  0.33890  0.90117  1.0000
  C   C156      1.0  0.00915  0.83890  0.59883  1.0000
  C   C157      1.0  0.74085  0.84883  0.58890  1.0000
  C   C158      1.0  0.75915  0.15117  0.08890  1.0000
  C   C159      1.0  0.24085  0.65117  0.41110  1.0000
  C   C160      1.0  0.25915  0.34883  0.91110  1.0000
  C   C161      1.0  0.34883  0.91110  0.25915  1.0000
  C   C162      1.0  0.65117  0.41110  0.24085  1.0000
  C   C163      1.0  0.15117  0.08890  0.75915  1.0000
  C   C164      1.0  0.84883  0.58890  0.74085  1.0000
  C   C165      1.0  0.41110  0.24085  0.65117  1.0000
  C   C166      1.0  0.91110  0.25915  0.34883  1.0000
  C   C167      1.0  0.58890  0.74085  0.84883  1.0000
  C   C168      1.0  0.08890  0.75915  0.15117  1.0000
  H   H25       1.0  0.07992  0.51062  0.14396  1.0000
  H   H26       1.0  0.42008  0.48938  0.64396  1.0000
  H   H27       1.0  0.92008  0.01062  0.35604  1.0000
  H   H28       1.0  0.57992  0.98938  0.85604  1.0000
  H   H29       1.0  0.14396  0.07992  0.51062  1.0000
  H   H30       1.0  0.64396  0.42008  0.48938  1.0000
  H   H31       1.0  0.35604  0.92008  0.01062  1.0000
  H   H32       1.0  0.85604  0.57992  0.98938  1.0000
  H   H33       1.0  0.51062  0.14396  0.07992  1.0000
  H   H34       1.0  0.48938  0.64396  0.42008  1.0000
  H   H35       1.0  0.01062  0.35604  0.92008  1.0000
  H   H36       1.0  0.98938  0.85604  0.57992  1.0000
  H   H37       1.0  0.76062  0.82992  0.60604  1.0000
  H   H38       1.0  0.73938  0.17008  0.10604  1.0000
  H   H39       1.0  0.26062  0.67008  0.39396  1.0000
  H   H40       1.0  0.23938  0.32992  0.89396  1.0000
  H   H41       1.0  0.32992  0.89396  0.23938  1.0000
  H   H42       1.0  0.67008  0.39396  0.26062  1.0000
  H   H43       1.0  0.17008  0.10604  0.73938  1.0000
  H   H44       1.0  0.82992  0.60604  0.76062  1.0000
  H   H45       1.0  0.39396  0.26062  0.67008  1.0000
  H   H46       1.0  0.89396  0.23938  0.32992  1.0000
  H   H47       1.0  0.60604  0.76062  0.82992  1.0000
  H   H48       1.0  0.10604  0.73938  0.17008  1.0000
  C   C169      1.0  0.07989  0.45210  0.18270  1.0000
  C   C170      1.0  0.42011  0.54790  0.68270  1.0000
  C   C171      1.0  0.92011  0.95210  0.31730  1.0000
  C   C172      1.0  0.57989  0.04790  0.81730  1.0000
  C   C173      1.0  0.18270  0.07989  0.45210  1.0000
  C   C174      1.0  0.68270  0.42011  0.54790  1.0000
  C   C175      1.0  0.31730  0.92011  0.95210  1.0000
  C   C176      1.0  0.81730  0.57989  0.04790  1.0000
  C   C177      1.0  0.45210  0.18270  0.07989  1.0000
  C   C178      1.0  0.54790  0.68270  0.42011  1.0000
  C   C179      1.0  0.95210  0.31730  0.92011  1.0000
  C   C180      1.0  0.04790  0.81730  0.57989  1.0000
  C   C181      1.0  0.70210  0.82989  0.56730  1.0000
  C   C182      1.0  0.79790  0.17011  0.06730  1.0000
  C   C183      1.0  0.20210  0.67011  0.43270  1.0000
  C   C184      1.0  0.29790  0.32989  0.93270  1.0000
  C   C185      1.0  0.32989  0.93270  0.29790  1.0000
  C   C186      1.0  0.67011  0.43270  0.20210  1.0000
  C   C187      1.0  0.17011  0.06730  0.79790  1.0000
  C   C188      1.0  0.82989  0.56730  0.70210  1.0000
  C   C189      1.0  0.43270  0.20210  0.67011  1.0000
  C   C190      1.0  0.93270  0.29790  0.32989  1.0000
  C   C191      1.0  0.56730  0.70210  0.82989  1.0000
  C   C192      1.0  0.06730  0.79790  0.17011  1.0000
  H   H49       1.0  0.04832  0.44590  0.17999  1.0000
  H   H50       1.0  0.45168  0.55410  0.67999  1.0000
  H   H51       1.0  0.95168  0.94590  0.32001  1.0000
  H   H52       1.0  0.54832  0.05410  0.82001  1.0000
  H   H53       1.0  0.17999  0.04832  0.44590  1.0000
  H   H54       1.0  0.67999  0.45168  0.55410  1.0000
  H   H55       1.0  0.32001  0.95168  0.94590  1.0000
  H   H56       1.0  0.82001  0.54832  0.05410  1.0000
  H   H57       1.0  0.44590  0.17999  0.04832  1.0000
  H   H58       1.0  0.55410  0.67999  0.45168  1.0000
  H   H59       1.0  0.94590  0.32001  0.95168  1.0000
  H   H60       1.0  0.05410  0.82001  0.54832  1.0000
  H   H61       1.0  0.69590  0.79832  0.57001  1.0000
  H   H62       1.0  0.80410  0.20168  0.07001  1.0000
  H   H63       1.0  0.19590  0.70168  0.42999  1.0000
  H   H64       1.0  0.30410  0.29832  0.92999  1.0000
  H   H65       1.0  0.29832  0.92999  0.30410  1.0000
  H   H66       1.0  0.70168  0.42999  0.19590  1.0000
  H   H67       1.0  0.20168  0.07001  0.80410  1.0000
  H   H68       1.0  0.79832  0.57001  0.69590  1.0000
  H   H69       1.0  0.42999  0.19590  0.70168  1.0000
  H   H70       1.0  0.92999  0.30410  0.29832  1.0000
  H   H71       1.0  0.57001  0.69590  0.79832  1.0000
  H   H72       1.0  0.07001  0.80410  0.20168  1.0000
  C   C193      1.0  0.10815  0.42252  0.20830  1.0000
  C   C194      1.0  0.39185  0.57748  0.70830  1.0000
  C   C195      1.0  0.89185  0.92252  0.29170  1.0000
  C   C196      1.0  0.60815  0.07748  0.79170  1.0000
  C   C197      1.0  0.20830  0.10815  0.42252  1.0000
  C   C198      1.0  0.70830  0.39185  0.57748  1.0000
  C   C199      1.0  0.29170  0.89185  0.92252  1.0000
  C   C200      1.0  0.79170  0.60815  0.07748  1.0000
  C   C201      1.0  0.42252  0.20830  0.10815  1.0000
  C   C202      1.0  0.57748  0.70830  0.39185  1.0000
  C   C203      1.0  0.92252  0.29170  0.89185  1.0000
  C   C204      1.0  0.07748  0.79170  0.60815  1.0000
  C   C205      1.0  0.67252  0.85815  0.54170  1.0000
  C   C206      1.0  0.82748  0.14185  0.04170  1.0000
  C   C207      1.0  0.17252  0.64185  0.45830  1.0000
  C   C208      1.0  0.32748  0.35815  0.95830  1.0000
  C   C209      1.0  0.35815  0.95830  0.32748  1.0000
  C   C210      1.0  0.64185  0.45830  0.17252  1.0000
  C   C211      1.0  0.14185  0.04170  0.82748  1.0000
  C   C212      1.0  0.85815  0.54170  0.67252  1.0000
  C   C213      1.0  0.45830  0.17252  0.64185  1.0000
  C   C214      1.0  0.95830  0.32748  0.35815  1.0000
  C   C215      1.0  0.54170  0.67252  0.85815  1.0000
  C   C216      1.0  0.04170  0.82748  0.14185  1.0000
  H   H73       1.0  0.09548  0.39658  0.22277  1.0000
  H   H74       1.0  0.40452  0.60342  0.72277  1.0000
  H   H75       1.0  0.90452  0.89658  0.27723  1.0000
  H   H76       1.0  0.59548  0.10342  0.77723  1.0000
  H   H77       1.0  0.22277  0.09548  0.39658  1.0000
  H   H78       1.0  0.72277  0.40452  0.60342  1.0000
  H   H79       1.0  0.27723  0.90452  0.89658  1.0000
  H   H80       1.0  0.77723  0.59548  0.10342  1.0000
  H   H81       1.0  0.39658  0.22277  0.09548  1.0000
  H   H82       1.0  0.60342  0.72277  0.40452  1.0000
  H   H83       1.0  0.89658  0.27723  0.90452  1.0000
  H   H84       1.0  0.10342  0.77723  0.59548  1.0000
  H   H85       1.0  0.64658  0.84548  0.52723  1.0000
  H   H86       1.0  0.85342  0.15452  0.02723  1.0000
  H   H87       1.0  0.14658  0.65452  0.47277  1.0000
  H   H88       1.0  0.35342  0.34548  0.97277  1.0000
  H   H89       1.0  0.34548  0.97277  0.35342  1.0000
  H   H90       1.0  0.65452  0.47277  0.14658  1.0000
  H   H91       1.0  0.15452  0.02723  0.85342  1.0000
  H   H92       1.0  0.84548  0.52723  0.64658  1.0000
  H   H93       1.0  0.47277  0.14658  0.65452  1.0000
  H   H94       1.0  0.97277  0.35342  0.34548  1.0000
  H   H95       1.0  0.52723  0.64658  0.84548  1.0000
  H   H96       1.0  0.02723  0.85342  0.15452  1.0000
  C   C217      1.0  0.18596  0.40175  0.24246  1.0000
  C   C218      1.0  0.31404  0.59825  0.74246  1.0000
  C   C219      1.0  0.81404  0.90175  0.25754  1.0000
  C   C220      1.0  0.68596  0.09825  0.75754  1.0000
  C   C221      1.0  0.24246  0.18596  0.40175  1.0000
  C   C222      1.0  0.74246  0.31404  0.59825  1.0000
  C   C223      1.0  0.25754  0.81404  0.90175  1.0000
  C   C224      1.0  0.75754  0.68596  0.09825  1.0000
  C   C225      1.0  0.40175  0.24246  0.18596  1.0000
  C   C226      1.0  0.59825  0.74246  0.31404  1.0000
  C   C227      1.0  0.90175  0.25754  0.81404  1.0000
  C   C228      1.0  0.09825  0.75754  0.68596  1.0000
  C   C229      1.0  0.65175  0.93596  0.50754  1.0000
  C   C230      1.0  0.84825  0.06404  0.00754  1.0000
  C   C231      1.0  0.15175  0.56404  0.49246  1.0000
  C   C232      1.0  0.34825  0.43596  0.99246  1.0000
  C   C233      1.0  0.43596  0.99246  0.34825  1.0000
  C   C234      1.0  0.56404  0.49246  0.15175  1.0000
  C   C235      1.0  0.06404  0.00754  0.84825  1.0000
  C   C236      1.0  0.93596  0.50754  0.65175  1.0000
  C   C237      1.0  0.49246  0.15175  0.56404  1.0000
  C   C238      1.0  0.99246  0.34825  0.43596  1.0000
  C   C239      1.0  0.50754  0.65175  0.93596  1.0000
  C   C240      1.0  0.00754  0.84825  0.06404  1.0000
  C   C241      1.0  0.18031  0.35384  0.24152  1.0000
  C   C242      1.0  0.31969  0.64616  0.74152  1.0000
  C   C243      1.0  0.81969  0.85384  0.25848  1.0000
  C   C244      1.0  0.68031  0.14616  0.75848  1.0000
  C   C245      1.0  0.24152  0.18031  0.35384  1.0000
  C   C246      1.0  0.74152  0.31969  0.64616  1.0000
  C   C247      1.0  0.25848  0.81969  0.85384  1.0000
  C   C248      1.0  0.75848  0.68031  0.14616  1.0000
  C   C249      1.0  0.35384  0.24152  0.18031  1.0000
  C   C250      1.0  0.64616  0.74152  0.31969  1.0000
  C   C251      1.0  0.85384  0.25848  0.81969  1.0000
  C   C252      1.0  0.14616  0.75848  0.68031  1.0000
  C   C253      1.0  0.60384  0.93031  0.50848  1.0000
  C   C254      1.0  0.89616  0.06969  0.00848  1.0000
  C   C255      1.0  0.10384  0.56969  0.49152  1.0000
  C   C256      1.0  0.39616  0.43031  0.99152  1.0000
  C   C257      1.0  0.43031  0.99152  0.39616  1.0000
  C   C258      1.0  0.56969  0.49152  0.10384  1.0000
  C   C259      1.0  0.06969  0.00848  0.89616  1.0000
  C   C260      1.0  0.93031  0.50848  0.60384  1.0000
  C   C261      1.0  0.49152  0.10384  0.56969  1.0000
  C   C262      1.0  0.99152  0.39616  0.43031  1.0000
  C   C263      1.0  0.50848  0.60384  0.93031  1.0000
  C   C264      1.0  0.00848  0.89616  0.06969  1.0000
  H   H97       1.0  0.15793  0.34060  0.22240  1.0000
  H   H98       1.0  0.34207  0.65940  0.72240  1.0000
  H   H99       1.0  0.84207  0.84060  0.27760  1.0000
  H   H100      1.0  0.65793  0.15940  0.77760  1.0000
  H   H101      1.0  0.22240  0.15793  0.34060  1.0000
  H   H102      1.0  0.72240  0.34207  0.65940  1.0000
  H   H103      1.0  0.27760  0.84207  0.84060  1.0000
  H   H104      1.0  0.77760  0.65793  0.15940  1.0000
  H   H105      1.0  0.34060  0.22240  0.15793  1.0000
  H   H106      1.0  0.65940  0.72240  0.34207  1.0000
  H   H107      1.0  0.84060  0.27760  0.84207  1.0000
  H   H108      1.0  0.15940  0.77760  0.65793  1.0000
  H   H109      1.0  0.59060  0.90793  0.52760  1.0000
  H   H110      1.0  0.90940  0.09207  0.02760  1.0000
  H   H111      1.0  0.09060  0.59207  0.47240  1.0000
  H   H112      1.0  0.40940  0.40793  0.97240  1.0000
  H   H113      1.0  0.40793  0.97240  0.40940  1.0000
  H   H114      1.0  0.59207  0.47240  0.09060  1.0000
  H   H115      1.0  0.09207  0.02760  0.90940  1.0000
  H   H116      1.0  0.90793  0.52760  0.59060  1.0000
  H   H117      1.0  0.47240  0.09060  0.59207  1.0000
  H   H118      1.0  0.97240  0.40940  0.40793  1.0000
  H   H119      1.0  0.52760  0.59060  0.90793  1.0000
  H   H120      1.0  0.02760  0.90940  0.09207  1.0000
  C   C265      1.0  0.20812  0.32573  0.26917  1.0000
  C   C266      1.0  0.29188  0.67427  0.76917  1.0000
  C   C267      1.0  0.79188  0.82573  0.23083  1.0000
  C   C268      1.0  0.70812  0.17427  0.73083  1.0000
  C   C269      1.0  0.26917  0.20812  0.32573  1.0000
  C   C270      1.0  0.76917  0.29188  0.67427  1.0000
  C   C271      1.0  0.23083  0.79188  0.82573  1.0000
  C   C272      1.0  0.73083  0.70812  0.17427  1.0000
  C   C273      1.0  0.32573  0.26917  0.20812  1.0000
  C   C274      1.0  0.67427  0.76917  0.29188  1.0000
  C   C275      1.0  0.82573  0.23083  0.79188  1.0000
  C   C276      1.0  0.17427  0.73083  0.70812  1.0000
  C   C277      1.0  0.57573  0.95812  0.48083  1.0000
  C   C278      1.0  0.92427  0.04188  0.98083  1.0000
  C   C279      1.0  0.07573  0.54188  0.51917  1.0000
  C   C280      1.0  0.42427  0.45812  0.01917  1.0000
  C   C281      1.0  0.45812  0.01917  0.42427  1.0000
  C   C282      1.0  0.54188  0.51917  0.07573  1.0000
  C   C283      1.0  0.04188  0.98083  0.92427  1.0000
  C   C284      1.0  0.95812  0.48083  0.57573  1.0000
  C   C285      1.0  0.51917  0.07573  0.54188  1.0000
  C   C286      1.0  0.01917  0.42427  0.45812  1.0000
  C   C287      1.0  0.48083  0.57573  0.95812  1.0000
  C   C288      1.0  0.98083  0.92427  0.04188  1.0000
  H   H121      1.0  0.20434  0.29368  0.26854  1.0000
  H   H122      1.0  0.29566  0.70632  0.76854  1.0000
  H   H123      1.0  0.79566  0.79368  0.23146  1.0000
  H   H124      1.0  0.70434  0.20632  0.73146  1.0000
  H   H125      1.0  0.26854  0.20434  0.29368  1.0000
  H   H126      1.0  0.76854  0.29566  0.70632  1.0000
  H   H127      1.0  0.23146  0.79566  0.79368  1.0000
  H   H128      1.0  0.73146  0.70434  0.20632  1.0000
  H   H129      1.0  0.29368  0.26854  0.20434  1.0000
  H   H130      1.0  0.70632  0.76854  0.29566  1.0000
  H   H131      1.0  0.79368  0.23146  0.79566  1.0000
  H   H132      1.0  0.20632  0.73146  0.70434  1.0000
  H   H133      1.0  0.54368  0.95434  0.48146  1.0000
  H   H134      1.0  0.95632  0.04566  0.98146  1.0000
  H   H135      1.0  0.04368  0.54566  0.51854  1.0000
  H   H136      1.0  0.45632  0.45434  0.01854  1.0000
  H   H137      1.0  0.45434  0.01854  0.45632  1.0000
  H   H138      1.0  0.54566  0.51854  0.04368  1.0000
  H   H139      1.0  0.04566  0.98146  0.95632  1.0000
  H   H140      1.0  0.95434  0.48146  0.54368  1.0000
  H   H141      1.0  0.51854  0.04368  0.54566  1.0000
  H   H142      1.0  0.01854  0.45632  0.45434  1.0000
  H   H143      1.0  0.48146  0.54368  0.95434  1.0000
  H   H144      1.0  0.98146  0.95632  0.04566  1.0000
  C   C289      1.0  0.24157  0.34553  0.29775  1.0000
  C   C290      1.0  0.25843  0.65447  0.79775  1.0000
  C   C291      1.0  0.75843  0.84553  0.20225  1.0000
  C   C292      1.0  0.74157  0.15447  0.70225  1.0000
  C   C293      1.0  0.29775  0.24157  0.34553  1.0000
  C   C294      1.0  0.79775  0.25843  0.65447  1.0000
  C   C295      1.0  0.20225  0.75843  0.84553  1.0000
  C   C296      1.0  0.70225  0.74157  0.15447  1.0000
  C   C297      1.0  0.34553  0.29775  0.24157  1.0000
  C   C298      1.0  0.65447  0.79775  0.25843  1.0000
  C   C299      1.0  0.84553  0.20225  0.75843  1.0000
  C   C300      1.0  0.15447  0.70225  0.74157  1.0000
  C   C301      1.0  0.59553  0.99157  0.45225  1.0000
  C   C302      1.0  0.90447  0.00843  0.95225  1.0000
  C   C303      1.0  0.09553  0.50843  0.54775  1.0000
  C   C304      1.0  0.40447  0.49157  0.04775  1.0000
  C   C305      1.0  0.49157  0.04775  0.40447  1.0000
  C   C306      1.0  0.50843  0.54775  0.09553  1.0000
  C   C307      1.0  0.00843  0.95225  0.90447  1.0000
  C   C308      1.0  0.99157  0.45225  0.59553  1.0000
  C   C309      1.0  0.54775  0.09553  0.50843  1.0000
  C   C310      1.0  0.04775  0.40447  0.49157  1.0000
  C   C311      1.0  0.45225  0.59553  0.99157  1.0000
  C   C312      1.0  0.95225  0.90447  0.00843  1.0000
  H   H145      1.0  0.26018  0.32672  0.31625  1.0000
  H   H146      1.0  0.23982  0.67328  0.81625  1.0000
  H   H147      1.0  0.73982  0.82672  0.18375  1.0000
  H   H148      1.0  0.76018  0.17328  0.68375  1.0000
  H   H149      1.0  0.31625  0.26018  0.32672  1.0000
  H   H150      1.0  0.81625  0.23982  0.67328  1.0000
  H   H151      1.0  0.18375  0.73982  0.82672  1.0000
  H   H152      1.0  0.68375  0.76018  0.17328  1.0000
  H   H153      1.0  0.32672  0.31625  0.26018  1.0000
  H   H154      1.0  0.67328  0.81625  0.23982  1.0000
  H   H155      1.0  0.82672  0.18375  0.73982  1.0000
  H   H156      1.0  0.17328  0.68375  0.76018  1.0000
  H   H157      1.0  0.57672  0.01018  0.43375  1.0000
  H   H158      1.0  0.92328  0.98982  0.93375  1.0000
  H   H159      1.0  0.07672  0.48982  0.56625  1.0000
  H   H160      1.0  0.42328  0.51018  0.06625  1.0000
  H   H161      1.0  0.51018  0.06625  0.42328  1.0000
  H   H162      1.0  0.48982  0.56625  0.07672  1.0000
  H   H163      1.0  0.98982  0.93375  0.92328  1.0000
  H   H164      1.0  0.01018  0.43375  0.57672  1.0000
  H   H165      1.0  0.56625  0.07672  0.48982  1.0000
  H   H166      1.0  0.06625  0.42328  0.51018  1.0000
  H   H167      1.0  0.43375  0.57672  0.01018  1.0000
  H   H168      1.0  0.93375  0.92328  0.98982  1.0000
  C   C313      1.0  0.24722  0.39344  0.29869  1.0000
  C   C314      1.0  0.25278  0.60656  0.79869  1.0000
  C   C315      1.0  0.75278  0.89344  0.20131  1.0000
  C   C316      1.0  0.74722  0.10656  0.70131  1.0000
  C   C317      1.0  0.29869  0.24722  0.39344  1.0000
  C   C318      1.0  0.79869  0.25278  0.60656  1.0000
  C   C319      1.0  0.20131  0.75278  0.89344  1.0000
  C   C320      1.0  0.70131  0.74722  0.10656  1.0000
  C   C321      1.0  0.39344  0.29869  0.24722  1.0000
  C   C322      1.0  0.60656  0.79869  0.25278  1.0000
  C   C323      1.0  0.89344  0.20131  0.75278  1.0000
  C   C324      1.0  0.10656  0.70131  0.74722  1.0000
  C   C325      1.0  0.64344  0.99722  0.45131  1.0000
  C   C326      1.0  0.85656  0.00278  0.95131  1.0000
  C   C327      1.0  0.14344  0.50278  0.54869  1.0000
  C   C328      1.0  0.35656  0.49722  0.04869  1.0000
  C   C329      1.0  0.49722  0.04869  0.35656  1.0000
  C   C330      1.0  0.50278  0.54869  0.14344  1.0000
  C   C331      1.0  0.00278  0.95131  0.85656  1.0000
  C   C332      1.0  0.99722  0.45131  0.64344  1.0000
  C   C333      1.0  0.54869  0.14344  0.50278  1.0000
  C   C334      1.0  0.04869  0.35656  0.49722  1.0000
  C   C335      1.0  0.45131  0.64344  0.99722  1.0000
  C   C336      1.0  0.95131  0.85656  0.00278  1.0000
  C   C337      1.0  0.21941  0.42155  0.27104  1.0000
  C   C338      1.0  0.28059  0.57845  0.77104  1.0000
  C   C339      1.0  0.78059  0.92155  0.22896  1.0000
  C   C340      1.0  0.71941  0.07845  0.72896  1.0000
  C   C341      1.0  0.27104  0.21941  0.42155  1.0000
  C   C342      1.0  0.77104  0.28059  0.57845  1.0000
  C   C343      1.0  0.22896  0.78059  0.92155  1.0000
  C   C344      1.0  0.72896  0.71941  0.07845  1.0000
  C   C345      1.0  0.42155  0.27104  0.21941  1.0000
  C   C346      1.0  0.57845  0.77104  0.28059  1.0000
  C   C347      1.0  0.92155  0.22896  0.78059  1.0000
  C   C348      1.0  0.07845  0.72896  0.71941  1.0000
  C   C349      1.0  0.67155  0.96941  0.47896  1.0000
  C   C350      1.0  0.82845  0.03059  0.97896  1.0000
  C   C351      1.0  0.17155  0.53059  0.52104  1.0000
  C   C352      1.0  0.32845  0.46941  0.02104  1.0000
  C   C353      1.0  0.46941  0.02104  0.32845  1.0000
  C   C354      1.0  0.53059  0.52104  0.17155  1.0000
  C   C355      1.0  0.03059  0.97896  0.82845  1.0000
  C   C356      1.0  0.96941  0.47896  0.67155  1.0000
  C   C357      1.0  0.52104  0.17155  0.53059  1.0000
  C   C358      1.0  0.02104  0.32845  0.46941  1.0000
  C   C359      1.0  0.47896  0.67155  0.96941  1.0000
  C   C360      1.0  0.97896  0.82845  0.03059  1.0000
  H   H169      1.0  0.22319  0.45360  0.27166  1.0000
  H   H170      1.0  0.27681  0.54640  0.77166  1.0000
  H   H171      1.0  0.77681  0.95360  0.22834  1.0000
  H   H172      1.0  0.72319  0.04640  0.72834  1.0000
  H   H173      1.0  0.27166  0.22319  0.45360  1.0000
  H   H174      1.0  0.77166  0.27681  0.54640  1.0000
  H   H175      1.0  0.22834  0.77681  0.95360  1.0000
  H   H176      1.0  0.72834  0.72319  0.04640  1.0000
  H   H177      1.0  0.45360  0.27166  0.22319  1.0000
  H   H178      1.0  0.54640  0.77166  0.27681  1.0000
  H   H179      1.0  0.95360  0.22834  0.77681  1.0000
  H   H180      1.0  0.04640  0.72834  0.72319  1.0000
  H   H181      1.0  0.70360  0.97319  0.47834  1.0000
  H   H182      1.0  0.79640  0.02681  0.97834  1.0000
  H   H183      1.0  0.20360  0.52681  0.52166  1.0000
  H   H184      1.0  0.29640  0.47319  0.02166  1.0000
  H   H185      1.0  0.47319  0.02166  0.29640  1.0000
  H   H186      1.0  0.52681  0.52166  0.20360  1.0000
  H   H187      1.0  0.02681  0.97834  0.79640  1.0000
  H   H188      1.0  0.97319  0.47834  0.70360  1.0000
  H   H189      1.0  0.52166  0.20360  0.52681  1.0000
  H   H190      1.0  0.02166  0.29640  0.47319  1.0000
  H   H191      1.0  0.47834  0.70360  0.97319  1.0000
  H   H192      1.0  0.97834  0.79640  0.02681  1.0000
  C   C361      1.0  0.23890  0.68210  0.10310  1.0000
  C   C362      1.0  0.26110  0.31790  0.60310  1.0000
  C   C363      1.0  0.76110  0.18210  0.39690  1.0000
  C   C364      1.0  0.73890  0.81790  0.89690  1.0000
  C   C365      1.0  0.10310  0.23890  0.68210  1.0000
  C   C366      1.0  0.60310  0.26110  0.31790  1.0000
  C   C367      1.0  0.39690  0.76110  0.18210  1.0000
  C   C368      1.0  0.89690  0.73890  0.81790  1.0000
  C   C369      1.0  0.68210  0.10310  0.23890  1.0000
  C   C370      1.0  0.31790  0.60310  0.26110  1.0000
  C   C371      1.0  0.18210  0.39690  0.76110  1.0000
  C   C372      1.0  0.81790  0.89690  0.73890  1.0000
  C   C373      1.0  0.93210  0.98890  0.64690  1.0000
  C   C374      1.0  0.56790  0.01110  0.14690  1.0000
  C   C375      1.0  0.43210  0.51110  0.35310  1.0000
  C   C376      1.0  0.06790  0.48890  0.85310  1.0000
  C   C377      1.0  0.48890  0.85310  0.06790  1.0000
  C   C378      1.0  0.51110  0.35310  0.43210  1.0000
  C   C379      1.0  0.01110  0.14690  0.56790  1.0000
  C   C380      1.0  0.98890  0.64690  0.93210  1.0000
  C   C381      1.0  0.35310  0.43210  0.51110  1.0000
  C   C382      1.0  0.85310  0.06790  0.48890  1.0000
  C   C383      1.0  0.64690  0.93210  0.98890  1.0000
  C   C384      1.0  0.14690  0.56790  0.01110  1.0000
  H   H193      1.0  0.22546  0.69819  0.07634  1.0000
  H   H194      1.0  0.27454  0.30181  0.57634  1.0000
  H   H195      1.0  0.77454  0.19819  0.42366  1.0000
  H   H196      1.0  0.72546  0.80181  0.92366  1.0000
  H   H197      1.0  0.07634  0.22546  0.69819  1.0000
  H   H198      1.0  0.57634  0.27454  0.30181  1.0000
  H   H199      1.0  0.42366  0.77454  0.19819  1.0000
  H   H200      1.0  0.92366  0.72546  0.80181  1.0000
  H   H201      1.0  0.69819  0.07634  0.22546  1.0000
  H   H202      1.0  0.30181  0.57634  0.27454  1.0000
  H   H203      1.0  0.19819  0.42366  0.77454  1.0000
  H   H204      1.0  0.80181  0.92366  0.72546  1.0000
  H   H205      1.0  0.94819  0.97546  0.67366  1.0000
  H   H206      1.0  0.55181  0.02454  0.17366  1.0000
  H   H207      1.0  0.44819  0.52454  0.32634  1.0000
  H   H208      1.0  0.05181  0.47546  0.82634  1.0000
  H   H209      1.0  0.47546  0.82634  0.05181  1.0000
  H   H210      1.0  0.52454  0.32634  0.44819  1.0000
  H   H211      1.0  0.02454  0.17366  0.55181  1.0000
  H   H212      1.0  0.97546  0.67366  0.94819  1.0000
  H   H213      1.0  0.32634  0.44819  0.52454  1.0000
  H   H214      1.0  0.82634  0.05181  0.47546  1.0000
  H   H215      1.0  0.67366  0.94819  0.97546  1.0000
  H   H216      1.0  0.17366  0.55181  0.02454  1.0000
  C   C385      1.0  0.22720  0.70920  0.14740  1.0000
  C   C386      1.0  0.27280  0.29080  0.64740  1.0000
  C   C387      1.0  0.77280  0.20920  0.35260  1.0000
  C   C388      1.0  0.72720  0.79080  0.85260  1.0000
  C   C389      1.0  0.14740  0.22720  0.70920  1.0000
  C   C390      1.0  0.64740  0.27280  0.29080  1.0000
  C   C391      1.0  0.35260  0.77280  0.20920  1.0000
  C   C392      1.0  0.85260  0.72720  0.79080  1.0000
  C   C393      1.0  0.70920  0.14740  0.22720  1.0000
  C   C394      1.0  0.29080  0.64740  0.27280  1.0000
  C   C395      1.0  0.20920  0.35260  0.77280  1.0000
  C   C396      1.0  0.79080  0.85260  0.72720  1.0000
  C   C397      1.0  0.95920  0.97720  0.60260  1.0000
  C   C398      1.0  0.54080  0.02280  0.10260  1.0000
  C   C399      1.0  0.45920  0.52280  0.39740  1.0000
  C   C400      1.0  0.04080  0.47720  0.89740  1.0000
  C   C401      1.0  0.47720  0.89740  0.04080  1.0000
  C   C402      1.0  0.52280  0.39740  0.45920  1.0000
  C   C403      1.0  0.02280  0.10260  0.54080  1.0000
  C   C404      1.0  0.97720  0.60260  0.95920  1.0000
  C   C405      1.0  0.39740  0.45920  0.52280  1.0000
  C   C406      1.0  0.89740  0.04080  0.47720  1.0000
  C   C407      1.0  0.60260  0.95920  0.97720  1.0000
  C   C408      1.0  0.10260  0.54080  0.02280  1.0000
  H   H217      1.0  0.19443  0.70766  0.15297  1.0000
  H   H218      1.0  0.30557  0.29234  0.65297  1.0000
  H   H219      1.0  0.80557  0.20766  0.34703  1.0000
  H   H220      1.0  0.69443  0.79234  0.84703  1.0000
  H   H221      1.0  0.15297  0.19443  0.70766  1.0000
  H   H222      1.0  0.65297  0.30557  0.29234  1.0000
  H   H223      1.0  0.34703  0.80557  0.20766  1.0000
  H   H224      1.0  0.84703  0.69443  0.79234  1.0000
  H   H225      1.0  0.70766  0.15297  0.19443  1.0000
  H   H226      1.0  0.29234  0.65297  0.30557  1.0000
  H   H227      1.0  0.20766  0.34703  0.80557  1.0000
  H   H228      1.0  0.79234  0.84703  0.69443  1.0000
  H   H229      1.0  0.95766  0.94443  0.59703  1.0000
  H   H230      1.0  0.54234  0.05557  0.09703  1.0000
  H   H231      1.0  0.45766  0.55557  0.40297  1.0000
  H   H232      1.0  0.04234  0.44443  0.90297  1.0000
  H   H233      1.0  0.44443  0.90297  0.04234  1.0000
  H   H234      1.0  0.55557  0.40297  0.45766  1.0000
  H   H235      1.0  0.05557  0.09703  0.54234  1.0000
  H   H236      1.0  0.94443  0.59703  0.95766  1.0000
  H   H237      1.0  0.40297  0.45766  0.55557  1.0000
  H   H238      1.0  0.90297  0.04234  0.44443  1.0000
  H   H239      1.0  0.59703  0.95766  0.94443  1.0000
  H   H240      1.0  0.09703  0.54234  0.05557  1.0000
  H   H241      1.0  0.23645  0.74098  0.14374  1.0000
  H   H242      1.0  0.26355  0.25902  0.64374  1.0000
  H   H243      1.0  0.76355  0.24098  0.35626  1.0000
  H   H244      1.0  0.73645  0.75902  0.85626  1.0000
  H   H245      1.0  0.14374  0.23645  0.74098  1.0000
  H   H246      1.0  0.64374  0.26355  0.25902  1.0000
  H   H247      1.0  0.35626  0.76355  0.24098  1.0000
  H   H248      1.0  0.85626  0.73645  0.75902  1.0000
  H   H249      1.0  0.74098  0.14374  0.23645  1.0000
  H   H250      1.0  0.25902  0.64374  0.26355  1.0000
  H   H251      1.0  0.24098  0.35626  0.76355  1.0000
  H   H252      1.0  0.75902  0.85626  0.73645  1.0000
  H   H253      1.0  0.99098  0.98645  0.60626  1.0000
  H   H254      1.0  0.50902  0.01355  0.10626  1.0000
  H   H255      1.0  0.49098  0.51355  0.39374  1.0000
  H   H256      1.0  0.00902  0.48645  0.89374  1.0000
  H   H257      1.0  0.48645  0.89374  0.00902  1.0000
  H   H258      1.0  0.51355  0.39374  0.49098  1.0000
  H   H259      1.0  0.01355  0.10626  0.50902  1.0000
  H   H260      1.0  0.98645  0.60626  0.99098  1.0000
  H   H261      1.0  0.39374  0.49098  0.51355  1.0000
  H   H262      1.0  0.89374  0.00902  0.48645  1.0000
  H   H263      1.0  0.60626  0.99098  0.98645  1.0000
  H   H264      1.0  0.10626  0.50902  0.01355  1.0000
  H   H265      1.0  0.24353  0.69578  0.17320  1.0000
  H   H266      1.0  0.25647  0.30422  0.67320  1.0000
  H   H267      1.0  0.75647  0.19578  0.32680  1.0000
  H   H268      1.0  0.74353  0.80422  0.82680  1.0000
  H   H269      1.0  0.17320  0.24353  0.69578  1.0000
  H   H270      1.0  0.67320  0.25647  0.30422  1.0000
  H   H271      1.0  0.32680  0.75647  0.19578  1.0000
  H   H272      1.0  0.82680  0.74353  0.80422  1.0000
  H   H273      1.0  0.69578  0.17320  0.24353  1.0000
  H   H274      1.0  0.30422  0.67320  0.25647  1.0000
  H   H275      1.0  0.19578  0.32680  0.75647  1.0000
  H   H276      1.0  0.80422  0.82680  0.74353  1.0000
  H   H277      1.0  0.94578  0.99353  0.57680  1.0000
  H   H278      1.0  0.55422  0.00647  0.07680  1.0000
  H   H279      1.0  0.44578  0.50647  0.42320  1.0000
  H   H280      1.0  0.05422  0.49353  0.92320  1.0000
  H   H281      1.0  0.49353  0.92320  0.05422  1.0000
  H   H282      1.0  0.50647  0.42320  0.44578  1.0000
  H   H283      1.0  0.00647  0.07680  0.55422  1.0000
  H   H284      1.0  0.99353  0.57680  0.94578  1.0000
  H   H285      1.0  0.42320  0.44578  0.50647  1.0000
  H   H286      1.0  0.92320  0.05422  0.49353  1.0000
  H   H287      1.0  0.57680  0.94578  0.99353  1.0000
  H   H288      1.0  0.07680  0.55422  0.00647  1.0000
