data_image0
_chemical_formula_structural       Zn8O48C24Zn24C24O24C24O72C72Zn12C24H24C24H24C48H24O24C24H96C96H24C24H24C24H72
_chemical_formula_sum              "Zn44 O168 C408 H288"
_cell_length_a       28.8135
_cell_length_b       28.8135
_cell_length_c       28.8135
_cell_angle_alpha    90
_cell_angle_beta     90
_cell_angle_gamma    90

_space_group_name_H-M_alt    "P 1"
_space_group_IT_number       1

loop_
  _space_group_symop_operation_xyz
  'x, y, z'

loop_
  _atom_site_type_symbol
  _atom_site_label
  _atom_site_symmetry_multiplicity
  _atom_site_fract_x
  _atom_site_fract_y
  _atom_site_fract_z
  _atom_site_occupancy
  Zn  Zn1       1.0  0.62045  0.62045  0.62045  1.0000
  Zn  Zn2       1.0  0.87955  0.37955  0.12045  1.0000
  Zn  Zn3       1.0  0.37955  0.12045  0.87955  1.0000
  Zn  Zn4       1.0  0.12045  0.87955  0.37955  1.0000
  Zn  Zn5       1.0  0.37045  0.87045  0.62955  1.0000
  Zn  Zn6       1.0  0.12955  0.12955  0.12955  1.0000
  Zn  Zn7       1.0  0.87045  0.62955  0.37045  1.0000
  Zn  Zn8       1.0  0.62955  0.37045  0.87045  1.0000
  O   O1        1.0  0.55353  0.60493  0.63538  1.0000
  O   O2        1.0  0.94647  0.39507  0.13538  1.0000
  O   O3        1.0  0.44647  0.10493  0.86462  1.0000
  O   O4        1.0  0.05353  0.89507  0.36462  1.0000
  O   O5        1.0  0.63538  0.55353  0.60493  1.0000
  O   O6        1.0  0.13538  0.94647  0.39507  1.0000
  O   O7        1.0  0.86462  0.44647  0.10493  1.0000
  O   O8        1.0  0.36462  0.05353  0.89507  1.0000
  O   O9        1.0  0.60493  0.63538  0.55353  1.0000
  O   O10       1.0  0.39507  0.13538  0.94647  1.0000
  O   O11       1.0  0.10493  0.86462  0.44647  1.0000
  O   O12       1.0  0.89507  0.36462  0.05353  1.0000
  O   O13       1.0  0.35493  0.80353  0.61462  1.0000
  O   O14       1.0  0.14507  0.19647  0.11462  1.0000
  O   O15       1.0  0.85493  0.69647  0.38538  1.0000
  O   O16       1.0  0.64507  0.30353  0.88538  1.0000
  O   O17       1.0  0.30353  0.88538  0.64507  1.0000
  O   O18       1.0  0.69647  0.38538  0.85493  1.0000
  O   O19       1.0  0.19647  0.11462  0.14507  1.0000
  O   O20       1.0  0.80353  0.61462  0.35493  1.0000
  O   O21       1.0  0.38538  0.85493  0.69647  1.0000
  O   O22       1.0  0.88538  0.64507  0.30353  1.0000
  O   O23       1.0  0.61462  0.35493  0.80353  1.0000
  O   O24       1.0  0.11462  0.14507  0.19647  1.0000
  O   O25       1.0  0.68829  0.64201  0.60649  1.0000
  O   O26       1.0  0.81171  0.35799  0.10649  1.0000
  O   O27       1.0  0.31171  0.14201  0.89351  1.0000
  O   O28       1.0  0.18829  0.85799  0.39351  1.0000
  O   O29       1.0  0.60649  0.68829  0.64201  1.0000
  O   O30       1.0  0.10649  0.81171  0.35799  1.0000
  O   O31       1.0  0.89351  0.31171  0.14201  1.0000
  O   O32       1.0  0.39351  0.18829  0.85799  1.0000
  O   O33       1.0  0.64201  0.60649  0.68829  1.0000
  O   O34       1.0  0.35799  0.10649  0.81171  1.0000
  O   O35       1.0  0.14201  0.89351  0.31171  1.0000
  O   O36       1.0  0.85799  0.39351  0.18829  1.0000
  O   O37       1.0  0.39201  0.93829  0.64351  1.0000
  O   O38       1.0  0.10799  0.06171  0.14351  1.0000
  O   O39       1.0  0.89201  0.56171  0.35649  1.0000
  O   O40       1.0  0.60799  0.43829  0.85649  1.0000
  O   O41       1.0  0.43829  0.85649  0.60799  1.0000
  O   O42       1.0  0.56171  0.35649  0.89201  1.0000
  O   O43       1.0  0.06171  0.14351  0.10799  1.0000
  O   O44       1.0  0.93829  0.64351  0.39201  1.0000
  O   O45       1.0  0.35649  0.89201  0.56171  1.0000
  O   O46       1.0  0.85649  0.60799  0.43829  1.0000
  O   O47       1.0  0.64351  0.39201  0.93829  1.0000
  O   O48       1.0  0.14351  0.10799  0.06171  1.0000
  C   C1        1.0  0.53320  0.57780  0.66200  1.0000
  C   C2        1.0  0.96680  0.42220  0.16200  1.0000
  C   C3        1.0  0.46680  0.07780  0.83800  1.0000
  C   C4        1.0  0.03320  0.92220  0.33800  1.0000
  C   C5        1.0  0.66200  0.53320  0.57780  1.0000
  C   C6        1.0  0.16200  0.96680  0.42220  1.0000
  C   C7        1.0  0.83800  0.46680  0.07780  1.0000
  C   C8        1.0  0.33800  0.03320  0.92220  1.0000
  C   C9        1.0  0.57780  0.66200  0.53320  1.0000
  C   C10       1.0  0.42220  0.16200  0.96680  1.0000
  C   C11       1.0  0.07780  0.83800  0.46680  1.0000
  C   C12       1.0  0.92220  0.33800  0.03320  1.0000
  C   C13       1.0  0.32780  0.78320  0.58800  1.0000
  C   C14       1.0  0.17220  0.21680  0.08800  1.0000
  C   C15       1.0  0.82780  0.71680  0.41200  1.0000
  C   C16       1.0  0.67220  0.28320  0.91200  1.0000
  C   C17       1.0  0.28320  0.91200  0.67220  1.0000
  C   C18       1.0  0.71680  0.41200  0.82780  1.0000
  C   C19       1.0  0.21680  0.08800  0.17220  1.0000
  C   C20       1.0  0.78320  0.58800  0.32780  1.0000
  C   C21       1.0  0.41200  0.82780  0.71680  1.0000
  C   C22       1.0  0.91200  0.67220  0.28320  1.0000
  C   C23       1.0  0.58800  0.32780  0.78320  1.0000
  C   C24       1.0  0.08800  0.17220  0.21680  1.0000
  Zn  Zn9       1.0  0.73517  0.58560  0.62010  1.0000
  Zn  Zn10      1.0  0.76483  0.41440  0.12010  1.0000
  Zn  Zn11      1.0  0.26483  0.08560  0.87990  1.0000
  Zn  Zn12      1.0  0.23517  0.91440  0.37990  1.0000
  Zn  Zn13      1.0  0.62010  0.73517  0.58560  1.0000
  Zn  Zn14      1.0  0.12010  0.76483  0.41440  1.0000
  Zn  Zn15      1.0  0.87990  0.26483  0.08560  1.0000
  Zn  Zn16      1.0  0.37990  0.23517  0.91440  1.0000
  Zn  Zn17      1.0  0.58560  0.62010  0.73517  1.0000
  Zn  Zn18      1.0  0.41440  0.12010  0.76483  1.0000
  Zn  Zn19      1.0  0.08560  0.87990  0.26483  1.0000
  Zn  Zn20      1.0  0.91440  0.37990  0.23517  1.0000
  Zn  Zn21      1.0  0.33560  0.98517  0.62990  1.0000
  Zn  Zn22      1.0  0.16440  0.01483  0.12990  1.0000
  Zn  Zn23      1.0  0.83560  0.51483  0.37010  1.0000
  Zn  Zn24      1.0  0.66440  0.48517  0.87010  1.0000
  Zn  Zn25      1.0  0.48517  0.87010  0.66440  1.0000
  Zn  Zn26      1.0  0.51483  0.37010  0.83560  1.0000
  Zn  Zn27      1.0  0.01483  0.12990  0.16440  1.0000
  Zn  Zn28      1.0  0.98517  0.62990  0.33560  1.0000
  Zn  Zn29      1.0  0.37010  0.83560  0.51483  1.0000
  Zn  Zn30      1.0  0.87010  0.66440  0.48517  1.0000
  Zn  Zn31      1.0  0.62990  0.33560  0.98517  1.0000
  Zn  Zn32      1.0  0.12990  0.16440  0.01483  1.0000
  C   C25       1.0  0.59670  0.70650  0.67970  1.0000
  C   C26       1.0  0.90330  0.29350  0.17970  1.0000
  C   C27       1.0  0.40330  0.20650  0.82030  1.0000
  C   C28       1.0  0.09670  0.79350  0.32030  1.0000
  C   C29       1.0  0.67970  0.59670  0.70650  1.0000
  C   C30       1.0  0.17970  0.90330  0.29350  1.0000
  C   C31       1.0  0.82030  0.40330  0.20650  1.0000
  C   C32       1.0  0.32030  0.09670  0.79350  1.0000
  C   C33       1.0  0.70650  0.67970  0.59670  1.0000
  C   C34       1.0  0.29350  0.17970  0.90330  1.0000
  C   C35       1.0  0.20650  0.82030  0.40330  1.0000
  C   C36       1.0  0.79350  0.32030  0.09670  1.0000
  C   C37       1.0  0.45650  0.84670  0.57030  1.0000
  C   C38       1.0  0.04350  0.15330  0.07030  1.0000
  C   C39       1.0  0.95650  0.65330  0.42970  1.0000
  C   C40       1.0  0.54350  0.34670  0.92970  1.0000
  C   C41       1.0  0.34670  0.92970  0.54350  1.0000
  C   C42       1.0  0.65330  0.42970  0.95650  1.0000
  C   C43       1.0  0.15330  0.07030  0.04350  1.0000
  C   C44       1.0  0.84670  0.57030  0.45650  1.0000
  C   C45       1.0  0.42970  0.95650  0.65330  1.0000
  C   C46       1.0  0.92970  0.54350  0.34670  1.0000
  C   C47       1.0  0.57030  0.45650  0.84670  1.0000
  C   C48       1.0  0.07030  0.04350  0.15330  1.0000
  O   O49       1.0  0.54137  0.57546  0.70649  1.0000
  O   O50       1.0  0.95863  0.42454  0.20649  1.0000
  O   O51       1.0  0.45863  0.07546  0.79351  1.0000
  O   O52       1.0  0.04137  0.92454  0.29351  1.0000
  O   O53       1.0  0.70649  0.54137  0.57546  1.0000
  O   O54       1.0  0.20649  0.95863  0.42454  1.0000
  O   O55       1.0  0.79351  0.45863  0.07546  1.0000
  O   O56       1.0  0.29351  0.04137  0.92454  1.0000
  O   O57       1.0  0.57546  0.70649  0.54137  1.0000
  O   O58       1.0  0.42454  0.20649  0.95863  1.0000
  O   O59       1.0  0.07546  0.79351  0.45863  1.0000
  O   O60       1.0  0.92454  0.29351  0.04137  1.0000
  O   O61       1.0  0.32546  0.79137  0.54351  1.0000
  O   O62       1.0  0.17454  0.20863  0.04351  1.0000
  O   O63       1.0  0.82546  0.70863  0.45649  1.0000
  O   O64       1.0  0.67454  0.29137  0.95649  1.0000
  O   O65       1.0  0.29137  0.95649  0.67454  1.0000
  O   O66       1.0  0.70863  0.45649  0.82546  1.0000
  O   O67       1.0  0.20863  0.04351  0.17454  1.0000
  O   O68       1.0  0.79137  0.54351  0.32546  1.0000
  O   O69       1.0  0.45649  0.82546  0.70863  1.0000
  O   O70       1.0  0.95649  0.67454  0.29137  1.0000
  O   O71       1.0  0.54351  0.32546  0.79137  1.0000
  O   O72       1.0  0.04351  0.17454  0.20863  1.0000
  C   C49       1.0  0.49666  0.54702  0.64285  1.0000
  C   C50       1.0  0.00334  0.45298  0.14285  1.0000
  C   C51       1.0  0.50334  0.04702  0.85715  1.0000
  C   C52       1.0  0.99666  0.95298  0.35715  1.0000
  C   C53       1.0  0.64285  0.49666  0.54702  1.0000
  C   C54       1.0  0.14285  0.00334  0.45298  1.0000
  C   C55       1.0  0.85715  0.50334  0.04702  1.0000
  C   C56       1.0  0.35715  0.99666  0.95298  1.0000
  C   C57       1.0  0.54702  0.64285  0.49666  1.0000
  C   C58       1.0  0.45298  0.14285  0.00334  1.0000
  C   C59       1.0  0.04702  0.85715  0.50334  1.0000
  C   C60       1.0  0.95298  0.35715  0.99666  1.0000
  C   C61       1.0  0.29702  0.74666  0.60715  1.0000
  C   C62       1.0  0.20298  0.25334  0.10715  1.0000
  C   C63       1.0  0.79702  0.75334  0.39285  1.0000
  C   C64       1.0  0.70298  0.24666  0.89285  1.0000
  C   C65       1.0  0.24666  0.89285  0.70298  1.0000
  C   C66       1.0  0.75334  0.39285  0.79702  1.0000
  C   C67       1.0  0.25334  0.10715  0.20298  1.0000
  C   C68       1.0  0.74666  0.60715  0.29702  1.0000
  C   C69       1.0  0.39285  0.79702  0.75334  1.0000
  C   C70       1.0  0.89285  0.70298  0.24666  1.0000
  C   C71       1.0  0.60715  0.29702  0.74666  1.0000
  C   C72       1.0  0.10715  0.20298  0.25334  1.0000
  O   O73       1.0  0.68693  0.71687  0.58526  1.0000
  O   O74       1.0  0.81307  0.28313  0.08526  1.0000
  O   O75       1.0  0.31307  0.21687  0.91474  1.0000
  O   O76       1.0  0.18693  0.78313  0.41474  1.0000
  O   O77       1.0  0.58526  0.68693  0.71687  1.0000
  O   O78       1.0  0.08526  0.81307  0.28313  1.0000
  O   O79       1.0  0.91474  0.31307  0.21687  1.0000
  O   O80       1.0  0.41474  0.18693  0.78313  1.0000
  O   O81       1.0  0.71687  0.58526  0.68693  1.0000
  O   O82       1.0  0.28313  0.08526  0.81307  1.0000
  O   O83       1.0  0.21687  0.91474  0.31307  1.0000
  O   O84       1.0  0.78313  0.41474  0.18693  1.0000
  O   O85       1.0  0.46687  0.93693  0.66474  1.0000
  O   O86       1.0  0.03313  0.06307  0.16474  1.0000
  O   O87       1.0  0.96687  0.56307  0.33526  1.0000
  O   O88       1.0  0.53313  0.43693  0.83526  1.0000
  O   O89       1.0  0.43693  0.83526  0.53313  1.0000
  O   O90       1.0  0.56307  0.33526  0.96687  1.0000
  O   O91       1.0  0.06307  0.16474  0.03313  1.0000
  O   O92       1.0  0.93693  0.66474  0.46687  1.0000
  O   O93       1.0  0.33526  0.96687  0.56307  1.0000
  O   O94       1.0  0.83526  0.53313  0.43693  1.0000
  O   O95       1.0  0.66474  0.46687  0.93693  1.0000
  O   O96       1.0  0.16474  0.03313  0.06307  1.0000
  O   O97       1.0  0.60468  0.77804  0.63683  1.0000
  O   O98       1.0  0.89532  0.22196  0.13683  1.0000
  O   O99       1.0  0.39532  0.27804  0.86317  1.0000
  O   O100      1.0  0.10468  0.72196  0.36317  1.0000
  O   O101      1.0  0.63683  0.60468  0.77804  1.0000
  O   O102      1.0  0.13683  0.89532  0.22196  1.0000
  O   O103      1.0  0.86317  0.39532  0.27804  1.0000
  O   O104      1.0  0.36317  0.10468  0.72196  1.0000
  O   O105      1.0  0.77804  0.63683  0.60468  1.0000
  O   O106      1.0  0.22196  0.13683  0.89532  1.0000
  O   O107      1.0  0.27804  0.86317  0.39532  1.0000
  O   O108      1.0  0.72196  0.36317  0.10468  1.0000
  O   O109      1.0  0.52804  0.85468  0.61317  1.0000
  O   O110      1.0  0.97196  0.14532  0.11317  1.0000
  O   O111      1.0  0.02804  0.64532  0.38683  1.0000
  O   O112      1.0  0.47196  0.35468  0.88683  1.0000
  O   O113      1.0  0.35468  0.88683  0.47196  1.0000
  O   O114      1.0  0.64532  0.38683  0.02804  1.0000
  O   O115      1.0  0.14532  0.11317  0.97196  1.0000
  O   O116      1.0  0.85468  0.61317  0.52804  1.0000
  O   O117      1.0  0.38683  0.02804  0.64532  1.0000
  O   O118      1.0  0.88683  0.47196  0.35468  1.0000
  O   O119      1.0  0.61317  0.52804  0.85468  1.0000
  O   O120      1.0  0.11317  0.97196  0.14532  1.0000
  O   O121      1.0  0.63403  0.78980  0.53996  1.0000
  O   O122      1.0  0.86597  0.21020  0.03996  1.0000
  O   O123      1.0  0.36597  0.28980  0.96004  1.0000
  O   O124      1.0  0.13403  0.71020  0.46004  1.0000
  O   O125      1.0  0.53996  0.63403  0.78980  1.0000
  O   O126      1.0  0.03996  0.86597  0.21020  1.0000
  O   O127      1.0  0.96004  0.36597  0.28980  1.0000
  O   O128      1.0  0.46004  0.13403  0.71020  1.0000
  O   O129      1.0  0.78980  0.53996  0.63403  1.0000
  O   O130      1.0  0.21020  0.03996  0.86597  1.0000
  O   O131      1.0  0.28980  0.96004  0.36597  1.0000
  O   O132      1.0  0.71020  0.46004  0.13403  1.0000
  O   O133      1.0  0.53980  0.88403  0.71004  1.0000
  O   O134      1.0  0.96020  0.11597  0.21004  1.0000
  O   O135      1.0  0.03980  0.61597  0.28996  1.0000
  O   O136      1.0  0.46020  0.38403  0.78996  1.0000
  O   O137      1.0  0.38403  0.78996  0.46020  1.0000
  O   O138      1.0  0.61597  0.28996  0.03980  1.0000
  O   O139      1.0  0.11597  0.21004  0.96020  1.0000
  O   O140      1.0  0.88403  0.71004  0.53980  1.0000
  O   O141      1.0  0.28996  0.03980  0.61597  1.0000
  O   O142      1.0  0.78996  0.46020  0.38403  1.0000
  O   O143      1.0  0.71004  0.53980  0.88403  1.0000
  O   O144      1.0  0.21004  0.96020  0.11597  1.0000
  C   C73       1.0  0.60240  0.76030  0.68180  1.0000
  C   C74       1.0  0.89760  0.23970  0.18180  1.0000
  C   C75       1.0  0.39760  0.26030  0.81820  1.0000
  C   C76       1.0  0.10240  0.73970  0.31820  1.0000
  C   C77       1.0  0.68180  0.60240  0.76030  1.0000
  C   C78       1.0  0.18180  0.89760  0.23970  1.0000
  C   C79       1.0  0.81820  0.39760  0.26030  1.0000
  C   C80       1.0  0.31820  0.10240  0.73970  1.0000
  C   C81       1.0  0.76030  0.68180  0.60240  1.0000
  C   C82       1.0  0.23970  0.18180  0.89760  1.0000
  C   C83       1.0  0.26030  0.81820  0.39760  1.0000
  C   C84       1.0  0.73970  0.31820  0.10240  1.0000
  C   C85       1.0  0.51030  0.85240  0.56820  1.0000
  C   C86       1.0  0.98970  0.14760  0.06820  1.0000
  C   C87       1.0  0.01030  0.64760  0.43180  1.0000
  C   C88       1.0  0.48970  0.35240  0.93180  1.0000
  C   C89       1.0  0.35240  0.93180  0.48970  1.0000
  C   C90       1.0  0.64760  0.43180  0.01030  1.0000
  C   C91       1.0  0.14760  0.06820  0.98970  1.0000
  C   C92       1.0  0.85240  0.56820  0.51030  1.0000
  C   C93       1.0  0.43180  0.01030  0.64760  1.0000
  C   C94       1.0  0.93180  0.48970  0.35240  1.0000
  C   C95       1.0  0.56820  0.51030  0.85240  1.0000
  C   C96       1.0  0.06820  0.98970  0.14760  1.0000
  C   C97       1.0  0.49124  0.54606  0.59492  1.0000
  C   C98       1.0  0.00876  0.45394  0.09492  1.0000
  C   C99       1.0  0.50876  0.04606  0.90508  1.0000
  C   C100      1.0  0.99124  0.95394  0.40508  1.0000
  C   C101      1.0  0.59492  0.49124  0.54606  1.0000
  C   C102      1.0  0.09492  0.00876  0.45394  1.0000
  C   C103      1.0  0.90508  0.50876  0.04606  1.0000
  C   C104      1.0  0.40508  0.99124  0.95394  1.0000
  C   C105      1.0  0.54606  0.59492  0.49124  1.0000
  C   C106      1.0  0.45394  0.09492  0.00876  1.0000
  C   C107      1.0  0.04606  0.90508  0.50876  1.0000
  C   C108      1.0  0.95394  0.40508  0.99124  1.0000
  C   C109      1.0  0.29606  0.74124  0.65508  1.0000
  C   C110      1.0  0.20394  0.25876  0.15508  1.0000
  C   C111      1.0  0.79606  0.75876  0.34492  1.0000
  C   C112      1.0  0.70394  0.24124  0.84492  1.0000
  C   C113      1.0  0.24124  0.84492  0.70394  1.0000
  C   C114      1.0  0.75876  0.34492  0.79606  1.0000
  C   C115      1.0  0.25876  0.15508  0.20394  1.0000
  C   C116      1.0  0.74124  0.65508  0.29606  1.0000
  C   C117      1.0  0.34492  0.79606  0.75876  1.0000
  C   C118      1.0  0.84492  0.70394  0.24124  1.0000
  C   C119      1.0  0.65508  0.29606  0.74124  1.0000
  C   C120      1.0  0.15508  0.20394  0.25876  1.0000
  C   C121      1.0  0.46856  0.51957  0.67085  1.0000
  C   C122      1.0  0.03144  0.48043  0.17085  1.0000
  C   C123      1.0  0.53144  0.01957  0.82915  1.0000
  C   C124      1.0  0.96856  0.98043  0.32915  1.0000
  C   C125      1.0  0.67085  0.46856  0.51957  1.0000
  C   C126      1.0  0.17085  0.03144  0.48043  1.0000
  C   C127      1.0  0.82915  0.53144  0.01957  1.0000
  C   C128      1.0  0.32915  0.96856  0.98043  1.0000
  C   C129      1.0  0.51957  0.67085  0.46856  1.0000
  C   C130      1.0  0.48043  0.17085  0.03144  1.0000
  C   C131      1.0  0.01957  0.82915  0.53144  1.0000
  C   C132      1.0  0.98043  0.32915  0.96856  1.0000
  C   C133      1.0  0.26957  0.71856  0.57915  1.0000
  C   C134      1.0  0.23043  0.28144  0.07915  1.0000
  C   C135      1.0  0.76957  0.78144  0.42085  1.0000
  C   C136      1.0  0.73043  0.21856  0.92085  1.0000
  C   C137      1.0  0.21856  0.92085  0.73043  1.0000
  C   C138      1.0  0.78144  0.42085  0.76957  1.0000
  C   C139      1.0  0.28144  0.07915  0.23043  1.0000
  C   C140      1.0  0.71856  0.57915  0.26957  1.0000
  C   C141      1.0  0.42085  0.76957  0.78144  1.0000
  C   C142      1.0  0.92085  0.73043  0.21856  1.0000
  C   C143      1.0  0.57915  0.26957  0.71856  1.0000
  C   C144      1.0  0.07915  0.23043  0.28144  1.0000
  Zn  Zn33      1.0  0.84131  0.62500  0.59131  1.0000
  Zn  Zn34      1.0  0.65869  0.37500  0.09131  1.0000
  Zn  Zn35      1.0  0.15869  0.12500  0.90869  1.0000
  Zn  Zn36      1.0  0.34131  0.87500  0.40869  1.0000
  Zn  Zn37      1.0  0.59131  0.84131  0.62500  1.0000
  Zn  Zn38      1.0  0.09131  0.65869  0.37500  1.0000
  Zn  Zn39      1.0  0.90869  0.15869  0.12500  1.0000
  Zn  Zn40      1.0  0.40869  0.34131  0.87500  1.0000
  Zn  Zn41      1.0  0.62500  0.59131  0.84131  1.0000
  Zn  Zn42      1.0  0.37500  0.09131  0.65869  1.0000
  Zn  Zn43      1.0  0.12500  0.90869  0.15869  1.0000
  Zn  Zn44      1.0  0.87500  0.40869  0.34131  1.0000
  C   C145      1.0  0.64050  0.83240  0.54060  1.0000
  C   C146      1.0  0.85950  0.16760  0.04060  1.0000
  C   C147      1.0  0.35950  0.33240  0.95940  1.0000
  C   C148      1.0  0.14050  0.66760  0.45940  1.0000
  C   C149      1.0  0.54060  0.64050  0.83240  1.0000
  C   C150      1.0  0.04060  0.85950  0.16760  1.0000
  C   C151      1.0  0.95940  0.35950  0.33240  1.0000
  C   C152      1.0  0.45940  0.14050  0.66760  1.0000
  C   C153      1.0  0.83240  0.54060  0.64050  1.0000
  C   C154      1.0  0.16760  0.04060  0.85950  1.0000
  C   C155      1.0  0.33240  0.95940  0.35950  1.0000
  C   C156      1.0  0.66760  0.45940  0.14050  1.0000
  C   C157      1.0  0.58240  0.89050  0.70940  1.0000
  C   C158      1.0  0.91760  0.10950  0.20940  1.0000
  C   C159      1.0  0.08240  0.60950  0.29060  1.0000
  C   C160      1.0  0.41760  0.39050  0.79060  1.0000
  C   C161      1.0  0.39050  0.79060  0.41760  1.0000
  C   C162      1.0  0.60950  0.29060  0.08240  1.0000
  C   C163      1.0  0.10950  0.20940  0.91760  1.0000
  C   C164      1.0  0.89050  0.70940  0.58240  1.0000
  C   C165      1.0  0.29060  0.08240  0.60950  1.0000
  C   C166      1.0  0.79060  0.41760  0.39050  1.0000
  C   C167      1.0  0.70940  0.58240  0.89050  1.0000
  C   C168      1.0  0.20940  0.91760  0.10950  1.0000
  H   H1        1.0  0.57576  0.77389  0.69804  1.0000
  H   H2        1.0  0.92424  0.22611  0.19804  1.0000
  H   H3        1.0  0.42424  0.27389  0.80196  1.0000
  H   H4        1.0  0.07576  0.72611  0.30196  1.0000
  H   H5        1.0  0.69804  0.57576  0.77389  1.0000
  H   H6        1.0  0.19804  0.92424  0.22611  1.0000
  H   H7        1.0  0.80196  0.42424  0.27389  1.0000
  H   H8        1.0  0.30196  0.07576  0.72611  1.0000
  H   H9        1.0  0.77389  0.69804  0.57576  1.0000
  H   H10       1.0  0.22611  0.19804  0.92424  1.0000
  H   H11       1.0  0.27389  0.80196  0.42424  1.0000
  H   H12       1.0  0.72611  0.30196  0.07576  1.0000
  H   H13       1.0  0.52389  0.82576  0.55196  1.0000
  H   H14       1.0  0.97611  0.17424  0.05196  1.0000
  H   H15       1.0  0.02389  0.67424  0.44804  1.0000
  H   H16       1.0  0.47611  0.32576  0.94804  1.0000
  H   H17       1.0  0.32576  0.94804  0.47611  1.0000
  H   H18       1.0  0.67424  0.44804  0.02389  1.0000
  H   H19       1.0  0.17424  0.05196  0.97611  1.0000
  H   H20       1.0  0.82576  0.55196  0.52389  1.0000
  H   H21       1.0  0.44804  0.02389  0.67424  1.0000
  H   H22       1.0  0.94804  0.47611  0.32576  1.0000
  H   H23       1.0  0.55196  0.52389  0.82576  1.0000
  H   H24       1.0  0.05196  0.97611  0.17424  1.0000
  C   C169      1.0  0.64670  0.77140  0.70840  1.0000
  C   C170      1.0  0.85330  0.22860  0.20840  1.0000
  C   C171      1.0  0.35330  0.27140  0.79160  1.0000
  C   C172      1.0  0.14670  0.72860  0.29160  1.0000
  C   C173      1.0  0.70840  0.64670  0.77140  1.0000
  C   C174      1.0  0.20840  0.85330  0.22860  1.0000
  C   C175      1.0  0.79160  0.35330  0.27140  1.0000
  C   C176      1.0  0.29160  0.14670  0.72860  1.0000
  C   C177      1.0  0.77140  0.70840  0.64670  1.0000
  C   C178      1.0  0.22860  0.20840  0.85330  1.0000
  C   C179      1.0  0.27140  0.79160  0.35330  1.0000
  C   C180      1.0  0.72860  0.29160  0.14670  1.0000
  C   C181      1.0  0.52140  0.89670  0.54160  1.0000
  C   C182      1.0  0.97860  0.10330  0.04160  1.0000
  C   C183      1.0  0.02140  0.60330  0.45840  1.0000
  C   C184      1.0  0.47860  0.39670  0.95840  1.0000
  C   C185      1.0  0.39670  0.95840  0.47860  1.0000
  C   C186      1.0  0.60330  0.45840  0.02140  1.0000
  C   C187      1.0  0.10330  0.04160  0.97860  1.0000
  C   C188      1.0  0.89670  0.54160  0.52140  1.0000
  C   C189      1.0  0.45840  0.02140  0.60330  1.0000
  C   C190      1.0  0.95840  0.47860  0.39670  1.0000
  C   C191      1.0  0.54160  0.52140  0.89670  1.0000
  C   C192      1.0  0.04160  0.97860  0.10330  1.0000
  H   H25       1.0  0.51004  0.56442  0.57618  1.0000
  H   H26       1.0  0.98996  0.43558  0.07618  1.0000
  H   H27       1.0  0.48996  0.06442  0.92382  1.0000
  H   H28       1.0  0.01004  0.93558  0.42382  1.0000
  H   H29       1.0  0.57618  0.51004  0.56442  1.0000
  H   H30       1.0  0.07618  0.98996  0.43558  1.0000
  H   H31       1.0  0.92382  0.48996  0.06442  1.0000
  H   H32       1.0  0.42382  0.01004  0.93558  1.0000
  H   H33       1.0  0.56442  0.57618  0.51004  1.0000
  H   H34       1.0  0.43558  0.07618  0.98996  1.0000
  H   H35       1.0  0.06442  0.92382  0.48996  1.0000
  H   H36       1.0  0.93558  0.42382  0.01004  1.0000
  H   H37       1.0  0.31442  0.76004  0.67382  1.0000
  H   H38       1.0  0.18558  0.23996  0.17382  1.0000
  H   H39       1.0  0.81442  0.73996  0.32618  1.0000
  H   H40       1.0  0.68558  0.26004  0.82618  1.0000
  H   H41       1.0  0.26004  0.82618  0.68558  1.0000
  H   H42       1.0  0.73996  0.32618  0.81442  1.0000
  H   H43       1.0  0.23996  0.17382  0.18558  1.0000
  H   H44       1.0  0.76004  0.67382  0.31442  1.0000
  H   H45       1.0  0.32618  0.81442  0.73996  1.0000
  H   H46       1.0  0.82618  0.68558  0.26004  1.0000
  H   H47       1.0  0.67382  0.31442  0.76004  1.0000
  H   H48       1.0  0.17382  0.18558  0.23996  1.0000
  C   C193      1.0  0.45772  0.51770  0.57500  1.0000
  C   C194      1.0  0.04228  0.48230  0.07500  1.0000
  C   C195      1.0  0.54228  0.01770  0.92500  1.0000
  C   C196      1.0  0.95772  0.98230  0.42500  1.0000
  C   C197      1.0  0.57500  0.45772  0.51770  1.0000
  C   C198      1.0  0.07500  0.04228  0.48230  1.0000
  C   C199      1.0  0.92500  0.54228  0.01770  1.0000
  C   C200      1.0  0.42500  0.95772  0.98230  1.0000
  C   C201      1.0  0.51770  0.57500  0.45772  1.0000
  C   C202      1.0  0.48230  0.07500  0.04228  1.0000
  C   C203      1.0  0.01770  0.92500  0.54228  1.0000
  C   C204      1.0  0.98230  0.42500  0.95772  1.0000
  C   C205      1.0  0.26770  0.70772  0.67500  1.0000
  C   C206      1.0  0.23230  0.29228  0.17500  1.0000
  C   C207      1.0  0.76770  0.79228  0.32500  1.0000
  C   C208      1.0  0.73230  0.20772  0.82500  1.0000
  C   C209      1.0  0.20772  0.82500  0.73230  1.0000
  C   C210      1.0  0.79228  0.32500  0.76770  1.0000
  C   C211      1.0  0.29228  0.17500  0.23230  1.0000
  C   C212      1.0  0.70772  0.67500  0.26770  1.0000
  C   C213      1.0  0.32500  0.76770  0.79228  1.0000
  C   C214      1.0  0.82500  0.73230  0.20772  1.0000
  C   C215      1.0  0.67500  0.26770  0.70772  1.0000
  C   C216      1.0  0.17500  0.23230  0.29228  1.0000
  C   C217      1.0  0.43504  0.49116  0.65093  1.0000
  C   C218      1.0  0.06496  0.50884  0.15093  1.0000
  C   C219      1.0  0.56496  0.99116  0.84907  1.0000
  C   C220      1.0  0.93504  0.00884  0.34907  1.0000
  C   C221      1.0  0.65093  0.43504  0.49116  1.0000
  C   C222      1.0  0.15093  0.06496  0.50884  1.0000
  C   C223      1.0  0.84907  0.56496  0.99116  1.0000
  C   C224      1.0  0.34907  0.93504  0.00884  1.0000
  C   C225      1.0  0.49116  0.65093  0.43504  1.0000
  C   C226      1.0  0.50884  0.15093  0.06496  1.0000
  C   C227      1.0  0.99116  0.84907  0.56496  1.0000
  C   C228      1.0  0.00884  0.34907  0.93504  1.0000
  C   C229      1.0  0.24116  0.68504  0.59907  1.0000
  C   C230      1.0  0.25884  0.31496  0.09907  1.0000
  C   C231      1.0  0.74116  0.81496  0.40093  1.0000
  C   C232      1.0  0.75884  0.18504  0.90093  1.0000
  C   C233      1.0  0.18504  0.90093  0.75884  1.0000
  C   C234      1.0  0.81496  0.40093  0.74116  1.0000
  C   C235      1.0  0.31496  0.09907  0.25884  1.0000
  C   C236      1.0  0.68504  0.59907  0.24116  1.0000
  C   C237      1.0  0.40093  0.74116  0.81496  1.0000
  C   C238      1.0  0.90093  0.75884  0.18504  1.0000
  C   C239      1.0  0.59907  0.24116  0.68504  1.0000
  C   C240      1.0  0.09907  0.25884  0.31496  1.0000
  H   H49       1.0  0.47219  0.52021  0.70292  1.0000
  H   H50       1.0  0.02781  0.47979  0.20292  1.0000
  H   H51       1.0  0.52781  0.02021  0.79708  1.0000
  H   H52       1.0  0.97219  0.97979  0.29708  1.0000
  H   H53       1.0  0.70292  0.47219  0.52021  1.0000
  H   H54       1.0  0.20292  0.02781  0.47979  1.0000
  H   H55       1.0  0.79708  0.52781  0.02021  1.0000
  H   H56       1.0  0.29708  0.97219  0.97979  1.0000
  H   H57       1.0  0.52021  0.70292  0.47219  1.0000
  H   H58       1.0  0.47979  0.20292  0.02781  1.0000
  H   H59       1.0  0.02021  0.79708  0.52781  1.0000
  H   H60       1.0  0.97979  0.29708  0.97219  1.0000
  H   H61       1.0  0.27021  0.72219  0.54708  1.0000
  H   H62       1.0  0.22979  0.27781  0.04708  1.0000
  H   H63       1.0  0.77021  0.77781  0.45292  1.0000
  H   H64       1.0  0.72979  0.22219  0.95292  1.0000
  H   H65       1.0  0.22219  0.95292  0.72979  1.0000
  H   H66       1.0  0.77781  0.45292  0.77021  1.0000
  H   H67       1.0  0.27781  0.04708  0.22979  1.0000
  H   H68       1.0  0.72219  0.54708  0.27021  1.0000
  H   H69       1.0  0.45292  0.77021  0.77781  1.0000
  H   H70       1.0  0.95292  0.72979  0.22219  1.0000
  H   H71       1.0  0.54708  0.27021  0.72219  1.0000
  H   H72       1.0  0.04708  0.22979  0.27781  1.0000
  O   O145      1.0  0.87763  0.67877  0.61014  1.0000
  O   O146      1.0  0.62237  0.32123  0.11014  1.0000
  O   O147      1.0  0.12237  0.17877  0.88986  1.0000
  O   O148      1.0  0.37763  0.82123  0.38986  1.0000
  O   O149      1.0  0.61014  0.87763  0.67877  1.0000
  O   O150      1.0  0.11014  0.62237  0.32123  1.0000
  O   O151      1.0  0.88986  0.12237  0.17877  1.0000
  O   O152      1.0  0.38986  0.37763  0.82123  1.0000
  O   O153      1.0  0.67877  0.61014  0.87763  1.0000
  O   O154      1.0  0.32123  0.11014  0.62237  1.0000
  O   O155      1.0  0.17877  0.88986  0.12237  1.0000
  O   O156      1.0  0.82123  0.38986  0.37763  1.0000
  O   O157      1.0  0.42877  0.12763  0.63986  1.0000
  O   O158      1.0  0.07123  0.87237  0.13986  1.0000
  O   O159      1.0  0.92877  0.37237  0.36014  1.0000
  O   O160      1.0  0.57123  0.62763  0.86014  1.0000
  O   O161      1.0  0.62763  0.86014  0.57123  1.0000
  O   O162      1.0  0.37237  0.36014  0.92877  1.0000
  O   O163      1.0  0.87237  0.13986  0.07123  1.0000
  O   O164      1.0  0.12763  0.63986  0.42877  1.0000
  O   O165      1.0  0.36014  0.92877  0.37237  1.0000
  O   O166      1.0  0.86014  0.57123  0.62763  1.0000
  O   O167      1.0  0.63986  0.42877  0.12763  1.0000
  O   O168      1.0  0.13986  0.07123  0.87237  1.0000
  C   C241      1.0  0.66332  0.85364  0.49904  1.0000
  C   C242      1.0  0.83668  0.14636  0.99904  1.0000
  C   C243      1.0  0.33668  0.35364  0.00096  1.0000
  C   C244      1.0  0.16332  0.64636  0.50096  1.0000
  C   C245      1.0  0.49904  0.66332  0.85364  1.0000
  C   C246      1.0  0.99904  0.83668  0.14636  1.0000
  C   C247      1.0  0.00096  0.33668  0.35364  1.0000
  C   C248      1.0  0.50096  0.16332  0.64636  1.0000
  C   C249      1.0  0.85364  0.49904  0.66332  1.0000
  C   C250      1.0  0.14636  0.99904  0.83668  1.0000
  C   C251      1.0  0.35364  0.00096  0.33668  1.0000
  C   C252      1.0  0.64636  0.50096  0.16332  1.0000
  C   C253      1.0  0.60364  0.91332  0.75096  1.0000
  C   C254      1.0  0.89636  0.08668  0.25096  1.0000
  C   C255      1.0  0.10364  0.58668  0.24904  1.0000
  C   C256      1.0  0.39636  0.41332  0.74904  1.0000
  C   C257      1.0  0.41332  0.74904  0.39636  1.0000
  C   C258      1.0  0.58668  0.24904  0.10364  1.0000
  C   C259      1.0  0.08668  0.25096  0.89636  1.0000
  C   C260      1.0  0.91332  0.75096  0.60364  1.0000
  C   C261      1.0  0.24904  0.10364  0.58668  1.0000
  C   C262      1.0  0.74904  0.39636  0.41332  1.0000
  C   C263      1.0  0.75096  0.60364  0.91332  1.0000
  C   C264      1.0  0.25096  0.89636  0.08668  1.0000
  H   H73       1.0  0.67005  0.74883  0.70098  1.0000
  H   H74       1.0  0.82995  0.25117  0.20098  1.0000
  H   H75       1.0  0.32995  0.24883  0.79902  1.0000
  H   H76       1.0  0.17005  0.75117  0.29902  1.0000
  H   H77       1.0  0.70098  0.67005  0.74883  1.0000
  H   H78       1.0  0.20098  0.82995  0.25117  1.0000
  H   H79       1.0  0.79902  0.32995  0.24883  1.0000
  H   H80       1.0  0.29902  0.17005  0.75117  1.0000
  H   H81       1.0  0.74883  0.70098  0.67005  1.0000
  H   H82       1.0  0.25117  0.20098  0.82995  1.0000
  H   H83       1.0  0.24883  0.79902  0.32995  1.0000
  H   H84       1.0  0.75117  0.29902  0.17005  1.0000
  H   H85       1.0  0.49883  0.92005  0.54902  1.0000
  H   H86       1.0  0.00117  0.07995  0.04902  1.0000
  H   H87       1.0  0.99883  0.57995  0.45098  1.0000
  H   H88       1.0  0.50117  0.42005  0.95098  1.0000
  H   H89       1.0  0.42005  0.95098  0.50117  1.0000
  H   H90       1.0  0.57995  0.45098  0.99883  1.0000
  H   H91       1.0  0.07995  0.04902  0.00117  1.0000
  H   H92       1.0  0.92005  0.54902  0.49883  1.0000
  H   H93       1.0  0.45098  0.99883  0.57995  1.0000
  H   H94       1.0  0.95098  0.50117  0.42005  1.0000
  H   H95       1.0  0.54902  0.49883  0.92005  1.0000
  H   H96       1.0  0.04902  0.00117  0.07995  1.0000
  H   H97       1.0  0.64048  0.77051  0.74117  1.0000
  H   H98       1.0  0.85952  0.22949  0.24117  1.0000
  H   H99       1.0  0.35952  0.27051  0.75883  1.0000
  H   H100      1.0  0.14048  0.72949  0.25883  1.0000
  H   H101      1.0  0.74117  0.64048  0.77051  1.0000
  H   H102      1.0  0.24117  0.85952  0.22949  1.0000
  H   H103      1.0  0.75883  0.35952  0.27051  1.0000
  H   H104      1.0  0.25883  0.14048  0.72949  1.0000
  H   H105      1.0  0.77051  0.74117  0.64048  1.0000
  H   H106      1.0  0.22949  0.24117  0.85952  1.0000
  H   H107      1.0  0.27051  0.75883  0.35952  1.0000
  H   H108      1.0  0.72949  0.25883  0.14048  1.0000
  H   H109      1.0  0.52051  0.89048  0.50883  1.0000
  H   H110      1.0  0.97949  0.10952  0.00883  1.0000
  H   H111      1.0  0.02051  0.60952  0.49117  1.0000
  H   H112      1.0  0.47949  0.39048  0.99117  1.0000
  H   H113      1.0  0.39048  0.99117  0.47949  1.0000
  H   H114      1.0  0.60952  0.49117  0.02051  1.0000
  H   H115      1.0  0.10952  0.00883  0.97949  1.0000
  H   H116      1.0  0.89048  0.50883  0.52051  1.0000
  H   H117      1.0  0.49117  0.02051  0.60952  1.0000
  H   H118      1.0  0.99117  0.47949  0.39048  1.0000
  H   H119      1.0  0.50883  0.52051  0.89048  1.0000
  H   H120      1.0  0.00883  0.97949  0.10952  1.0000
  H   H121      1.0  0.65743  0.80174  0.69997  1.0000
  H   H122      1.0  0.84257  0.19826  0.19997  1.0000
  H   H123      1.0  0.34257  0.30174  0.80003  1.0000
  H   H124      1.0  0.15743  0.69826  0.30003  1.0000
  H   H125      1.0  0.69997  0.65743  0.80174  1.0000
  H   H126      1.0  0.19997  0.84257  0.19826  1.0000
  H   H127      1.0  0.80003  0.34257  0.30174  1.0000
  H   H128      1.0  0.30003  0.15743  0.69826  1.0000
  H   H129      1.0  0.80174  0.69997  0.65743  1.0000
  H   H130      1.0  0.19826  0.19997  0.84257  1.0000
  H   H131      1.0  0.30174  0.80003  0.34257  1.0000
  H   H132      1.0  0.69826  0.30003  0.15743  1.0000
  H   H133      1.0  0.55174  0.90743  0.55003  1.0000
  H   H134      1.0  0.94826  0.09257  0.05003  1.0000
  H   H135      1.0  0.05174  0.59257  0.44997  1.0000
  H   H136      1.0  0.44826  0.40743  0.94997  1.0000
  H   H137      1.0  0.40743  0.94997  0.44826  1.0000
  H   H138      1.0  0.59257  0.44997  0.05174  1.0000
  H   H139      1.0  0.09257  0.05003  0.94826  1.0000
  H   H140      1.0  0.90743  0.55003  0.55174  1.0000
  H   H141      1.0  0.44997  0.05174  0.59257  1.0000
  H   H142      1.0  0.94997  0.44826  0.40743  1.0000
  H   H143      1.0  0.55003  0.55174  0.90743  1.0000
  H   H144      1.0  0.05003  0.94826  0.09257  1.0000
  H   H145      1.0  0.45409  0.51702  0.54293  1.0000
  H   H146      1.0  0.04591  0.48298  0.04293  1.0000
  H   H147      1.0  0.54591  0.01702  0.95707  1.0000
  H   H148      1.0  0.95409  0.98298  0.45707  1.0000
  H   H149      1.0  0.54293  0.45409  0.51702  1.0000
  H   H150      1.0  0.04293  0.04591  0.48298  1.0000
  H   H151      1.0  0.95707  0.54591  0.01702  1.0000
  H   H152      1.0  0.45707  0.95409  0.98298  1.0000
  H   H153      1.0  0.51702  0.54293  0.45409  1.0000
  H   H154      1.0  0.48298  0.04293  0.04591  1.0000
  H   H155      1.0  0.01702  0.95707  0.54591  1.0000
  H   H156      1.0  0.98298  0.45707  0.95409  1.0000
  H   H157      1.0  0.26702  0.70409  0.70707  1.0000
  H   H158      1.0  0.23298  0.29591  0.20707  1.0000
  H   H159      1.0  0.76702  0.79591  0.29293  1.0000
  H   H160      1.0  0.73298  0.20409  0.79293  1.0000
  H   H161      1.0  0.20409  0.79293  0.73298  1.0000
  H   H162      1.0  0.79591  0.29293  0.76702  1.0000
  H   H163      1.0  0.29591  0.20707  0.23298  1.0000
  H   H164      1.0  0.70409  0.70707  0.26702  1.0000
  H   H165      1.0  0.29293  0.76702  0.79591  1.0000
  H   H166      1.0  0.79293  0.73298  0.20409  1.0000
  H   H167      1.0  0.70707  0.26702  0.70409  1.0000
  H   H168      1.0  0.20707  0.23298  0.29591  1.0000
  C   C265      1.0  0.42962  0.49021  0.60300  1.0000
  C   C266      1.0  0.07038  0.50979  0.10300  1.0000
  C   C267      1.0  0.57038  0.99021  0.89700  1.0000
  C   C268      1.0  0.92962  0.00979  0.39700  1.0000
  C   C269      1.0  0.60300  0.42962  0.49021  1.0000
  C   C270      1.0  0.10300  0.07038  0.50979  1.0000
  C   C271      1.0  0.89700  0.57038  0.99021  1.0000
  C   C272      1.0  0.39700  0.92962  0.00979  1.0000
  C   C273      1.0  0.49021  0.60300  0.42962  1.0000
  C   C274      1.0  0.50979  0.10300  0.07038  1.0000
  C   C275      1.0  0.99021  0.89700  0.57038  1.0000
  C   C276      1.0  0.00979  0.39700  0.92962  1.0000
  C   C277      1.0  0.24021  0.67962  0.64700  1.0000
  C   C278      1.0  0.25979  0.32038  0.14700  1.0000
  C   C279      1.0  0.74021  0.82038  0.35300  1.0000
  C   C280      1.0  0.75979  0.17962  0.85300  1.0000
  C   C281      1.0  0.17962  0.85300  0.75979  1.0000
  C   C282      1.0  0.82038  0.35300  0.74021  1.0000
  C   C283      1.0  0.32038  0.14700  0.25979  1.0000
  C   C284      1.0  0.67962  0.64700  0.24021  1.0000
  C   C285      1.0  0.35300  0.74021  0.82038  1.0000
  C   C286      1.0  0.85300  0.75979  0.17962  1.0000
  C   C287      1.0  0.64700  0.24021  0.67962  1.0000
  C   C288      1.0  0.14700  0.25979  0.32038  1.0000
  C   C289      1.0  0.40474  0.46115  0.68104  1.0000
  C   C290      1.0  0.09526  0.53885  0.18104  1.0000
  C   C291      1.0  0.59526  0.96115  0.81896  1.0000
  C   C292      1.0  0.90474  0.03885  0.31896  1.0000
  C   C293      1.0  0.68104  0.40474  0.46115  1.0000
  C   C294      1.0  0.18104  0.09526  0.53885  1.0000
  C   C295      1.0  0.81896  0.59526  0.96115  1.0000
  C   C296      1.0  0.31896  0.90474  0.03885  1.0000
  C   C297      1.0  0.46115  0.68104  0.40474  1.0000
  C   C298      1.0  0.53885  0.18104  0.09526  1.0000
  C   C299      1.0  0.96115  0.81896  0.59526  1.0000
  C   C300      1.0  0.03885  0.31896  0.90474  1.0000
  C   C301      1.0  0.21115  0.65474  0.56896  1.0000
  C   C302      1.0  0.28885  0.34526  0.06896  1.0000
  C   C303      1.0  0.71115  0.84526  0.43104  1.0000
  C   C304      1.0  0.78885  0.15474  0.93104  1.0000
  C   C305      1.0  0.15474  0.93104  0.78885  1.0000
  C   C306      1.0  0.84526  0.43104  0.71115  1.0000
  C   C307      1.0  0.34526  0.06896  0.28885  1.0000
  C   C308      1.0  0.65474  0.56896  0.21115  1.0000
  C   C309      1.0  0.43104  0.71115  0.84526  1.0000
  C   C310      1.0  0.93104  0.78885  0.15474  1.0000
  C   C311      1.0  0.56896  0.21115  0.65474  1.0000
  C   C312      1.0  0.06896  0.28885  0.34526  1.0000
  C   C313      1.0  0.68920  0.82580  0.46934  1.0000
  C   C314      1.0  0.81080  0.17420  0.96934  1.0000
  C   C315      1.0  0.31080  0.32580  0.03066  1.0000
  C   C316      1.0  0.18920  0.67420  0.53066  1.0000
  C   C317      1.0  0.46934  0.68920  0.82580  1.0000
  C   C318      1.0  0.96934  0.81080  0.17420  1.0000
  C   C319      1.0  0.03066  0.31080  0.32580  1.0000
  C   C320      1.0  0.53066  0.18920  0.67420  1.0000
  C   C321      1.0  0.82580  0.46934  0.68920  1.0000
  C   C322      1.0  0.17420  0.96934  0.81080  1.0000
  C   C323      1.0  0.32580  0.03066  0.31080  1.0000
  C   C324      1.0  0.67420  0.53066  0.18920  1.0000
  C   C325      1.0  0.57580  0.93920  0.78066  1.0000
  C   C326      1.0  0.92420  0.06080  0.28066  1.0000
  C   C327      1.0  0.07580  0.56080  0.21934  1.0000
  C   C328      1.0  0.42420  0.43920  0.71934  1.0000
  C   C329      1.0  0.43920  0.71934  0.42420  1.0000
  C   C330      1.0  0.56080  0.21934  0.07580  1.0000
  C   C331      1.0  0.06080  0.28066  0.92420  1.0000
  C   C332      1.0  0.93920  0.78066  0.57580  1.0000
  C   C333      1.0  0.21934  0.07580  0.56080  1.0000
  C   C334      1.0  0.71934  0.42420  0.43920  1.0000
  C   C335      1.0  0.78066  0.57580  0.93920  1.0000
  C   C336      1.0  0.28066  0.92420  0.06080  1.0000
  C   C337      1.0  0.65940  0.90095  0.49040  1.0000
  C   C338      1.0  0.84060  0.09905  0.99040  1.0000
  C   C339      1.0  0.34060  0.40095  0.00960  1.0000
  C   C340      1.0  0.15940  0.59905  0.50960  1.0000
  C   C341      1.0  0.49040  0.65940  0.90095  1.0000
  C   C342      1.0  0.99040  0.84060  0.09905  1.0000
  C   C343      1.0  0.00960  0.34060  0.40095  1.0000
  C   C344      1.0  0.50960  0.15940  0.59905  1.0000
  C   C345      1.0  0.90095  0.49040  0.65940  1.0000
  C   C346      1.0  0.09905  0.99040  0.84060  1.0000
  C   C347      1.0  0.40095  0.00960  0.34060  1.0000
  C   C348      1.0  0.59905  0.50960  0.15940  1.0000
  C   C349      1.0  0.65095  0.90940  0.75960  1.0000
  C   C350      1.0  0.84905  0.09060  0.25960  1.0000
  C   C351      1.0  0.15095  0.59060  0.24040  1.0000
  C   C352      1.0  0.34905  0.40940  0.74040  1.0000
  C   C353      1.0  0.40940  0.74040  0.34905  1.0000
  C   C354      1.0  0.59060  0.24040  0.15095  1.0000
  C   C355      1.0  0.09060  0.25960  0.84905  1.0000
  C   C356      1.0  0.90940  0.75960  0.65095  1.0000
  C   C357      1.0  0.24040  0.15095  0.59060  1.0000
  C   C358      1.0  0.74040  0.34905  0.40940  1.0000
  C   C359      1.0  0.75960  0.65095  0.90940  1.0000
  C   C360      1.0  0.25960  0.84905  0.09060  1.0000
  H   H169      1.0  0.40719  0.47120  0.58968  1.0000
  H   H170      1.0  0.09281  0.52880  0.08968  1.0000
  H   H171      1.0  0.59281  0.97120  0.91032  1.0000
  H   H172      1.0  0.90719  0.02880  0.41032  1.0000
  H   H173      1.0  0.58968  0.40719  0.47120  1.0000
  H   H174      1.0  0.08968  0.09281  0.52880  1.0000
  H   H175      1.0  0.91032  0.59281  0.97120  1.0000
  H   H176      1.0  0.41032  0.90719  0.02880  1.0000
  H   H177      1.0  0.47120  0.58968  0.40719  1.0000
  H   H178      1.0  0.52880  0.08968  0.09281  1.0000
  H   H179      1.0  0.97120  0.91032  0.59281  1.0000
  H   H180      1.0  0.02880  0.41032  0.90719  1.0000
  H   H181      1.0  0.22120  0.65719  0.66032  1.0000
  H   H182      1.0  0.27880  0.34281  0.16032  1.0000
  H   H183      1.0  0.72120  0.84281  0.33968  1.0000
  H   H184      1.0  0.77880  0.15719  0.83968  1.0000
  H   H185      1.0  0.15719  0.83968  0.77880  1.0000
  H   H186      1.0  0.84281  0.33968  0.72120  1.0000
  H   H187      1.0  0.34281  0.16032  0.27880  1.0000
  H   H188      1.0  0.65719  0.66032  0.22120  1.0000
  H   H189      1.0  0.33968  0.72120  0.84281  1.0000
  H   H190      1.0  0.83968  0.77880  0.15719  1.0000
  H   H191      1.0  0.66032  0.22120  0.65719  1.0000
  H   H192      1.0  0.16032  0.27880  0.34281  1.0000
  C   C361      1.0  0.35744  0.45720  0.67244  1.0000
  C   C362      1.0  0.14256  0.54280  0.17244  1.0000
  C   C363      1.0  0.64256  0.95720  0.82756  1.0000
  C   C364      1.0  0.85744  0.04280  0.32756  1.0000
  C   C365      1.0  0.67244  0.35744  0.45720  1.0000
  C   C366      1.0  0.17244  0.14256  0.54280  1.0000
  C   C367      1.0  0.82756  0.64256  0.95720  1.0000
  C   C368      1.0  0.32756  0.85744  0.04280  1.0000
  C   C369      1.0  0.45720  0.67244  0.35744  1.0000
  C   C370      1.0  0.54280  0.17244  0.14256  1.0000
  C   C371      1.0  0.95720  0.82756  0.64256  1.0000
  C   C372      1.0  0.04280  0.32756  0.85744  1.0000
  C   C373      1.0  0.20720  0.60744  0.57756  1.0000
  C   C374      1.0  0.29280  0.39256  0.07756  1.0000
  C   C375      1.0  0.70720  0.89256  0.42244  1.0000
  C   C376      1.0  0.79280  0.10744  0.92244  1.0000
  C   C377      1.0  0.10744  0.92244  0.79280  1.0000
  C   C378      1.0  0.89256  0.42244  0.70720  1.0000
  C   C379      1.0  0.39256  0.07756  0.29280  1.0000
  C   C380      1.0  0.60744  0.57756  0.20720  1.0000
  C   C381      1.0  0.42244  0.70720  0.89256  1.0000
  C   C382      1.0  0.92244  0.79280  0.10744  1.0000
  C   C383      1.0  0.57756  0.20720  0.60744  1.0000
  C   C384      1.0  0.07756  0.29280  0.39256  1.0000
  H   H193      1.0  0.69183  0.79415  0.47510  1.0000
  H   H194      1.0  0.80817  0.20585  0.97510  1.0000
  H   H195      1.0  0.30817  0.29415  0.02490  1.0000
  H   H196      1.0  0.19183  0.70585  0.52490  1.0000
  H   H197      1.0  0.47510  0.69183  0.79415  1.0000
  H   H198      1.0  0.97510  0.80817  0.20585  1.0000
  H   H199      1.0  0.02490  0.30817  0.29415  1.0000
  H   H200      1.0  0.52490  0.19183  0.70585  1.0000
  H   H201      1.0  0.79415  0.47510  0.69183  1.0000
  H   H202      1.0  0.20585  0.97510  0.80817  1.0000
  H   H203      1.0  0.29415  0.02490  0.30817  1.0000
  H   H204      1.0  0.70585  0.52490  0.19183  1.0000
  H   H205      1.0  0.54415  0.94183  0.77490  1.0000
  H   H206      1.0  0.95585  0.05817  0.27490  1.0000
  H   H207      1.0  0.04415  0.55817  0.22510  1.0000
  H   H208      1.0  0.45585  0.44183  0.72510  1.0000
  H   H209      1.0  0.44183  0.72510  0.45585  1.0000
  H   H210      1.0  0.55817  0.22510  0.04415  1.0000
  H   H211      1.0  0.05817  0.27490  0.95585  1.0000
  H   H212      1.0  0.94183  0.77490  0.54415  1.0000
  H   H213      1.0  0.22510  0.04415  0.55817  1.0000
  H   H214      1.0  0.72510  0.45585  0.44183  1.0000
  H   H215      1.0  0.77490  0.54415  0.94183  1.0000
  H   H216      1.0  0.27490  0.95585  0.05817  1.0000
  C   C385      1.0  0.68130  0.92040  0.45210  1.0000
  C   C386      1.0  0.81870  0.07960  0.95210  1.0000
  C   C387      1.0  0.31870  0.42040  0.04790  1.0000
  C   C388      1.0  0.18130  0.57960  0.54790  1.0000
  C   C389      1.0  0.45210  0.68130  0.92040  1.0000
  C   C390      1.0  0.95210  0.81870  0.07960  1.0000
  C   C391      1.0  0.04790  0.31870  0.42040  1.0000
  C   C392      1.0  0.54790  0.18130  0.57960  1.0000
  C   C393      1.0  0.92040  0.45210  0.68130  1.0000
  C   C394      1.0  0.07960  0.95210  0.81870  1.0000
  C   C395      1.0  0.42040  0.04790  0.31870  1.0000
  C   C396      1.0  0.57960  0.54790  0.18130  1.0000
  C   C397      1.0  0.67040  0.93130  0.79790  1.0000
  C   C398      1.0  0.82960  0.06870  0.29790  1.0000
  C   C399      1.0  0.17040  0.56870  0.20210  1.0000
  C   C400      1.0  0.32960  0.43130  0.70210  1.0000
  C   C401      1.0  0.43130  0.70210  0.32960  1.0000
  C   C402      1.0  0.56870  0.20210  0.17040  1.0000
  C   C403      1.0  0.06870  0.29790  0.82960  1.0000
  C   C404      1.0  0.93130  0.79790  0.67040  1.0000
  C   C405      1.0  0.20210  0.17040  0.56870  1.0000
  C   C406      1.0  0.70210  0.32960  0.43130  1.0000
  C   C407      1.0  0.79790  0.67040  0.93130  1.0000
  C   C408      1.0  0.29790  0.82960  0.06870  1.0000
  H   H217      1.0  0.64206  0.91958  0.51030  1.0000
  H   H218      1.0  0.85794  0.08042  0.01030  1.0000
  H   H219      1.0  0.35794  0.41958  0.98970  1.0000
  H   H220      1.0  0.14206  0.58042  0.48970  1.0000
  H   H221      1.0  0.51030  0.64206  0.91958  1.0000
  H   H222      1.0  0.01030  0.85794  0.08042  1.0000
  H   H223      1.0  0.98970  0.35794  0.41958  1.0000
  H   H224      1.0  0.48970  0.14206  0.58042  1.0000
  H   H225      1.0  0.91958  0.51030  0.64206  1.0000
  H   H226      1.0  0.08042  0.01030  0.85794  1.0000
  H   H227      1.0  0.41958  0.98970  0.35794  1.0000
  H   H228      1.0  0.58042  0.48970  0.14206  1.0000
  H   H229      1.0  0.66958  0.89206  0.73970  1.0000
  H   H230      1.0  0.83042  0.10794  0.23970  1.0000
  H   H231      1.0  0.16958  0.60794  0.26030  1.0000
  H   H232      1.0  0.33042  0.39206  0.76030  1.0000
  H   H233      1.0  0.39206  0.76030  0.33042  1.0000
  H   H234      1.0  0.60794  0.26030  0.16958  1.0000
  H   H235      1.0  0.10794  0.23970  0.83042  1.0000
  H   H236      1.0  0.89206  0.73970  0.66958  1.0000
  H   H237      1.0  0.26030  0.16958  0.60794  1.0000
  H   H238      1.0  0.76030  0.33042  0.39206  1.0000
  H   H239      1.0  0.73970  0.66958  0.89206  1.0000
  H   H240      1.0  0.23970  0.83042  0.10794  1.0000
  H   H241      1.0  0.34441  0.47189  0.64681  1.0000
  H   H242      1.0  0.15559  0.52811  0.14681  1.0000
  H   H243      1.0  0.65559  0.97189  0.85319  1.0000
  H   H244      1.0  0.84441  0.02811  0.35319  1.0000
  H   H245      1.0  0.64681  0.34441  0.47189  1.0000
  H   H246      1.0  0.14681  0.15559  0.52811  1.0000
  H   H247      1.0  0.85319  0.65559  0.97189  1.0000
  H   H248      1.0  0.35319  0.84441  0.02811  1.0000
  H   H249      1.0  0.47189  0.64681  0.34441  1.0000
  H   H250      1.0  0.52811  0.14681  0.15559  1.0000
  H   H251      1.0  0.97189  0.85319  0.65559  1.0000
  H   H252      1.0  0.02811  0.35319  0.84441  1.0000
  H   H253      1.0  0.22189  0.59441  0.60319  1.0000
  H   H254      1.0  0.27811  0.40559  0.10319  1.0000
  H   H255      1.0  0.72189  0.90559  0.39681  1.0000
  H   H256      1.0  0.77811  0.09441  0.89681  1.0000
  H   H257      1.0  0.09441  0.89681  0.77811  1.0000
  H   H258      1.0  0.90559  0.39681  0.72189  1.0000
  H   H259      1.0  0.40559  0.10319  0.27811  1.0000
  H   H260      1.0  0.59441  0.60319  0.22189  1.0000
  H   H261      1.0  0.39681  0.72189  0.90559  1.0000
  H   H262      1.0  0.89681  0.77811  0.09441  1.0000
  H   H263      1.0  0.60319  0.22189  0.59441  1.0000
  H   H264      1.0  0.10319  0.27811  0.40559  1.0000
  H   H265      1.0  0.67869  0.95206  0.44638  1.0000
  H   H266      1.0  0.82131  0.04794  0.94638  1.0000
  H   H267      1.0  0.32131  0.45206  0.05362  1.0000
  H   H268      1.0  0.17869  0.54794  0.55362  1.0000
  H   H269      1.0  0.44638  0.67869  0.95206  1.0000
  H   H270      1.0  0.94638  0.82131  0.04794  1.0000
  H   H271      1.0  0.05362  0.32131  0.45206  1.0000
  H   H272      1.0  0.55362  0.17869  0.54794  1.0000
  H   H273      1.0  0.95206  0.44638  0.67869  1.0000
  H   H274      1.0  0.04794  0.94638  0.82131  1.0000
  H   H275      1.0  0.45206  0.05362  0.32131  1.0000
  H   H276      1.0  0.54794  0.55362  0.17869  1.0000
  H   H277      1.0  0.70206  0.92869  0.80362  1.0000
  H   H278      1.0  0.79794  0.07131  0.30362  1.0000
  H   H279      1.0  0.20206  0.57131  0.19638  1.0000
  H   H280      1.0  0.29794  0.42869  0.69638  1.0000
  H   H281      1.0  0.42869  0.69638  0.29794  1.0000
  H   H282      1.0  0.57131  0.19638  0.20206  1.0000
  H   H283      1.0  0.07131  0.30362  0.79794  1.0000
  H   H284      1.0  0.92869  0.80362  0.70206  1.0000
  H   H285      1.0  0.19638  0.20206  0.57131  1.0000
  H   H286      1.0  0.69638  0.29794  0.42869  1.0000
  H   H287      1.0  0.80362  0.70206  0.92869  1.0000
  H   H288      1.0  0.30362  0.79794  0.07131  1.0000
