data_image0
_chemical_formula_structural       U8O64C12H4C4H4C4H4C4H4C4H8C20H4C4H4C4H4C4H4C4H8C20H4C4H4C4H4C4H4C4H8C8
_chemical_formula_sum              "U8 O64 C108 H72"
_cell_length_a       12.2376
_cell_length_b       32.4606
_cell_length_c       14.2062
_cell_angle_alpha    90
_cell_angle_beta     97.5541
_cell_angle_gamma    90

_space_group_name_H-M_alt    "P 1"
_space_group_IT_number       1

loop_
  _space_group_symop_operation_xyz
  'x, y, z'

loop_
  _atom_site_type_symbol
  _atom_site_label
  _atom_site_symmetry_multiplicity
  _atom_site_fract_x
  _atom_site_fract_y
  _atom_site_fract_z
  _atom_site_occupancy
  U   U1        1.0  0.87611  0.38708  0.03596  1.0000
  U   U2        1.0  0.62389  0.88708  0.46404  1.0000
  U   U3        1.0  0.12389  0.61292  0.96404  1.0000
  U   U4        1.0  0.37611  0.11292  0.53596  1.0000
  U   U5        1.0  0.17131  0.38743  0.66027  1.0000
  U   U6        1.0  0.32869  0.88743  0.83973  1.0000
  U   U7        1.0  0.82869  0.61257  0.33973  1.0000
  U   U8        1.0  0.67131  0.11257  0.16027  1.0000
  O   O1        1.0  0.92093  0.34650  0.96678  1.0000
  O   O2        1.0  0.57907  0.84650  0.53322  1.0000
  O   O3        1.0  0.07907  0.65350  0.03322  1.0000
  O   O4        1.0  0.42093  0.15350  0.46678  1.0000
  O   O5        1.0  0.83071  0.42807  0.10266  1.0000
  O   O6        1.0  0.66929  0.92807  0.39734  1.0000
  O   O7        1.0  0.16929  0.57193  0.89734  1.0000
  O   O8        1.0  0.33071  0.07193  0.60266  1.0000
  O   O9        1.0  0.22353  0.42603  0.59100  1.0000
  O   O10       1.0  0.27647  0.92603  0.90900  1.0000
  O   O11       1.0  0.77647  0.57397  0.40900  1.0000
  O   O12       1.0  0.72353  0.07397  0.09100  1.0000
  O   O13       1.0  0.12344  0.34862  0.73278  1.0000
  O   O14       1.0  0.37656  0.84862  0.76722  1.0000
  O   O15       1.0  0.87656  0.65138  0.26722  1.0000
  O   O16       1.0  0.62344  0.15138  0.23278  1.0000
  O   O17       1.0  0.72866  0.34262  0.07749  1.0000
  O   O18       1.0  0.77134  0.84262  0.42251  1.0000
  O   O19       1.0  0.27134  0.65738  0.92251  1.0000
  O   O20       1.0  0.22866  0.15738  0.57749  1.0000
  O   O21       1.0  0.68569  0.38112  0.95218  1.0000
  O   O22       1.0  0.81431  0.88112  0.54782  1.0000
  O   O23       1.0  0.31431  0.61888  0.04782  1.0000
  O   O24       1.0  0.18569  0.11888  0.45218  1.0000
  O   O25       1.0  0.36125  0.36500  0.71799  1.0000
  O   O26       1.0  0.13875  0.86500  0.78201  1.0000
  O   O27       1.0  0.63875  0.63500  0.28201  1.0000
  O   O28       1.0  0.86125  0.13500  0.21799  1.0000
  O   O29       1.0  0.29228  0.41311  0.80013  1.0000
  O   O30       1.0  0.20772  0.91311  0.69987  1.0000
  O   O31       1.0  0.70772  0.58689  0.19987  1.0000
  O   O32       1.0  0.79228  0.08689  0.30013  1.0000
  O   O33       1.0  0.84298  0.43268  0.89528  1.0000
  O   O34       1.0  0.65702  0.93268  0.60472  1.0000
  O   O35       1.0  0.15702  0.56732  0.10472  1.0000
  O   O36       1.0  0.34298  0.06732  0.39528  1.0000
  O   O37       1.0  0.00752  0.43432  0.97628  1.0000
  O   O38       1.0  0.49248  0.93432  0.52372  1.0000
  O   O39       1.0  0.99248  0.56568  0.02372  1.0000
  O   O40       1.0  0.50752  0.06568  0.47628  1.0000
  O   O41       1.0  0.07586  0.43806  0.74971  1.0000
  O   O42       1.0  0.42414  0.93806  0.75029  1.0000
  O   O43       1.0  0.92414  0.56194  0.25029  1.0000
  O   O44       1.0  0.57586  0.06194  0.24971  1.0000
  O   O45       1.0  0.98616  0.41574  0.61593  1.0000
  O   O46       1.0  0.51384  0.91574  0.88407  1.0000
  O   O47       1.0  0.01384  0.58426  0.38407  1.0000
  O   O48       1.0  0.48616  0.08426  0.11593  1.0000
  O   O49       1.0  0.05568  0.38919  0.14157  1.0000
  O   O50       1.0  0.44432  0.88919  0.35843  1.0000
  O   O51       1.0  0.94432  0.61081  0.85843  1.0000
  O   O52       1.0  0.55568  0.11081  0.64157  1.0000
  O   O53       1.0  0.92691  0.34904  0.18443  1.0000
  O   O54       1.0  0.57309  0.84904  0.31557  1.0000
  O   O55       1.0  0.07309  0.65096  0.81557  1.0000
  O   O56       1.0  0.42691  0.15096  0.68443  1.0000
  O   O57       1.0  0.07435  0.35689  0.50919  1.0000
  O   O58       1.0  0.42565  0.85689  0.99081  1.0000
  O   O59       1.0  0.92565  0.64311  0.49081  1.0000
  O   O60       1.0  0.57435  0.14311  0.00919  1.0000
  O   O61       1.0  0.23462  0.33124  0.56635  1.0000
  O   O62       1.0  0.26538  0.83124  0.93365  1.0000
  O   O63       1.0  0.76538  0.66876  0.43365  1.0000
  O   O64       1.0  0.73462  0.16876  0.06635  1.0000
  C   C1        1.0  0.45280  0.35351  0.94107  1.0000
  C   C2        1.0  0.04720  0.85351  0.55893  1.0000
  C   C3        1.0  0.54720  0.64649  0.05893  1.0000
  C   C4        1.0  0.95280  0.14649  0.44107  1.0000
  C   C5        1.0  0.54040  0.34061  0.00862  1.0000
  C   C6        1.0  0.95960  0.84061  0.49138  1.0000
  C   C7        1.0  0.45960  0.65939  0.99138  1.0000
  C   C8        1.0  0.04040  0.15939  0.50862  1.0000
  C   C9        1.0  0.52100  0.31242  0.07850  1.0000
  C   C10       1.0  0.97900  0.81242  0.42150  1.0000
  C   C11       1.0  0.47900  0.68758  0.92150  1.0000
  C   C12       1.0  0.02100  0.18758  0.57850  1.0000
  H   H1        1.0  0.58069  0.30374  0.12375  1.0000
  H   H2        1.0  0.91931  0.80374  0.37625  1.0000
  H   H3        1.0  0.41931  0.69626  0.87625  1.0000
  H   H4        1.0  0.08069  0.19626  0.62375  1.0000
  C   C13       1.0  0.41660  0.29677  0.08370  1.0000
  C   C14       1.0  0.08340  0.79677  0.41630  1.0000
  C   C15       1.0  0.58340  0.70323  0.91630  1.0000
  C   C16       1.0  0.91660  0.20323  0.58370  1.0000
  H   H5        1.0  0.40445  0.27777  0.13207  1.0000
  H   H6        1.0  0.09555  0.77777  0.36793  1.0000
  H   H7        1.0  0.59555  0.72223  0.86793  1.0000
  H   H8        1.0  0.90445  0.22223  0.63207  1.0000
  C   C17       1.0  0.33020  0.30936  0.01670  1.0000
  C   C18       1.0  0.16980  0.80936  0.48330  1.0000
  C   C19       1.0  0.66980  0.69064  0.98330  1.0000
  C   C20       1.0  0.83020  0.19064  0.51670  1.0000
  H   H9        1.0  0.25825  0.29869  0.01866  1.0000
  H   H10       1.0  0.24175  0.79869  0.48134  1.0000
  H   H11       1.0  0.74175  0.70131  0.98134  1.0000
  H   H12       1.0  0.75825  0.20131  0.51866  1.0000
  C   C21       1.0  0.34830  0.33728  0.94730  1.0000
  C   C22       1.0  0.15170  0.83728  0.55270  1.0000
  C   C23       1.0  0.65170  0.66272  0.05270  1.0000
  C   C24       1.0  0.84830  0.16272  0.44730  1.0000
  H   H13       1.0  0.28805  0.34572  0.90237  1.0000
  H   H14       1.0  0.21195  0.84572  0.59763  1.0000
  H   H15       1.0  0.71195  0.65428  0.09763  1.0000
  H   H16       1.0  0.78805  0.15428  0.40237  1.0000
  C   C25       1.0  0.46900  0.38480  0.86438  1.0000
  C   C26       1.0  0.03100  0.88480  0.63562  1.0000
  C   C27       1.0  0.53100  0.61520  0.13562  1.0000
  C   C28       1.0  0.96900  0.11520  0.36438  1.0000
  H   H17       1.0  0.48476  0.41208  0.89422  1.0000
  H   H18       1.0  0.01524  0.91208  0.60578  1.0000
  H   H19       1.0  0.51524  0.58792  0.10578  1.0000
  H   H20       1.0  0.98476  0.08792  0.39422  1.0000
  H   H21       1.0  0.53357  0.37667  0.83339  1.0000
  H   H22       1.0  0.96643  0.87667  0.66661  1.0000
  H   H23       1.0  0.46643  0.62333  0.16661  1.0000
  H   H24       1.0  0.03357  0.12333  0.33339  1.0000
  C   C29       1.0  0.36950  0.38829  0.79001  1.0000
  C   C30       1.0  0.13050  0.88829  0.70999  1.0000
  C   C31       1.0  0.63050  0.61171  0.20999  1.0000
  C   C32       1.0  0.86950  0.11171  0.29001  1.0000
  C   C33       1.0  0.65690  0.35568  0.01181  1.0000
  C   C34       1.0  0.84310  0.85568  0.48819  1.0000
  C   C35       1.0  0.34310  0.64432  0.98819  1.0000
  C   C36       1.0  0.15690  0.14432  0.51181  1.0000
  C   C37       1.0  0.89530  0.49642  0.76914  1.0000
  C   C38       1.0  0.60470  0.99642  0.73086  1.0000
  C   C39       1.0  0.10470  0.50358  0.23086  1.0000
  C   C40       1.0  0.39530  0.00358  0.26914  1.0000
  C   C41       1.0  0.90940  0.47378  0.68775  1.0000
  C   C42       1.0  0.59060  0.97378  0.81225  1.0000
  C   C43       1.0  0.09060  0.52622  0.31225  1.0000
  C   C44       1.0  0.40940  0.02622  0.18775  1.0000
  C   C45       1.0  0.84630  0.48315  0.60147  1.0000
  C   C46       1.0  0.65370  0.98315  0.89853  1.0000
  C   C47       1.0  0.15370  0.51685  0.39853  1.0000
  C   C48       1.0  0.34630  0.01685  0.10147  1.0000
  H   H25       1.0  0.85648  0.46766  0.54656  1.0000
  H   H26       1.0  0.64352  0.96766  0.95344  1.0000
  H   H27       1.0  0.14352  0.53234  0.45344  1.0000
  H   H28       1.0  0.35648  0.03234  0.04656  1.0000
  C   C49       1.0  0.76910  0.51449  0.59406  1.0000
  C   C50       1.0  0.73090  0.01449  0.90594  1.0000
  C   C51       1.0  0.23090  0.48551  0.40594  1.0000
  C   C52       1.0  0.26910  0.98551  0.09406  1.0000
  H   H29       1.0  0.72797  0.52103  0.53451  1.0000
  H   H30       1.0  0.77203  0.02103  0.96549  1.0000
  H   H31       1.0  0.27203  0.47897  0.46549  1.0000
  H   H32       1.0  0.22797  0.97897  0.03451  1.0000
  C   C53       1.0  0.75290  0.53616  0.67500  1.0000
  C   C54       1.0  0.74710  0.03616  0.82500  1.0000
  C   C55       1.0  0.24710  0.46384  0.32500  1.0000
  C   C56       1.0  0.25290  0.96384  0.17500  1.0000
  H   H33       1.0  0.69877  0.55727  0.67126  1.0000
  H   H34       1.0  0.80123  0.05727  0.82874  1.0000
  H   H35       1.0  0.30123  0.44273  0.32874  1.0000
  H   H36       1.0  0.19877  0.94273  0.17126  1.0000
  C   C57       1.0  0.81490  0.52734  0.76120  1.0000
  C   C58       1.0  0.68510  0.02734  0.73880  1.0000
  C   C59       1.0  0.18510  0.47266  0.23880  1.0000
  C   C60       1.0  0.31490  0.97266  0.26120  1.0000
  H   H37       1.0  0.80266  0.54254  0.81599  1.0000
  H   H38       1.0  0.69734  0.04254  0.68401  1.0000
  H   H39       1.0  0.19734  0.45746  0.18401  1.0000
  H   H40       1.0  0.30266  0.95746  0.31599  1.0000
  C   C61       1.0  0.96180  0.48922  0.86474  1.0000
  C   C62       1.0  0.53820  0.98922  0.63526  1.0000
  C   C63       1.0  0.03820  0.51078  0.13526  1.0000
  C   C64       1.0  0.46180  0.01078  0.36474  1.0000
  H   H41       1.0  0.94893  0.51246  0.90703  1.0000
  H   H42       1.0  0.55107  0.01246  0.59297  1.0000
  H   H43       1.0  0.05107  0.48754  0.09297  1.0000
  H   H44       1.0  0.44893  0.98754  0.40703  1.0000
  H   H45       1.0  0.04099  0.48935  0.85687  1.0000
  H   H46       1.0  0.45901  0.98935  0.64313  1.0000
  H   H47       1.0  0.95901  0.51065  0.14313  1.0000
  H   H48       1.0  0.54099  0.01065  0.35687  1.0000
  C   C65       1.0  0.93630  0.44963  0.91249  1.0000
  C   C66       1.0  0.56370  0.94963  0.58751  1.0000
  C   C67       1.0  0.06370  0.55037  0.08751  1.0000
  C   C68       1.0  0.43630  0.05037  0.41249  1.0000
  C   C69       1.0  0.99380  0.44055  0.68551  1.0000
  C   C70       1.0  0.50620  0.94055  0.81449  1.0000
  C   C71       1.0  0.00620  0.55945  0.31449  1.0000
  C   C72       1.0  0.49380  0.05945  0.18551  1.0000
  C   C73       1.0  0.12490  0.31902  0.32284  1.0000
  C   C74       1.0  0.37510  0.81902  0.17716  1.0000
  C   C75       1.0  0.87510  0.68098  0.67716  1.0000
  C   C76       1.0  0.62490  0.18098  0.82284  1.0000
  C   C77       1.0  0.15700  0.30547  0.41652  1.0000
  C   C78       1.0  0.34300  0.80547  0.08348  1.0000
  C   C79       1.0  0.84300  0.69453  0.58348  1.0000
  C   C80       1.0  0.65700  0.19453  0.91652  1.0000
  C   C81       1.0  0.19850  0.26589  0.43380  1.0000
  C   C82       1.0  0.30150  0.76589  0.06620  1.0000
  C   C83       1.0  0.80150  0.73411  0.56620  1.0000
  C   C84       1.0  0.69850  0.23411  0.93380  1.0000
  H   H49       1.0  0.21944  0.25707  0.49736  1.0000
  H   H50       1.0  0.28056  0.75707  0.00264  1.0000
  H   H51       1.0  0.78056  0.74293  0.50264  1.0000
  H   H52       1.0  0.71944  0.24293  0.99736  1.0000
  C   C85       1.0  0.20980  0.23923  0.35980  1.0000
  C   C86       1.0  0.29020  0.73923  0.14020  1.0000
  C   C87       1.0  0.79020  0.76077  0.64020  1.0000
  C   C88       1.0  0.70980  0.26077  0.85980  1.0000
  H   H53       1.0  0.23700  0.21210  0.37231  1.0000
  H   H54       1.0  0.26300  0.71210  0.12769  1.0000
  H   H55       1.0  0.76300  0.78790  0.62769  1.0000
  H   H56       1.0  0.73700  0.28790  0.87231  1.0000
  C   C89       1.0  0.18090  0.25254  0.26720  1.0000
  C   C90       1.0  0.31910  0.75254  0.23280  1.0000
  C   C91       1.0  0.81910  0.74746  0.73280  1.0000
  C   C92       1.0  0.68090  0.24746  0.76720  1.0000
  H   H57       1.0  0.18941  0.23464  0.21579  1.0000
  H   H58       1.0  0.31059  0.73464  0.28421  1.0000
  H   H59       1.0  0.81059  0.76536  0.78421  1.0000
  H   H60       1.0  0.68941  0.26536  0.71579  1.0000
  C   C93       1.0  0.13970  0.29185  0.24960  1.0000
  C   C94       1.0  0.36030  0.79185  0.25040  1.0000
  C   C95       1.0  0.86030  0.70815  0.75040  1.0000
  C   C96       1.0  0.63970  0.20815  0.74960  1.0000
  H   H61       1.0  0.12091  0.30059  0.18574  1.0000
  H   H62       1.0  0.37909  0.80059  0.31426  1.0000
  H   H63       1.0  0.87909  0.69941  0.81426  1.0000
  H   H64       1.0  0.62091  0.19941  0.68574  1.0000
  C   C97       1.0  0.08250  0.36236  0.30164  1.0000
  C   C98       1.0  0.41750  0.86236  0.19836  1.0000
  C   C99       1.0  0.91750  0.63764  0.69836  1.0000
  C   C100      1.0  0.58250  0.13764  0.80164  1.0000
  H   H65       1.0  0.03387  0.37020  0.34917  1.0000
  H   H66       1.0  0.46613  0.87020  0.15083  1.0000
  H   H67       1.0  0.96613  0.62980  0.65083  1.0000
  H   H68       1.0  0.53387  0.12980  0.84917  1.0000
  H   H69       1.0  0.14574  0.38163  0.30832  1.0000
  H   H70       1.0  0.35426  0.88163  0.19168  1.0000
  H   H71       1.0  0.85426  0.61837  0.69168  1.0000
  H   H72       1.0  0.64574  0.11837  0.80832  1.0000
  C   C101      1.0  0.01940  0.36700  0.20348  1.0000
  C   C102      1.0  0.48060  0.86700  0.29652  1.0000
  C   C103      1.0  0.98060  0.63300  0.79652  1.0000
  C   C104      1.0  0.51940  0.13300  0.70348  1.0000
  C   C105      1.0  0.15360  0.33298  0.50095  1.0000
  C   C106      1.0  0.34640  0.83298  0.99905  1.0000
  C   C107      1.0  0.84640  0.66702  0.49905  1.0000
  C   C108      1.0  0.65360  0.16702  0.00095  1.0000
