data_image0
_chemical_formula_structural       U6O48C9H3C3H3C3H3C3H3C3H6C6H6C12H3C3H3C3H3C3H3C3H6C6H6C12H3C3H3C3H3C3H3C3H6C6H6C3
_chemical_formula_sum              "U6 O48 C90 H72"
_cell_length_a       14.1572
_cell_length_b       14.1572
_cell_length_c       22.6156
_cell_angle_alpha    90
_cell_angle_beta     90
_cell_angle_gamma    120

_space_group_name_H-M_alt    "P 1"
_space_group_IT_number       1

loop_
  _space_group_symop_operation_xyz
  'x, y, z'

loop_
  _atom_site_type_symbol
  _atom_site_label
  _atom_site_symmetry_multiplicity
  _atom_site_fract_x
  _atom_site_fract_y
  _atom_site_fract_z
  _atom_site_occupancy
  U   U1        1.0  0.88535  0.60332  0.41849  1.0000
  U   U2        1.0  0.39668  0.28203  0.75182  1.0000
  U   U3        1.0  0.71797  0.11465  0.08516  1.0000
  U   U4        1.0  0.68311  0.90078  0.67355  1.0000
  U   U5        1.0  0.09922  0.78233  0.00688  1.0000
  U   U6        1.0  0.21767  0.31689  0.34022  1.0000
  O   O1        1.0  0.80910  0.55440  0.48485  1.0000
  O   O2        1.0  0.44560  0.25470  0.81818  1.0000
  O   O3        1.0  0.74530  0.19090  0.15152  1.0000
  O   O4        1.0  0.96090  0.65040  0.35191  1.0000
  O   O5        1.0  0.34960  0.31050  0.68524  1.0000
  O   O6        1.0  0.68950  0.03910  0.01858  1.0000
  O   O7        1.0  0.71870  0.88280  0.74615  1.0000
  O   O8        1.0  0.11720  0.83590  0.07948  1.0000
  O   O9        1.0  0.16410  0.28130  0.41282  1.0000
  O   O10       1.0  0.64560  0.91430  0.60044  1.0000
  O   O11       1.0  0.08570  0.73130  0.93377  1.0000
  O   O12       1.0  0.26870  0.35440  0.26711  1.0000
  O   O13       1.0  0.82550  0.74170  0.41870  1.0000
  O   O14       1.0  0.25830  0.08380  0.75203  1.0000
  O   O15       1.0  0.91620  0.17450  0.08537  1.0000
  O   O16       1.0  0.98320  0.78590  0.45819  1.0000
  O   O17       1.0  0.21410  0.19730  0.79152  1.0000
  O   O18       1.0  0.80270  0.01680  0.12486  1.0000
  O   O19       1.0  0.86620  0.95340  0.63893  1.0000
  O   O20       1.0  0.04660  0.91280  0.97226  1.0000
  O   O21       1.0  0.08720  0.13380  0.30560  1.0000
  O   O22       1.0  0.74670  0.77880  0.63125  1.0000
  O   O23       1.0  0.22120  0.96790  0.96458  1.0000
  O   O24       1.0  0.03210  0.25330  0.29792  1.0000
  O   O25       1.0  0.05560  0.64590  0.47105  1.0000
  O   O26       1.0  0.35410  0.40970  0.80438  1.0000
  O   O27       1.0  0.59030  0.94440  0.13772  1.0000
  O   O28       1.0  0.96210  0.48230  0.43497  1.0000
  O   O29       1.0  0.51770  0.47980  0.76830  1.0000
  O   O30       1.0  0.52020  0.03790  0.10164  1.0000
  O   O31       1.0  0.16260  0.45600  0.34186  1.0000
  O   O32       1.0  0.54400  0.70660  0.67519  1.0000
  O   O33       1.0  0.29340  0.83740  0.00853  1.0000
  O   O34       1.0  0.32550  0.50910  0.37608  1.0000
  O   O35       1.0  0.49090  0.81640  0.70941  1.0000
  O   O36       1.0  0.18360  0.67450  0.04275  1.0000
  O   O37       1.0  0.77030  0.41780  0.37363  1.0000
  O   O38       1.0  0.58220  0.35250  0.70696  1.0000
  O   O39       1.0  0.64750  0.22970  0.04030  1.0000
  O   O40       1.0  0.72330  0.54180  0.35887  1.0000
  O   O41       1.0  0.45820  0.18150  0.69220  1.0000
  O   O42       1.0  0.81850  0.27670  0.02554  1.0000
  O   O43       1.0  0.40010  0.36510  0.37175  1.0000
  O   O44       1.0  0.63490  0.03500  0.70508  1.0000
  O   O45       1.0  0.96500  0.59990  0.03842  1.0000
  O   O46       1.0  0.29400  0.19310  0.34889  1.0000
  O   O47       1.0  0.80690  0.10090  0.68222  1.0000
  O   O48       1.0  0.89910  0.70600  0.01556  1.0000
  C   C1        1.0  0.01500  0.97320  0.51240  1.0000
  C   C2        1.0  0.02680  0.04180  0.84573  1.0000
  C   C3        1.0  0.95820  0.98500  0.17907  1.0000
  C   C4        1.0  0.02300  0.93930  0.56930  1.0000
  C   C5        1.0  0.06070  0.08370  0.90263  1.0000
  C   C6        1.0  0.91630  0.97700  0.23597  1.0000
  C   C7        1.0  0.11790  0.99990  0.60130  1.0000
  C   C8        1.0  0.00010  0.11800  0.93463  1.0000
  C   C9        1.0  0.88200  0.88210  0.26797  1.0000
  H   H1        1.0  0.12369  0.97674  0.63992  1.0000
  H   H2        1.0  0.02326  0.14695  0.97325  1.0000
  H   H3        1.0  0.85305  0.87631  0.30659  1.0000
  C   C10       1.0  0.20530  0.09430  0.57790  1.0000
  C   C11       1.0  0.90570  0.11100  0.91123  1.0000
  C   C12       1.0  0.88900  0.79470  0.24457  1.0000
  H   H4        1.0  0.26975  0.13551  0.60055  1.0000
  H   H5        1.0  0.86449  0.13424  0.93388  1.0000
  H   H6        1.0  0.86576  0.73025  0.26722  1.0000
  C   C13       1.0  0.19740  0.12720  0.52190  1.0000
  C   C14       1.0  0.87280  0.07020  0.85523  1.0000
  C   C15       1.0  0.92980  0.80260  0.18857  1.0000
  H   H7        1.0  0.25685  0.19090  0.50539  1.0000
  H   H8        1.0  0.80910  0.06595  0.83872  1.0000
  H   H9        1.0  0.93405  0.74315  0.17206  1.0000
  C   C16       1.0  0.10320  0.06770  0.48960  1.0000
  C   C17       1.0  0.93230  0.03550  0.82293  1.0000
  C   C18       1.0  0.96450  0.89680  0.15627  1.0000
  H   H10       1.0  0.09814  0.09145  0.45100  1.0000
  H   H11       1.0  0.90855  0.00669  0.78433  1.0000
  H   H12       1.0  0.99331  0.90186  0.11767  1.0000
  C   C19       1.0  0.91540  0.90920  0.47420  1.0000
  C   C20       1.0  0.09080  0.00620  0.80753  1.0000
  C   C21       1.0  0.99380  0.08460  0.14087  1.0000
  H   H13       1.0  0.91717  0.95626  0.44141  1.0000
  H   H14       1.0  0.04374  0.96091  0.77474  1.0000
  H   H15       1.0  0.03909  0.08283  0.10808  1.0000
  H   H16       1.0  0.84947  0.88913  0.49814  1.0000
  H   H17       1.0  0.11087  0.96034  0.83147  1.0000
  H   H18       1.0  0.03966  0.15053  0.16481  1.0000
  C   C22       1.0  0.90700  0.80580  0.44850  1.0000
  C   C23       1.0  0.19420  0.10120  0.78183  1.0000
  C   C24       1.0  0.89880  0.09300  0.11517  1.0000
  C   C25       1.0  0.92910  0.83890  0.59600  1.0000
  C   C26       1.0  0.16110  0.09020  0.92933  1.0000
  C   C27       1.0  0.90980  0.07090  0.26267  1.0000
  H   H19       1.0  0.95765  0.81023  0.62690  1.0000
  H   H20       1.0  0.18977  0.14742  0.96023  1.0000
  H   H21       1.0  0.85258  0.04235  0.29357  1.0000
  H   H22       1.0  0.89515  0.78239  0.56491  1.0000
  H   H23       1.0  0.21761  0.11276  0.89824  1.0000
  H   H24       1.0  0.88724  0.10485  0.23158  1.0000
  C   C28       1.0  0.84240  0.85820  0.62300  1.0000
  C   C29       1.0  0.14180  0.98420  0.95633  1.0000
  C   C30       1.0  0.01580  0.15760  0.28967  1.0000
  C   C31       1.0  0.24130  0.62640  0.49292  1.0000
  C   C32       1.0  0.37360  0.61490  0.82625  1.0000
  C   C33       1.0  0.38510  0.75870  0.15959  1.0000
  C   C34       1.0  0.30550  0.67790  0.44305  1.0000
  C   C35       1.0  0.32210  0.62760  0.77638  1.0000
  C   C36       1.0  0.37240  0.69450  0.10972  1.0000
  C   C37       1.0  0.40810  0.76900  0.45090  1.0000
  C   C38       1.0  0.23100  0.63910  0.78423  1.0000
  C   C39       1.0  0.36090  0.59190  0.11757  1.0000
  H   H25       1.0  0.45239  0.80384  0.41732  1.0000
  H   H26       1.0  0.19616  0.64855  0.75065  1.0000
  H   H27       1.0  0.35145  0.54761  0.08399  1.0000
  C   C40       1.0  0.44690  0.80990  0.50690  1.0000
  C   C41       1.0  0.19010  0.63700  0.84023  1.0000
  C   C42       1.0  0.36300  0.55310  0.17357  1.0000
  H   H28       1.0  0.51750  0.87176  0.51148  1.0000
  H   H29       1.0  0.12824  0.64574  0.84481  1.0000
  H   H30       1.0  0.35426  0.48250  0.17815  1.0000
  C   C43       1.0  0.38340  0.76100  0.55560  1.0000
  C   C44       1.0  0.23900  0.62240  0.88893  1.0000
  C   C45       1.0  0.37760  0.61660  0.22227  1.0000
  H   H31       1.0  0.40955  0.78991  0.59391  1.0000
  H   H32       1.0  0.21009  0.61964  0.92724  1.0000
  H   H33       1.0  0.38036  0.59045  0.26058  1.0000
  C   C46       1.0  0.28020  0.66880  0.54904  1.0000
  C   C47       1.0  0.33120  0.61140  0.88237  1.0000
  C   C48       1.0  0.38860  0.71980  0.21571  1.0000
  H   H34       1.0  0.23650  0.63492  0.58289  1.0000
  H   H35       1.0  0.36508  0.60158  0.91622  1.0000
  H   H36       1.0  0.39842  0.76350  0.24956  1.0000
  C   C49       1.0  0.12930  0.52740  0.48670  1.0000
  C   C50       1.0  0.47260  0.60190  0.82003  1.0000
  C   C51       1.0  0.39810  0.87070  0.15337  1.0000
  H   H37       1.0  0.10490  0.49191  0.52580  1.0000
  H   H38       1.0  0.50809  0.61299  0.85913  1.0000
  H   H39       1.0  0.38701  0.89510  0.19247  1.0000
  H   H40       1.0  0.13358  0.47459  0.45971  1.0000
  H   H41       1.0  0.52541  0.65899  0.79304  1.0000
  H   H42       1.0  0.34101  0.86642  0.12638  1.0000
  C   C52       1.0  0.04560  0.55460  0.46310  1.0000
  C   C53       1.0  0.44540  0.49100  0.79643  1.0000
  C   C54       1.0  0.50900  0.95440  0.12977  1.0000
  C   C55       1.0  0.26220  0.63830  0.38186  1.0000
  C   C56       1.0  0.36170  0.62390  0.71519  1.0000
  C   C57       1.0  0.37610  0.73780  0.04853  1.0000
  H   H43       1.0  0.31192  0.69298  0.35285  1.0000
  H   H44       1.0  0.30702  0.61894  0.68618  1.0000
  H   H45       1.0  0.38106  0.68808  0.01952  1.0000
  H   H46       1.0  0.19015  0.63331  0.37803  1.0000
  H   H47       1.0  0.36669  0.55684  0.71136  1.0000
  H   H48       1.0  0.44316  0.80985  0.04470  1.0000
  C   C58       1.0  0.24990  0.52850  0.36640  1.0000
  C   C59       1.0  0.47150  0.72140  0.69973  1.0000
  C   C60       1.0  0.27860  0.75010  0.03307  1.0000
  C   C61       1.0  0.58560  0.25600  0.30840  1.0000
  C   C62       1.0  0.74400  0.32960  0.64173  1.0000
  C   C63       1.0  0.67040  0.41440  0.97507  1.0000
  C   C64       1.0  0.50900  0.19160  0.35180  1.0000
  C   C65       1.0  0.80840  0.31740  0.68513  1.0000
  C   C66       1.0  0.68260  0.49100  0.01847  1.0000
  C   C67       1.0  0.47440  0.08080  0.35510  1.0000
  C   C68       1.0  0.91920  0.39360  0.68843  1.0000
  C   C69       1.0  0.60640  0.52560  0.02177  1.0000
  H   H49       1.0  0.42197  0.03698  0.38404  1.0000
  H   H50       1.0  0.96302  0.38499  0.71737  1.0000
  H   H51       1.0  0.61501  0.57803  0.05071  1.0000
  C   C70       1.0  0.51530  0.03320  0.31670  1.0000
  C   C71       1.0  0.96680  0.48210  0.65003  1.0000
  C   C72       1.0  0.51790  0.48470  0.98337  1.0000
  H   H52       1.0  0.49116  0.95747  0.31940  1.0000
  H   H53       1.0  0.04253  0.53369  0.65273  1.0000
  H   H54       1.0  0.46631  0.50884  0.98607  1.0000
  C   C73       1.0  0.59190  0.09700  0.27420  1.0000
  C   C74       1.0  0.90300  0.49490  0.60753  1.0000
  C   C75       1.0  0.50510  0.40810  0.94087  1.0000
  H   H55       1.0  0.62100  0.06545  0.24812  1.0000
  H   H56       1.0  0.93455  0.55555  0.58145  1.0000
  H   H57       1.0  0.44445  0.37900  0.91479  1.0000
  C   C76       1.0  0.62540  0.20730  0.27020  1.0000
  C   C77       1.0  0.79270  0.41810  0.60353  1.0000
  C   C78       1.0  0.58190  0.37460  0.93687  1.0000
  H   H58       1.0  0.67668  0.25037  0.24063  1.0000
  H   H59       1.0  0.74963  0.42631  0.57396  1.0000
  H   H60       1.0  0.57369  0.32332  0.90730  1.0000
  C   C79       1.0  0.62330  0.37560  0.30350  1.0000
  C   C80       1.0  0.62440  0.24770  0.63683  1.0000
  C   C81       1.0  0.75230  0.37670  0.97017  1.0000
  H   H61       1.0  0.55924  0.38556  0.30818  1.0000
  H   H62       1.0  0.61444  0.17368  0.64151  1.0000
  H   H63       1.0  0.82632  0.44076  0.97485  1.0000
  H   H64       1.0  0.65279  0.40048  0.26327  1.0000
  H   H65       1.0  0.59952  0.25231  0.59660  1.0000
  H   H66       1.0  0.74769  0.34721  0.92994  1.0000
  C   C82       1.0  0.70960  0.44800  0.34830  1.0000
  C   C83       1.0  0.55200  0.26160  0.68163  1.0000
  C   C84       1.0  0.73840  0.29040  0.01497  1.0000
  C   C85       1.0  0.46600  0.24210  0.39550  1.0000
  C   C86       1.0  0.75790  0.22390  0.72883  1.0000
  C   C87       1.0  0.77610  0.53400  0.06217  1.0000
  H   H67       1.0  0.52821  0.31023  0.41105  1.0000
  H   H68       1.0  0.68977  0.21798  0.74438  1.0000
  H   H69       1.0  0.78202  0.47179  0.07772  1.0000
  H   H70       1.0  0.43253  0.19147  0.42920  1.0000
  H   H71       1.0  0.80853  0.24106  0.76253  1.0000
  H   H72       1.0  0.75894  0.56747  0.09587  1.0000
  C   C88       1.0  0.38240  0.26830  0.37000  1.0000
  C   C89       1.0  0.73170  0.11410  0.70333  1.0000
  C   C90       1.0  0.88590  0.61760  0.03667  1.0000
