data_image0
_chemical_formula_structural       U8O64C24H8C8H8C8H8C8H8C8H16C16H16C24H8C8H8C8H16C8
_chemical_formula_sum              "U8 O64 C120 H96"
_cell_length_a       27.8579
_cell_length_b       14.6046
_cell_length_c       13.2707
_cell_angle_alpha    90
_cell_angle_beta     114.558
_cell_angle_gamma    90

_space_group_name_H-M_alt    "P 1"
_space_group_IT_number       1

loop_
  _space_group_symop_operation_xyz
  'x, y, z'

loop_
  _atom_site_type_symbol
  _atom_site_label
  _atom_site_symmetry_multiplicity
  _atom_site_fract_x
  _atom_site_fract_y
  _atom_site_fract_z
  _atom_site_occupancy
  U   U1        1.0  0.84417  0.57816  0.67453  1.0000
  U   U2        1.0  0.15583  0.57816  0.82547  1.0000
  U   U3        1.0  0.34417  0.07816  0.67453  1.0000
  U   U4        1.0  0.65583  0.07816  0.82547  1.0000
  U   U5        1.0  0.15583  0.42184  0.32547  1.0000
  U   U6        1.0  0.84417  0.42184  0.17453  1.0000
  U   U7        1.0  0.65583  0.92184  0.32547  1.0000
  U   U8        1.0  0.34417  0.92184  0.17453  1.0000
  O   O1        1.0  0.88105  0.59265  0.81932  1.0000
  O   O2        1.0  0.11895  0.59265  0.68068  1.0000
  O   O3        1.0  0.38105  0.09265  0.81932  1.0000
  O   O4        1.0  0.61895  0.09265  0.68068  1.0000
  O   O5        1.0  0.11895  0.40735  0.18068  1.0000
  O   O6        1.0  0.88105  0.40735  0.31932  1.0000
  O   O7        1.0  0.61895  0.90735  0.18068  1.0000
  O   O8        1.0  0.38105  0.90735  0.31932  1.0000
  O   O9        1.0  0.80778  0.56408  0.52958  1.0000
  O   O10       1.0  0.19222  0.56408  0.97042  1.0000
  O   O11       1.0  0.30778  0.06408  0.52958  1.0000
  O   O12       1.0  0.69222  0.06408  0.97042  1.0000
  O   O13       1.0  0.19222  0.43592  0.47042  1.0000
  O   O14       1.0  0.80778  0.43592  0.02958  1.0000
  O   O15       1.0  0.69222  0.93592  0.47042  1.0000
  O   O16       1.0  0.30778  0.93592  0.02958  1.0000
  O   O17       1.0  0.80851  0.43765  0.71367  1.0000
  O   O18       1.0  0.19149  0.43765  0.78633  1.0000
  O   O19       1.0  0.30851  0.93765  0.71367  1.0000
  O   O20       1.0  0.69149  0.93765  0.78633  1.0000
  O   O21       1.0  0.19149  0.56235  0.28633  1.0000
  O   O22       1.0  0.80851  0.56235  0.21367  1.0000
  O   O23       1.0  0.69149  0.06235  0.28633  1.0000
  O   O24       1.0  0.30851  0.06235  0.21367  1.0000
  O   O25       1.0  0.75933  0.55776  0.69695  1.0000
  O   O26       1.0  0.24067  0.55776  0.80305  1.0000
  O   O27       1.0  0.25933  0.05776  0.69695  1.0000
  O   O28       1.0  0.74067  0.05776  0.80305  1.0000
  O   O29       1.0  0.24067  0.44224  0.30305  1.0000
  O   O30       1.0  0.75933  0.44224  0.19695  1.0000
  O   O31       1.0  0.74067  0.94224  0.30305  1.0000
  O   O32       1.0  0.25933  0.94224  0.19695  1.0000
  O   O33       1.0  0.70019  0.22724  0.84001  1.0000
  O   O34       1.0  0.29981  0.22724  0.65999  1.0000
  O   O35       1.0  0.20019  0.72724  0.84001  1.0000
  O   O36       1.0  0.79981  0.72724  0.65999  1.0000
  O   O37       1.0  0.29981  0.77276  0.15999  1.0000
  O   O38       1.0  0.70019  0.77276  0.34001  1.0000
  O   O39       1.0  0.79981  0.27276  0.15999  1.0000
  O   O40       1.0  0.20019  0.27276  0.34001  1.0000
  O   O41       1.0  0.62508  0.22840  0.85579  1.0000
  O   O42       1.0  0.37492  0.22840  0.64421  1.0000
  O   O43       1.0  0.12508  0.72840  0.85579  1.0000
  O   O44       1.0  0.87492  0.72840  0.64421  1.0000
  O   O45       1.0  0.37492  0.77160  0.14421  1.0000
  O   O46       1.0  0.62508  0.77160  0.35579  1.0000
  O   O47       1.0  0.87492  0.27160  0.14421  1.0000
  O   O48       1.0  0.12508  0.27160  0.35579  1.0000
  O   O49       1.0  0.92646  0.56772  0.64522  1.0000
  O   O50       1.0  0.07354  0.56772  0.85478  1.0000
  O   O51       1.0  0.42646  0.06772  0.64522  1.0000
  O   O52       1.0  0.57354  0.06772  0.85478  1.0000
  O   O53       1.0  0.07354  0.43228  0.35478  1.0000
  O   O54       1.0  0.92646  0.43228  0.14522  1.0000
  O   O55       1.0  0.57354  0.93228  0.35478  1.0000
  O   O56       1.0  0.42646  0.93228  0.14522  1.0000
  O   O57       1.0  0.89542  0.43918  0.67746  1.0000
  O   O58       1.0  0.10458  0.43918  0.82254  1.0000
  O   O59       1.0  0.39542  0.93918  0.67746  1.0000
  O   O60       1.0  0.60458  0.93918  0.82254  1.0000
  O   O61       1.0  0.10458  0.56082  0.32254  1.0000
  O   O62       1.0  0.89542  0.56082  0.17746  1.0000
  O   O63       1.0  0.60458  0.06082  0.32254  1.0000
  O   O64       1.0  0.39542  0.06082  0.17746  1.0000
  C   C1        1.0  0.67359  0.43840  0.69864  1.0000
  C   C2        1.0  0.32641  0.43840  0.80136  1.0000
  C   C3        1.0  0.17359  0.93840  0.69864  1.0000
  C   C4        1.0  0.82641  0.93840  0.80136  1.0000
  C   C5        1.0  0.32641  0.56160  0.30136  1.0000
  C   C6        1.0  0.67359  0.56160  0.19864  1.0000
  C   C7        1.0  0.82641  0.06160  0.30136  1.0000
  C   C8        1.0  0.17359  0.06160  0.19864  1.0000
  C   C9        1.0  0.64469  0.42137  0.76154  1.0000
  C   C10       1.0  0.35531  0.42137  0.73846  1.0000
  C   C11       1.0  0.14469  0.92137  0.76154  1.0000
  C   C12       1.0  0.85531  0.92137  0.73846  1.0000
  C   C13       1.0  0.35531  0.57863  0.23846  1.0000
  C   C14       1.0  0.64469  0.57863  0.26154  1.0000
  C   C15       1.0  0.85531  0.07863  0.23846  1.0000
  C   C16       1.0  0.14469  0.07863  0.26154  1.0000
  C   C17       1.0  0.59160  0.44671  0.71930  1.0000
  C   C18       1.0  0.40840  0.44671  0.78070  1.0000
  C   C19       1.0  0.09160  0.94671  0.71930  1.0000
  C   C20       1.0  0.90840  0.94671  0.78070  1.0000
  C   C21       1.0  0.40840  0.55329  0.28070  1.0000
  C   C22       1.0  0.59160  0.55329  0.21930  1.0000
  C   C23       1.0  0.90840  0.05329  0.28070  1.0000
  C   C24       1.0  0.09160  0.05329  0.21930  1.0000
  H   H1        1.0  0.57197  0.43573  0.76199  1.0000
  H   H2        1.0  0.42803  0.43573  0.73801  1.0000
  H   H3        1.0  0.07197  0.93573  0.76199  1.0000
  H   H4        1.0  0.92803  0.93573  0.73801  1.0000
  H   H5        1.0  0.42803  0.56427  0.23801  1.0000
  H   H6        1.0  0.57197  0.56427  0.26199  1.0000
  H   H7        1.0  0.92803  0.06427  0.23801  1.0000
  H   H8        1.0  0.07197  0.06427  0.26199  1.0000
  C   C25       1.0  0.56717  0.48757  0.61640  1.0000
  C   C26       1.0  0.43283  0.48757  0.88360  1.0000
  C   C27       1.0  0.06717  0.98757  0.61640  1.0000
  C   C28       1.0  0.93283  0.98757  0.88360  1.0000
  C   C29       1.0  0.43283  0.51243  0.38360  1.0000
  C   C30       1.0  0.56717  0.51243  0.11640  1.0000
  C   C31       1.0  0.93283  0.01243  0.38360  1.0000
  C   C32       1.0  0.06717  0.01243  0.11640  1.0000
  H   H9        1.0  0.53110  0.50495  0.58903  1.0000
  H   H10       1.0  0.46890  0.50495  0.91097  1.0000
  H   H11       1.0  0.03110  0.00495  0.58903  1.0000
  H   H12       1.0  0.96890  0.00495  0.91097  1.0000
  H   H13       1.0  0.46890  0.49505  0.41097  1.0000
  H   H14       1.0  0.53110  0.49505  0.08903  1.0000
  H   H15       1.0  0.96890  0.99505  0.41097  1.0000
  H   H16       1.0  0.03110  0.99505  0.08903  1.0000
  C   C33       1.0  0.59542  0.50317  0.55292  1.0000
  C   C34       1.0  0.40458  0.50317  0.94708  1.0000
  C   C35       1.0  0.09542  0.00317  0.55292  1.0000
  C   C36       1.0  0.90458  0.00317  0.94708  1.0000
  C   C37       1.0  0.40458  0.49683  0.44708  1.0000
  C   C38       1.0  0.59542  0.49683  0.05292  1.0000
  C   C39       1.0  0.90458  0.99683  0.44708  1.0000
  C   C40       1.0  0.09542  0.99683  0.05292  1.0000
  H   H17       1.0  0.57879  0.53060  0.48180  1.0000
  H   H18       1.0  0.42121  0.53060  0.01820  1.0000
  H   H19       1.0  0.07879  0.03060  0.48180  1.0000
  H   H20       1.0  0.92121  0.03060  0.01820  1.0000
  H   H21       1.0  0.42121  0.46940  0.51820  1.0000
  H   H22       1.0  0.57879  0.46940  0.98180  1.0000
  H   H23       1.0  0.92121  0.96940  0.51820  1.0000
  H   H24       1.0  0.07879  0.96940  0.98180  1.0000
  C   C41       1.0  0.64806  0.47830  0.59454  1.0000
  C   C42       1.0  0.35194  0.47830  0.90546  1.0000
  C   C43       1.0  0.14806  0.97830  0.59454  1.0000
  C   C44       1.0  0.85194  0.97830  0.90546  1.0000
  C   C45       1.0  0.35194  0.52170  0.40546  1.0000
  C   C46       1.0  0.64806  0.52170  0.09454  1.0000
  C   C47       1.0  0.85194  0.02170  0.40546  1.0000
  C   C48       1.0  0.14806  0.02170  0.09454  1.0000
  H   H25       1.0  0.66728  0.48873  0.55093  1.0000
  H   H26       1.0  0.33272  0.48873  0.94907  1.0000
  H   H27       1.0  0.16728  0.98873  0.55093  1.0000
  H   H28       1.0  0.83272  0.98873  0.94907  1.0000
  H   H29       1.0  0.33272  0.51127  0.44907  1.0000
  H   H30       1.0  0.66728  0.51127  0.05093  1.0000
  H   H31       1.0  0.83272  0.01127  0.44907  1.0000
  H   H32       1.0  0.16728  0.01127  0.05093  1.0000
  C   C49       1.0  0.73066  0.41051  0.74001  1.0000
  C   C50       1.0  0.26934  0.41051  0.75999  1.0000
  C   C51       1.0  0.23066  0.91051  0.74001  1.0000
  C   C52       1.0  0.76934  0.91051  0.75999  1.0000
  C   C53       1.0  0.26934  0.58949  0.25999  1.0000
  C   C54       1.0  0.73066  0.58949  0.24001  1.0000
  C   C55       1.0  0.76934  0.08949  0.25999  1.0000
  C   C56       1.0  0.23066  0.08949  0.24001  1.0000
  H   H33       1.0  0.74489  0.40349  0.82148  1.0000
  H   H34       1.0  0.25511  0.40349  0.67852  1.0000
  H   H35       1.0  0.24489  0.90349  0.82148  1.0000
  H   H36       1.0  0.75511  0.90349  0.67852  1.0000
  H   H37       1.0  0.25511  0.59651  0.17852  1.0000
  H   H38       1.0  0.74489  0.59651  0.32148  1.0000
  H   H39       1.0  0.75511  0.09651  0.17852  1.0000
  H   H40       1.0  0.24489  0.09651  0.32148  1.0000
  H   H41       1.0  0.73202  0.34951  0.70877  1.0000
  H   H42       1.0  0.26798  0.34951  0.79123  1.0000
  H   H43       1.0  0.23202  0.84951  0.70877  1.0000
  H   H44       1.0  0.76798  0.84951  0.79123  1.0000
  H   H45       1.0  0.26798  0.65049  0.29123  1.0000
  H   H46       1.0  0.73202  0.65049  0.20877  1.0000
  H   H47       1.0  0.76798  0.15049  0.29123  1.0000
  H   H48       1.0  0.23202  0.15049  0.20877  1.0000
  C   C57       1.0  0.76684  0.47343  0.71431  1.0000
  C   C58       1.0  0.23316  0.47343  0.78569  1.0000
  C   C59       1.0  0.26684  0.97343  0.71431  1.0000
  C   C60       1.0  0.73316  0.97343  0.78569  1.0000
  C   C61       1.0  0.23316  0.52657  0.28569  1.0000
  C   C62       1.0  0.76684  0.52657  0.21431  1.0000
  C   C63       1.0  0.73316  0.02657  0.28569  1.0000
  C   C64       1.0  0.26684  0.02657  0.21431  1.0000
  C   C65       1.0  0.66841  0.37317  0.87236  1.0000
  C   C66       1.0  0.33159  0.37317  0.62764  1.0000
  C   C67       1.0  0.16841  0.87317  0.87236  1.0000
  C   C68       1.0  0.83159  0.87317  0.62764  1.0000
  C   C69       1.0  0.33159  0.62683  0.12764  1.0000
  C   C70       1.0  0.66841  0.62683  0.37236  1.0000
  C   C71       1.0  0.83159  0.12683  0.12764  1.0000
  C   C72       1.0  0.16841  0.12683  0.37236  1.0000
  H   H49       1.0  0.70579  0.39161  0.91274  1.0000
  H   H50       1.0  0.29421  0.39161  0.58726  1.0000
  H   H51       1.0  0.20579  0.89161  0.91274  1.0000
  H   H52       1.0  0.79421  0.89161  0.58726  1.0000
  H   H53       1.0  0.29421  0.60839  0.08726  1.0000
  H   H54       1.0  0.70579  0.60839  0.41274  1.0000
  H   H55       1.0  0.79421  0.10839  0.08726  1.0000
  H   H56       1.0  0.20579  0.10839  0.41274  1.0000
  H   H57       1.0  0.64920  0.39123  0.91743  1.0000
  H   H58       1.0  0.35080  0.39123  0.58257  1.0000
  H   H59       1.0  0.14920  0.89123  0.91743  1.0000
  H   H60       1.0  0.85080  0.89123  0.58257  1.0000
  H   H61       1.0  0.35080  0.60877  0.08257  1.0000
  H   H62       1.0  0.64920  0.60877  0.41743  1.0000
  H   H63       1.0  0.85080  0.10877  0.08257  1.0000
  H   H64       1.0  0.14920  0.10877  0.41743  1.0000
  C   C73       1.0  0.66505  0.27085  0.85573  1.0000
  C   C74       1.0  0.33495  0.27085  0.64427  1.0000
  C   C75       1.0  0.16505  0.77085  0.85573  1.0000
  C   C76       1.0  0.83495  0.77085  0.64427  1.0000
  C   C77       1.0  0.33495  0.72915  0.14427  1.0000
  C   C78       1.0  0.66505  0.72915  0.35573  1.0000
  C   C79       1.0  0.83495  0.22915  0.14427  1.0000
  C   C80       1.0  0.16505  0.22915  0.35573  1.0000
  C   C81       1.0  0.98582  0.34018  0.69244  1.0000
  C   C82       1.0  0.01418  0.34018  0.80756  1.0000
  C   C83       1.0  0.48582  0.84018  0.69244  1.0000
  C   C84       1.0  0.51418  0.84018  0.80756  1.0000
  C   C85       1.0  0.01418  0.65982  0.30756  1.0000
  C   C86       1.0  0.98582  0.65982  0.19244  1.0000
  C   C87       1.0  0.51418  0.15982  0.30756  1.0000
  C   C88       1.0  0.48582  0.15982  0.19244  1.0000
  C   C89       1.0  0.97216  0.25630  0.63630  1.0000
  C   C90       1.0  0.02784  0.25630  0.86370  1.0000
  C   C91       1.0  0.47216  0.75630  0.63630  1.0000
  C   C92       1.0  0.52784  0.75630  0.86370  1.0000
  C   C93       1.0  0.02784  0.74370  0.36370  1.0000
  C   C94       1.0  0.97216  0.74370  0.13630  1.0000
  C   C95       1.0  0.52784  0.24370  0.36370  1.0000
  C   C96       1.0  0.47216  0.24370  0.13630  1.0000
  H   H65       1.0  0.95300  0.25567  0.55810  1.0000
  H   H66       1.0  0.04700  0.25567  0.94190  1.0000
  H   H67       1.0  0.45300  0.75567  0.55810  1.0000
  H   H68       1.0  0.54700  0.75567  0.94190  1.0000
  H   H69       1.0  0.04700  0.74433  0.44190  1.0000
  H   H70       1.0  0.95300  0.74433  0.05810  1.0000
  H   H71       1.0  0.54700  0.24433  0.44190  1.0000
  H   H72       1.0  0.45300  0.24433  0.05810  1.0000
  C   C97       1.0  0.98626  0.17433  0.69370  1.0000
  C   C98       1.0  0.01374  0.17433  0.80630  1.0000
  C   C99       1.0  0.48626  0.67433  0.69370  1.0000
  C   C100      1.0  0.51374  0.67433  0.80630  1.0000
  C   C101      1.0  0.01374  0.82567  0.30630  1.0000
  C   C102      1.0  0.98626  0.82567  0.19370  1.0000
  C   C103      1.0  0.51374  0.32567  0.30630  1.0000
  C   C104      1.0  0.48626  0.32567  0.19370  1.0000
  H   H73       1.0  0.97682  0.11794  0.65462  1.0000
  H   H74       1.0  0.02318  0.11794  0.84538  1.0000
  H   H75       1.0  0.47682  0.61794  0.65462  1.0000
  H   H76       1.0  0.52318  0.61794  0.84538  1.0000
  H   H77       1.0  0.02318  0.88206  0.34538  1.0000
  H   H78       1.0  0.97682  0.88206  0.15462  1.0000
  H   H79       1.0  0.52318  0.38206  0.34538  1.0000
  H   H80       1.0  0.47682  0.38206  0.15462  1.0000
  C   C105      1.0  0.96938  0.42882  0.62861  1.0000
  C   C106      1.0  0.03062  0.42882  0.87139  1.0000
  C   C107      1.0  0.46938  0.92882  0.62861  1.0000
  C   C108      1.0  0.53062  0.92882  0.87139  1.0000
  C   C109      1.0  0.03062  0.57118  0.37139  1.0000
  C   C110      1.0  0.96938  0.57118  0.12861  1.0000
  C   C111      1.0  0.53062  0.07118  0.37139  1.0000
  C   C112      1.0  0.46938  0.07118  0.12861  1.0000
  H   H81       1.0  0.95500  0.41520  0.54834  1.0000
  H   H82       1.0  0.04500  0.41520  0.95166  1.0000
  H   H83       1.0  0.45500  0.91520  0.54834  1.0000
  H   H84       1.0  0.54500  0.91520  0.95166  1.0000
  H   H85       1.0  0.04500  0.58480  0.45166  1.0000
  H   H86       1.0  0.95500  0.58480  0.04834  1.0000
  H   H87       1.0  0.54500  0.08480  0.45166  1.0000
  H   H88       1.0  0.45500  0.08480  0.04834  1.0000
  H   H89       1.0  0.00094  0.46795  0.64722  1.0000
  H   H90       1.0  0.99906  0.46795  0.85278  1.0000
  H   H91       1.0  0.50094  0.96795  0.64722  1.0000
  H   H92       1.0  0.49906  0.96795  0.85278  1.0000
  H   H93       1.0  0.99906  0.53205  0.35278  1.0000
  H   H94       1.0  0.00094  0.53205  0.14722  1.0000
  H   H95       1.0  0.49906  0.03205  0.35278  1.0000
  H   H96       1.0  0.50094  0.03205  0.14722  1.0000
  C   C113      1.0  0.92844  0.48128  0.65250  1.0000
  C   C114      1.0  0.07156  0.48128  0.84750  1.0000
  C   C115      1.0  0.42844  0.98128  0.65250  1.0000
  C   C116      1.0  0.57156  0.98128  0.84750  1.0000
  C   C117      1.0  0.07156  0.51872  0.34750  1.0000
  C   C118      1.0  0.92844  0.51872  0.15250  1.0000
  C   C119      1.0  0.57156  0.01872  0.34750  1.0000
  C   C120      1.0  0.42844  0.01872  0.15250  1.0000
