data_image0
_chemical_formula_structural       Er4O24C8H8O8C4H4C4H4
_chemical_formula_sum              "Er4 O32 C16 H16"
_cell_length_a       6.6318
_cell_length_b       18.3719
_cell_length_c       8.4126
_cell_angle_alpha    90
_cell_angle_beta     90
_cell_angle_gamma    90

_space_group_name_H-M_alt    "P 1"
_space_group_IT_number       1

loop_
  _space_group_symop_operation_xyz
  'x, y, z'

loop_
  _atom_site_type_symbol
  _atom_site_label
  _atom_site_symmetry_multiplicity
  _atom_site_fract_x
  _atom_site_fract_y
  _atom_site_fract_z
  _atom_site_occupancy
  Er  Er1       1.0  0.00000  0.14293  0.25000  1.0000
  Er  Er2       1.0  0.00000  0.85707  0.75000  1.0000
  Er  Er3       1.0  0.50000  0.64293  0.25000  1.0000
  Er  Er4       1.0  0.50000  0.35707  0.75000  1.0000
  O   O1        1.0  0.98560  0.05010  0.43010  1.0000
  O   O2        1.0  0.01440  0.94990  0.93010  1.0000
  O   O3        1.0  0.98560  0.94990  0.56990  1.0000
  O   O4        1.0  0.01440  0.05010  0.06990  1.0000
  O   O5        1.0  0.48560  0.55010  0.43010  1.0000
  O   O6        1.0  0.51440  0.44990  0.93010  1.0000
  O   O7        1.0  0.48560  0.44990  0.56990  1.0000
  O   O8        1.0  0.51440  0.55010  0.06990  1.0000
  O   O9        1.0  0.66540  0.09510  0.22710  1.0000
  O   O10       1.0  0.33460  0.90490  0.72710  1.0000
  O   O11       1.0  0.66540  0.90490  0.77290  1.0000
  O   O12       1.0  0.33460  0.09510  0.27290  1.0000
  O   O13       1.0  0.16540  0.59510  0.22710  1.0000
  O   O14       1.0  0.83460  0.40490  0.72710  1.0000
  O   O15       1.0  0.16540  0.40490  0.77290  1.0000
  O   O16       1.0  0.83460  0.59510  0.27290  1.0000
  O   O17       1.0  0.32020  0.25710  0.84530  1.0000
  O   O18       1.0  0.67980  0.74290  0.34530  1.0000
  O   O19       1.0  0.32020  0.74290  0.15470  1.0000
  O   O20       1.0  0.67980  0.25710  0.65470  1.0000
  O   O21       1.0  0.82020  0.75710  0.84530  1.0000
  O   O22       1.0  0.17980  0.24290  0.34530  1.0000
  O   O23       1.0  0.82020  0.24290  0.15470  1.0000
  O   O24       1.0  0.17980  0.75710  0.65470  1.0000
  C   C1        1.0  0.23440  0.24360  0.97470  1.0000
  C   C2        1.0  0.76560  0.75640  0.47470  1.0000
  C   C3        1.0  0.23440  0.75640  0.02530  1.0000
  C   C4        1.0  0.76560  0.24360  0.52530  1.0000
  C   C5        1.0  0.73440  0.74360  0.97470  1.0000
  C   C6        1.0  0.26560  0.25640  0.47470  1.0000
  C   C7        1.0  0.73440  0.25640  0.02530  1.0000
  C   C8        1.0  0.26560  0.74360  0.52530  1.0000
  H   H1        1.0  0.21320  0.28300  0.04590  1.0000
  H   H2        1.0  0.78680  0.71700  0.54590  1.0000
  H   H3        1.0  0.21320  0.71700  0.95410  1.0000
  H   H4        1.0  0.78680  0.28300  0.45410  1.0000
  H   H5        1.0  0.71320  0.78300  0.04590  1.0000
  H   H6        1.0  0.28680  0.21700  0.54590  1.0000
  H   H7        1.0  0.71320  0.21700  0.95410  1.0000
  H   H8        1.0  0.28680  0.78300  0.45410  1.0000
  O   O25       1.0  0.17530  0.18260  0.01660  1.0000
  O   O26       1.0  0.82470  0.81740  0.51660  1.0000
  O   O27       1.0  0.17530  0.81740  0.98340  1.0000
  O   O28       1.0  0.82470  0.18260  0.48340  1.0000
  O   O29       1.0  0.67530  0.68260  0.01660  1.0000
  O   O30       1.0  0.32470  0.31740  0.51660  1.0000
  O   O31       1.0  0.67530  0.31740  0.98340  1.0000
  O   O32       1.0  0.32470  0.68260  0.48340  1.0000
  C   C9        1.0  0.07560  0.00000  0.50000  1.0000
  C   C10       1.0  0.92440  0.00000  0.00000  1.0000
  C   C11       1.0  0.57560  0.50000  0.50000  1.0000
  C   C12       1.0  0.42440  0.50000  0.00000  1.0000
  H   H9        1.0  0.21880  0.00000  0.50000  1.0000
  H   H10       1.0  0.78120  0.00000  0.00000  1.0000
  H   H11       1.0  0.71880  0.50000  0.50000  1.0000
  H   H12       1.0  0.28120  0.50000  0.00000  1.0000
  C   C13       1.0  0.50000  0.12660  0.25000  1.0000
  C   C14       1.0  0.50000  0.87340  0.75000  1.0000
  C   C15       1.0  0.00000  0.62660  0.25000  1.0000
  C   C16       1.0  0.00000  0.37340  0.75000  1.0000
  H   H13       1.0  0.50000  0.17830  0.25000  1.0000
  H   H14       1.0  0.50000  0.82170  0.75000  1.0000
  H   H15       1.0  0.00000  0.67830  0.25000  1.0000
  H   H16       1.0  0.00000  0.32170  0.75000  1.0000
