data_image0
_chemical_formula_structural       Er4O32C4H4C4H4C4H4C4H4
_chemical_formula_sum              "Er4 O32 C16 H16"
_cell_length_a       6.6456
_cell_length_b       8.0898
_cell_length_c       20.1549
_cell_angle_alpha    90
_cell_angle_beta     90
_cell_angle_gamma    90

_space_group_name_H-M_alt    "P 1"
_space_group_IT_number       1

loop_
  _space_group_symop_operation_xyz
  'x, y, z'

loop_
  _atom_site_type_symbol
  _atom_site_label
  _atom_site_symmetry_multiplicity
  _atom_site_fract_x
  _atom_site_fract_y
  _atom_site_fract_z
  _atom_site_occupancy
  Er  Er1       1.0  0.49295  0.44471  0.61954  1.0000
  Er  Er2       1.0  0.00705  0.55529  0.11954  1.0000
  Er  Er3       1.0  0.50705  0.94471  0.88046  1.0000
  Er  Er4       1.0  0.99295  0.05529  0.38046  1.0000
  O   O1        1.0  0.50910  0.58610  0.71860  1.0000
  O   O2        1.0  0.99090  0.41390  0.21860  1.0000
  O   O3        1.0  0.49090  0.08610  0.78140  1.0000
  O   O4        1.0  0.00910  0.91390  0.28140  1.0000
  O   O5        1.0  0.49990  0.72130  0.81347  1.0000
  O   O6        1.0  0.00010  0.27870  0.31347  1.0000
  O   O7        1.0  0.50010  0.22130  0.68653  1.0000
  O   O8        1.0  0.99990  0.77870  0.18653  1.0000
  O   O9        1.0  0.31580  0.23260  0.56310  1.0000
  O   O10       1.0  0.18420  0.76740  0.06310  1.0000
  O   O11       1.0  0.68420  0.73260  0.93690  1.0000
  O   O12       1.0  0.81580  0.26740  0.43690  1.0000
  O   O13       1.0  0.16680  0.09800  0.48000  1.0000
  O   O14       1.0  0.33320  0.90200  0.98000  1.0000
  O   O15       1.0  0.83320  0.59800  0.02000  1.0000
  O   O16       1.0  0.66680  0.40200  0.52000  1.0000
  O   O17       1.0  0.16000  0.45770  0.65960  1.0000
  O   O18       1.0  0.34000  0.54230  0.15960  1.0000
  O   O19       1.0  0.84000  0.95770  0.84040  1.0000
  O   O20       1.0  0.66000  0.04230  0.34040  1.0000
  O   O21       1.0  0.82750  0.43440  0.65530  1.0000
  O   O22       1.0  0.67250  0.56560  0.15530  1.0000
  O   O23       1.0  0.17250  0.93440  0.84470  1.0000
  O   O24       1.0  0.32750  0.06560  0.34470  1.0000
  O   O25       1.0  0.59580  0.72210  0.59100  1.0000
  O   O26       1.0  0.90420  0.27790  0.09100  1.0000
  O   O27       1.0  0.40420  0.22210  0.90900  1.0000
  O   O28       1.0  0.09580  0.77790  0.40900  1.0000
  O   O29       1.0  0.32420  0.62690  0.54310  1.0000
  O   O30       1.0  0.17580  0.37310  0.04310  1.0000
  O   O31       1.0  0.67580  0.12690  0.95690  1.0000
  O   O32       1.0  0.82420  0.87310  0.45690  1.0000
  C   C1        1.0  0.42100  0.66600  0.76130  1.0000
  C   C2        1.0  0.07900  0.33400  0.26130  1.0000
  C   C3        1.0  0.57900  0.16600  0.73870  1.0000
  C   C4        1.0  0.92100  0.83400  0.23870  1.0000
  H   H1        1.0  0.28500  0.68740  0.75460  1.0000
  H   H2        1.0  0.21500  0.31260  0.25460  1.0000
  H   H3        1.0  0.71500  0.18740  0.74540  1.0000
  H   H4        1.0  0.78500  0.81260  0.24540  1.0000
  C   C5        1.0  0.25290  0.22510  0.50580  1.0000
  C   C6        1.0  0.24710  0.77490  0.00580  1.0000
  C   C7        1.0  0.74710  0.72510  0.99420  1.0000
  C   C8        1.0  0.75290  0.27490  0.49420  1.0000
  H   H5        1.0  0.26860  0.31810  0.47920  1.0000
  H   H6        1.0  0.23140  0.68190  0.97920  1.0000
  H   H7        1.0  0.73140  0.81810  0.02080  1.0000
  H   H8        1.0  0.76860  0.18190  0.52080  1.0000
  C   C9        1.0  0.99650  0.46880  0.63080  1.0000
  C   C10       1.0  0.50350  0.53120  0.13080  1.0000
  C   C11       1.0  0.00350  0.96880  0.86920  1.0000
  C   C12       1.0  0.49650  0.03120  0.36920  1.0000
  H   H9        1.0  0.99860  0.50590  0.58710  1.0000
  H   H10       1.0  0.50140  0.49410  0.08710  1.0000
  H   H11       1.0  0.00140  0.00590  0.91290  1.0000
  H   H12       1.0  0.49860  0.99410  0.41290  1.0000
  C   C13       1.0  0.44640  0.73730  0.55280  1.0000
  C   C14       1.0  0.05360  0.26270  0.05280  1.0000
  C   C15       1.0  0.55360  0.23730  0.94720  1.0000
  C   C16       1.0  0.94640  0.76270  0.44720  1.0000
  H   H13       1.0  0.42830  0.83750  0.53100  1.0000
  H   H14       1.0  0.07170  0.16250  0.03100  1.0000
  H   H15       1.0  0.57170  0.33750  0.96900  1.0000
  H   H16       1.0  0.92830  0.66250  0.46900  1.0000
