data_image0
_chemical_formula_structural       Er2O16C2H2C2H2C2H2C2H2
_chemical_formula_sum              "Er2 O16 C8 H8"
_cell_length_a       6.6118
_cell_length_b       7.5662
_cell_length_c       9.2756
_cell_angle_alpha    90
_cell_angle_beta     99.8267
_cell_angle_gamma    90

_space_group_name_H-M_alt    "P 1"
_space_group_IT_number       1

loop_
  _space_group_symop_operation_xyz
  'x, y, z'

loop_
  _atom_site_type_symbol
  _atom_site_label
  _atom_site_symmetry_multiplicity
  _atom_site_fract_x
  _atom_site_fract_y
  _atom_site_fract_z
  _atom_site_occupancy
  Er  Er1       1.0  0.16154  0.27135  0.29299  1.0000
  Er  Er2       1.0  0.83846  0.77135  0.70701  1.0000
  O   O1        1.0  0.38760  0.34980  0.52020  1.0000
  O   O2        1.0  0.61240  0.84980  0.47980  1.0000
  O   O3        1.0  0.62470  0.52190  0.65360  1.0000
  O   O4        1.0  0.37530  0.02190  0.34640  1.0000
  O   O5        1.0  0.47350  0.33790  0.22420  1.0000
  O   O6        1.0  0.52650  0.83790  0.77580  1.0000
  O   O7        1.0  0.80860  0.36310  0.23800  1.0000
  O   O8        1.0  0.19140  0.86310  0.76200  1.0000
  O   O9        1.0  0.11500  0.36970  0.04270  1.0000
  O   O10       1.0  0.88500  0.86970  0.95730  1.0000
  O   O11       1.0  0.00190  0.53330  0.84710  1.0000
  O   O12       1.0  0.99810  0.03330  0.15290  1.0000
  O   O13       1.0  0.13460  0.57330  0.33430  1.0000
  O   O14       1.0  0.86540  0.07330  0.66570  1.0000
  O   O15       1.0  0.98250  0.63310  0.52510  1.0000
  O   O16       1.0  0.01750  0.13310  0.47490  1.0000
  C   C1        1.0  0.52830  0.46610  0.53630  1.0000
  C   C2        1.0  0.47170  0.96610  0.46370  1.0000
  H   H1        1.0  0.56230  0.51420  0.45130  1.0000
  H   H2        1.0  0.43770  0.01420  0.54870  1.0000
  C   C3        1.0  0.65170  0.27680  0.24220  1.0000
  C   C4        1.0  0.34830  0.77680  0.75780  1.0000
  H   H3        1.0  0.66720  0.15620  0.26020  1.0000
  H   H4        1.0  0.33280  0.65620  0.73980  1.0000
  C   C5        1.0  0.01260  0.49220  0.97920  1.0000
  C   C6        1.0  0.98740  0.99220  0.02080  1.0000
  H   H5        1.0  0.93660  0.56000  0.03430  1.0000
  H   H6        1.0  0.06340  0.06000  0.96570  1.0000
  C   C7        1.0  0.07000  0.67540  0.42160  1.0000
  C   C8        1.0  0.93000  0.17540  0.57840  1.0000
  H   H7        1.0  0.08920  0.79560  0.40790  1.0000
  H   H8        1.0  0.91080  0.29560  0.59210  1.0000
