data_image0
_chemical_formula_structural       Er4O24C8H8O8C4H4C4H4
_chemical_formula_sum              "Er4 O32 C16 H16"
_cell_length_a       6.6514
_cell_length_b       18.347
_cell_length_c       8.4311
_cell_angle_alpha    90
_cell_angle_beta     90
_cell_angle_gamma    90

_space_group_name_H-M_alt    "P 1"
_space_group_IT_number       1

loop_
  _space_group_symop_operation_xyz
  'x, y, z'

loop_
  _atom_site_type_symbol
  _atom_site_label
  _atom_site_symmetry_multiplicity
  _atom_site_fract_x
  _atom_site_fract_y
  _atom_site_fract_z
  _atom_site_occupancy
  Er  Er1       1.0  0.00000  0.14272  0.25000  1.0000
  Er  Er2       1.0  0.00000  0.85728  0.75000  1.0000
  Er  Er3       1.0  0.50000  0.64272  0.25000  1.0000
  Er  Er4       1.0  0.50000  0.35728  0.75000  1.0000
  O   O1        1.0  0.98730  0.05010  0.43040  1.0000
  O   O2        1.0  0.01270  0.94990  0.93040  1.0000
  O   O3        1.0  0.98730  0.94990  0.56960  1.0000
  O   O4        1.0  0.01270  0.05010  0.06960  1.0000
  O   O5        1.0  0.48730  0.55010  0.43040  1.0000
  O   O6        1.0  0.51270  0.44990  0.93040  1.0000
  O   O7        1.0  0.48730  0.44990  0.56960  1.0000
  O   O8        1.0  0.51270  0.55010  0.06960  1.0000
  O   O9        1.0  0.66470  0.09510  0.22860  1.0000
  O   O10       1.0  0.33530  0.90490  0.72860  1.0000
  O   O11       1.0  0.66470  0.90490  0.77140  1.0000
  O   O12       1.0  0.33530  0.09510  0.27140  1.0000
  O   O13       1.0  0.16470  0.59510  0.22860  1.0000
  O   O14       1.0  0.83530  0.40490  0.72860  1.0000
  O   O15       1.0  0.16470  0.40490  0.77140  1.0000
  O   O16       1.0  0.83530  0.59510  0.27140  1.0000
  O   O17       1.0  0.31940  0.25790  0.84720  1.0000
  O   O18       1.0  0.68060  0.74210  0.34720  1.0000
  O   O19       1.0  0.31940  0.74210  0.15280  1.0000
  O   O20       1.0  0.68060  0.25790  0.65280  1.0000
  O   O21       1.0  0.81940  0.75790  0.84720  1.0000
  O   O22       1.0  0.18060  0.24210  0.34720  1.0000
  O   O23       1.0  0.81940  0.24210  0.15280  1.0000
  O   O24       1.0  0.18060  0.75790  0.65280  1.0000
  C   C1        1.0  0.23700  0.24400  0.97490  1.0000
  C   C2        1.0  0.76300  0.75600  0.47490  1.0000
  C   C3        1.0  0.23700  0.75600  0.02510  1.0000
  C   C4        1.0  0.76300  0.24400  0.52510  1.0000
  C   C5        1.0  0.73700  0.74400  0.97490  1.0000
  C   C6        1.0  0.26300  0.25600  0.47490  1.0000
  C   C7        1.0  0.73700  0.25600  0.02510  1.0000
  C   C8        1.0  0.26300  0.74400  0.52510  1.0000
  H   H1        1.0  0.21970  0.28260  0.04510  1.0000
  H   H2        1.0  0.78030  0.71740  0.54510  1.0000
  H   H3        1.0  0.21970  0.71740  0.95490  1.0000
  H   H4        1.0  0.78030  0.28260  0.45490  1.0000
  H   H5        1.0  0.71970  0.78260  0.04510  1.0000
  H   H6        1.0  0.28030  0.21740  0.54510  1.0000
  H   H7        1.0  0.71970  0.21740  0.95490  1.0000
  H   H8        1.0  0.28030  0.78260  0.45490  1.0000
  O   O25       1.0  0.17510  0.18360  0.01820  1.0000
  O   O26       1.0  0.82490  0.81640  0.51820  1.0000
  O   O27       1.0  0.17510  0.81640  0.98180  1.0000
  O   O28       1.0  0.82490  0.18360  0.48180  1.0000
  O   O29       1.0  0.67510  0.68360  0.01820  1.0000
  O   O30       1.0  0.32490  0.31640  0.51820  1.0000
  O   O31       1.0  0.67510  0.31640  0.98180  1.0000
  O   O32       1.0  0.32490  0.68360  0.48180  1.0000
  C   C9        1.0  0.07590  0.00000  0.50000  1.0000
  C   C10       1.0  0.92410  0.00000  0.00000  1.0000
  C   C11       1.0  0.57590  0.50000  0.50000  1.0000
  C   C12       1.0  0.42410  0.50000  0.00000  1.0000
  H   H9        1.0  0.21570  0.00000  0.50000  1.0000
  H   H10       1.0  0.78430  0.00000  0.00000  1.0000
  H   H11       1.0  0.71570  0.50000  0.50000  1.0000
  H   H12       1.0  0.28430  0.50000  0.00000  1.0000
  C   C13       1.0  0.50000  0.12630  0.25000  1.0000
  C   C14       1.0  0.50000  0.87370  0.75000  1.0000
  C   C15       1.0  0.00000  0.62630  0.25000  1.0000
  C   C16       1.0  0.00000  0.37370  0.75000  1.0000
  H   H13       1.0  0.50000  0.17700  0.25000  1.0000
  H   H14       1.0  0.50000  0.82300  0.75000  1.0000
  H   H15       1.0  0.00000  0.67700  0.25000  1.0000
  H   H16       1.0  0.00000  0.32300  0.75000  1.0000
