data_image0
_chemical_formula_structural       Er2O16C2H2C2H2C2H2C2H2
_chemical_formula_sum              "Er2 O16 C8 H8"
_cell_length_a       6.5447
_cell_length_b       7.4781
_cell_length_c       8.7578
_cell_angle_alpha    90
_cell_angle_beta     93.8955
_cell_angle_gamma    90

_space_group_name_H-M_alt    "P 1"
_space_group_IT_number       1

loop_
  _space_group_symop_operation_xyz
  'x, y, z'

loop_
  _atom_site_type_symbol
  _atom_site_label
  _atom_site_symmetry_multiplicity
  _atom_site_fract_x
  _atom_site_fract_y
  _atom_site_fract_z
  _atom_site_occupancy
  Er  Er1       1.0  0.18579  0.27131  0.28931  1.0000
  Er  Er2       1.0  0.81421  0.77131  0.71069  1.0000
  O   O1        1.0  0.39500  0.34090  0.52030  1.0000
  O   O2        1.0  0.60500  0.84090  0.47970  1.0000
  O   O3        1.0  0.60900  0.51490  0.66060  1.0000
  O   O4        1.0  0.39100  0.01490  0.33940  1.0000
  O   O5        1.0  0.50420  0.33150  0.18990  1.0000
  O   O6        1.0  0.49580  0.83150  0.81010  1.0000
  O   O7        1.0  0.83750  0.36050  0.23780  1.0000
  O   O8        1.0  0.16250  0.86050  0.76220  1.0000
  O   O9        1.0  0.14870  0.38650  0.03120  1.0000
  O   O10       1.0  0.85130  0.88650  0.96880  1.0000
  O   O11       1.0  0.95470  0.53250  0.85310  1.0000
  O   O12       1.0  0.04530  0.03250  0.14690  1.0000
  O   O13       1.0  0.17100  0.57970  0.32200  1.0000
  O   O14       1.0  0.82900  0.07970  0.67800  1.0000
  O   O15       1.0  0.98250  0.63490  0.51740  1.0000
  O   O16       1.0  0.01750  0.13490  0.48260  1.0000
  C   C1        1.0  0.53090  0.46030  0.53540  1.0000
  C   C2        1.0  0.46910  0.96030  0.46460  1.0000
  H   H1        1.0  0.57610  0.51120  0.44690  1.0000
  H   H2        1.0  0.42390  0.01120  0.55310  1.0000
  C   C3        1.0  0.67980  0.26900  0.22730  1.0000
  C   C4        1.0  0.32020  0.76900  0.77270  1.0000
  H   H3        1.0  0.69110  0.14730  0.24800  1.0000
  H   H4        1.0  0.30890  0.64730  0.75200  1.0000
  C   C5        1.0  0.03030  0.50970  0.98480  1.0000
  C   C6        1.0  0.96970  0.00970  0.01520  1.0000
  H   H5        1.0  0.99560  0.59310  0.05740  1.0000
  H   H6        1.0  0.00440  0.09310  0.94260  1.0000
  C   C7        1.0  0.06720  0.68060  0.40200  1.0000
  C   C8        1.0  0.93280  0.18060  0.59800  1.0000
  H   H7        1.0  0.05330  0.79940  0.37150  1.0000
  H   H8        1.0  0.94670  0.29940  0.62850  1.0000
