data_image0
_chemical_formula_structural       Er4O32C8H8C4H4C4H4
_chemical_formula_sum              "Er4 O32 C16 H16"
_cell_length_a       6.6552
_cell_length_b       18.3549
_cell_length_c       8.4346
_cell_angle_alpha    90
_cell_angle_beta     90
_cell_angle_gamma    90

_space_group_name_H-M_alt    "P 1"
_space_group_IT_number       1

loop_
  _space_group_symop_operation_xyz
  'x, y, z'

loop_
  _atom_site_type_symbol
  _atom_site_label
  _atom_site_symmetry_multiplicity
  _atom_site_fract_x
  _atom_site_fract_y
  _atom_site_fract_z
  _atom_site_occupancy
  Er  Er1       1.0  0.50000  0.35729  0.75000  1.0000
  Er  Er2       1.0  0.50000  0.64271  0.25000  1.0000
  Er  Er3       1.0  0.00000  0.85729  0.75000  1.0000
  Er  Er4       1.0  0.00000  0.14271  0.25000  1.0000
  O   O1        1.0  0.32070  0.25808  0.84710  1.0000
  O   O2        1.0  0.67930  0.74192  0.34710  1.0000
  O   O3        1.0  0.67930  0.25808  0.65290  1.0000
  O   O4        1.0  0.32070  0.74192  0.15290  1.0000
  O   O5        1.0  0.82070  0.75808  0.84710  1.0000
  O   O6        1.0  0.17930  0.24192  0.34710  1.0000
  O   O7        1.0  0.17930  0.75808  0.65290  1.0000
  O   O8        1.0  0.82070  0.24192  0.15290  1.0000
  O   O9        1.0  0.17430  0.18375  0.01890  1.0000
  O   O10       1.0  0.82570  0.81625  0.51890  1.0000
  O   O11       1.0  0.82570  0.18375  0.48110  1.0000
  O   O12       1.0  0.17430  0.81625  0.98110  1.0000
  O   O13       1.0  0.67430  0.68375  0.01890  1.0000
  O   O14       1.0  0.32570  0.31625  0.51890  1.0000
  O   O15       1.0  0.32570  0.68375  0.48110  1.0000
  O   O16       1.0  0.67430  0.31625  0.98110  1.0000
  O   O17       1.0  0.16560  0.40540  0.76870  1.0000
  O   O18       1.0  0.83440  0.59460  0.26870  1.0000
  O   O19       1.0  0.83440  0.40540  0.73130  1.0000
  O   O20       1.0  0.16560  0.59460  0.23130  1.0000
  O   O21       1.0  0.66560  0.90540  0.76870  1.0000
  O   O22       1.0  0.33440  0.09460  0.26870  1.0000
  O   O23       1.0  0.33440  0.90540  0.73130  1.0000
  O   O24       1.0  0.66560  0.09460  0.23130  1.0000
  O   O25       1.0  0.48890  0.45012  0.57030  1.0000
  O   O26       1.0  0.51110  0.54988  0.07030  1.0000
  O   O27       1.0  0.51110  0.45012  0.92970  1.0000
  O   O28       1.0  0.48890  0.54988  0.42970  1.0000
  O   O29       1.0  0.98890  0.95012  0.57030  1.0000
  O   O30       1.0  0.01110  0.04988  0.07030  1.0000
  O   O31       1.0  0.01110  0.95012  0.92970  1.0000
  O   O32       1.0  0.98890  0.04988  0.42970  1.0000
  C   C1        1.0  0.23710  0.24390  0.97530  1.0000
  C   C2        1.0  0.76290  0.75610  0.47530  1.0000
  C   C3        1.0  0.76290  0.24390  0.52470  1.0000
  C   C4        1.0  0.23710  0.75610  0.02470  1.0000
  C   C5        1.0  0.73710  0.74390  0.97530  1.0000
  C   C6        1.0  0.26290  0.25610  0.47530  1.0000
  C   C7        1.0  0.26290  0.74390  0.52470  1.0000
  C   C8        1.0  0.73710  0.25610  0.02470  1.0000
  H   H1        1.0  0.22000  0.28250  0.04550  1.0000
  H   H2        1.0  0.78000  0.71750  0.54550  1.0000
  H   H3        1.0  0.78000  0.28250  0.45450  1.0000
  H   H4        1.0  0.22000  0.71750  0.95450  1.0000
  H   H5        1.0  0.72000  0.78250  0.04550  1.0000
  H   H6        1.0  0.28000  0.21750  0.54550  1.0000
  H   H7        1.0  0.28000  0.78250  0.45450  1.0000
  H   H8        1.0  0.72000  0.21750  0.95450  1.0000
  C   C9        1.0  0.00000  0.37430  0.75000  1.0000
  C   C10       1.0  0.00000  0.62570  0.25000  1.0000
  C   C11       1.0  0.50000  0.87430  0.75000  1.0000
  C   C12       1.0  0.50000  0.12570  0.25000  1.0000
  H   H9        1.0  0.00000  0.32360  0.75000  1.0000
  H   H10       1.0  0.00000  0.67640  0.25000  1.0000
  H   H11       1.0  0.50000  0.82360  0.75000  1.0000
  H   H12       1.0  0.50000  0.17640  0.25000  1.0000
  C   C13       1.0  0.57410  0.50000  0.50000  1.0000
  C   C14       1.0  0.42590  0.50000  0.00000  1.0000
  C   C15       1.0  0.07410  0.00000  0.50000  1.0000
  C   C16       1.0  0.92590  0.00000  0.00000  1.0000
  H   H13       1.0  0.71380  0.50000  0.50000  1.0000
  H   H14       1.0  0.28620  0.50000  0.00000  1.0000
  H   H15       1.0  0.21380  0.00000  0.50000  1.0000
  H   H16       1.0  0.78620  0.00000  0.00000  1.0000
