data_image0
_chemical_formula_structural       Ag24S16O48C16H16C16H16N16C48H16O16C32H16C32H16N16C16H16C32H16C16H32C16H32C16H16C16H32C16H16C32H16C16H16C16H16C16H16N16
_chemical_formula_sum              "Ag24 S16 O64 C352 H304 N48"
_cell_length_a       57.1724
_cell_length_b       17.5555
_cell_length_c       10.4111
_cell_angle_alpha    90
_cell_angle_beta     90
_cell_angle_gamma    90

_space_group_name_H-M_alt    "P 1"
_space_group_IT_number       1

loop_
  _space_group_symop_operation_xyz
  'x, y, z'

loop_
  _atom_site_type_symbol
  _atom_site_label
  _atom_site_symmetry_multiplicity
  _atom_site_fract_x
  _atom_site_fract_y
  _atom_site_fract_z
  _atom_site_occupancy
  Ag  Ag1       1.0  0.00000  0.50000  0.70357  1.0000
  Ag  Ag2       1.0  0.25000  0.75000  0.95357  1.0000
  Ag  Ag3       1.0  0.00000  0.00000  0.20357  1.0000
  Ag  Ag4       1.0  0.25000  0.25000  0.45357  1.0000
  Ag  Ag5       1.0  0.50000  0.50000  0.20357  1.0000
  Ag  Ag6       1.0  0.75000  0.75000  0.45357  1.0000
  Ag  Ag7       1.0  0.50000  0.00000  0.70357  1.0000
  Ag  Ag8       1.0  0.75000  0.25000  0.95357  1.0000
  Ag  Ag9       1.0  0.20321  0.34238  0.67637  1.0000
  Ag  Ag10      1.0  0.79679  0.65762  0.67637  1.0000
  Ag  Ag11      1.0  0.04679  0.59238  0.92637  1.0000
  Ag  Ag12      1.0  0.45321  0.90762  0.92637  1.0000
  Ag  Ag13      1.0  0.20321  0.84238  0.17637  1.0000
  Ag  Ag14      1.0  0.79679  0.15762  0.17637  1.0000
  Ag  Ag15      1.0  0.04679  0.09238  0.42637  1.0000
  Ag  Ag16      1.0  0.45321  0.40762  0.42637  1.0000
  Ag  Ag17      1.0  0.70321  0.34238  0.17637  1.0000
  Ag  Ag18      1.0  0.29679  0.65762  0.17637  1.0000
  Ag  Ag19      1.0  0.54679  0.59238  0.42637  1.0000
  Ag  Ag20      1.0  0.95321  0.90762  0.42637  1.0000
  Ag  Ag21      1.0  0.70321  0.84238  0.67637  1.0000
  Ag  Ag22      1.0  0.29679  0.15762  0.67637  1.0000
  Ag  Ag23      1.0  0.54679  0.09238  0.92637  1.0000
  Ag  Ag24      1.0  0.95321  0.40762  0.92637  1.0000
  S   S1        1.0  0.30087  0.58250  0.85434  1.0000
  S   S2        1.0  0.69913  0.41750  0.85434  1.0000
  S   S3        1.0  0.94913  0.83250  0.10434  1.0000
  S   S4        1.0  0.55087  0.66750  0.10434  1.0000
  S   S5        1.0  0.30087  0.08250  0.35434  1.0000
  S   S6        1.0  0.69913  0.91750  0.35434  1.0000
  S   S7        1.0  0.94913  0.33250  0.60434  1.0000
  S   S8        1.0  0.55087  0.16750  0.60434  1.0000
  S   S9        1.0  0.80087  0.58250  0.35434  1.0000
  S   S10       1.0  0.19913  0.41750  0.35434  1.0000
  S   S11       1.0  0.44913  0.83250  0.60434  1.0000
  S   S12       1.0  0.05087  0.66750  0.60434  1.0000
  S   S13       1.0  0.80087  0.08250  0.85434  1.0000
  S   S14       1.0  0.19913  0.91750  0.85434  1.0000
  S   S15       1.0  0.44913  0.33250  0.10434  1.0000
  S   S16       1.0  0.05087  0.16750  0.10434  1.0000
  O   O1        1.0  0.30666  0.61170  0.72760  1.0000
  O   O2        1.0  0.69334  0.38830  0.72760  1.0000
  O   O3        1.0  0.94334  0.86170  0.97760  1.0000
  O   O4        1.0  0.55666  0.63830  0.97760  1.0000
  O   O5        1.0  0.30666  0.11170  0.22760  1.0000
  O   O6        1.0  0.69334  0.88830  0.22760  1.0000
  O   O7        1.0  0.94334  0.36170  0.47760  1.0000
  O   O8        1.0  0.55666  0.13830  0.47760  1.0000
  O   O9        1.0  0.80666  0.61170  0.22760  1.0000
  O   O10       1.0  0.19334  0.38830  0.22760  1.0000
  O   O11       1.0  0.44334  0.86170  0.47760  1.0000
  O   O12       1.0  0.05666  0.63830  0.47760  1.0000
  O   O13       1.0  0.80666  0.11170  0.72760  1.0000
  O   O14       1.0  0.19334  0.88830  0.72760  1.0000
  O   O15       1.0  0.44334  0.36170  0.97760  1.0000
  O   O16       1.0  0.05666  0.13830  0.97760  1.0000
  O   O17       1.0  0.28705  0.63610  0.92900  1.0000
  O   O18       1.0  0.71295  0.36390  0.92900  1.0000
  O   O19       1.0  0.96295  0.88610  0.17900  1.0000
  O   O20       1.0  0.53705  0.61390  0.17900  1.0000
  O   O21       1.0  0.28705  0.13610  0.42900  1.0000
  O   O22       1.0  0.71295  0.86390  0.42900  1.0000
  O   O23       1.0  0.96295  0.38610  0.67900  1.0000
  O   O24       1.0  0.53705  0.11390  0.67900  1.0000
  O   O25       1.0  0.78705  0.63610  0.42900  1.0000
  O   O26       1.0  0.21295  0.36390  0.42900  1.0000
  O   O27       1.0  0.46295  0.88610  0.67900  1.0000
  O   O28       1.0  0.03705  0.61390  0.67900  1.0000
  O   O29       1.0  0.78705  0.13610  0.92900  1.0000
  O   O30       1.0  0.21295  0.86390  0.92900  1.0000
  O   O31       1.0  0.46295  0.38610  0.17900  1.0000
  O   O32       1.0  0.03705  0.11390  0.17900  1.0000
  O   O33       1.0  0.32157  0.55600  0.92270  1.0000
  O   O34       1.0  0.67843  0.44400  0.92270  1.0000
  O   O35       1.0  0.92843  0.80600  0.17270  1.0000
  O   O36       1.0  0.57157  0.69400  0.17270  1.0000
  O   O37       1.0  0.32157  0.05600  0.42270  1.0000
  O   O38       1.0  0.67843  0.94400  0.42270  1.0000
  O   O39       1.0  0.92843  0.30600  0.67270  1.0000
  O   O40       1.0  0.57157  0.19400  0.67270  1.0000
  O   O41       1.0  0.82157  0.55600  0.42270  1.0000
  O   O42       1.0  0.17843  0.44400  0.42270  1.0000
  O   O43       1.0  0.42843  0.80600  0.67270  1.0000
  O   O44       1.0  0.07157  0.69400  0.67270  1.0000
  O   O45       1.0  0.82157  0.05600  0.92270  1.0000
  O   O46       1.0  0.17843  0.94400  0.92270  1.0000
  O   O47       1.0  0.42843  0.30600  0.17270  1.0000
  O   O48       1.0  0.07157  0.19400  0.17270  1.0000
  C   C1        1.0  0.22839  0.58120  0.67900  1.0000
  C   C2        1.0  0.77161  0.41880  0.67900  1.0000
  C   C3        1.0  0.02161  0.83120  0.92900  1.0000
  C   C4        1.0  0.47839  0.66880  0.92900  1.0000
  C   C5        1.0  0.22839  0.08120  0.17900  1.0000
  C   C6        1.0  0.77161  0.91880  0.17900  1.0000
  C   C7        1.0  0.02161  0.33120  0.42900  1.0000
  C   C8        1.0  0.47839  0.16880  0.42900  1.0000
  C   C9        1.0  0.72839  0.58120  0.17900  1.0000
  C   C10       1.0  0.27161  0.41880  0.17900  1.0000
  C   C11       1.0  0.52161  0.83120  0.42900  1.0000
  C   C12       1.0  0.97839  0.66880  0.42900  1.0000
  C   C13       1.0  0.72839  0.08120  0.67900  1.0000
  C   C14       1.0  0.27161  0.91880  0.67900  1.0000
  C   C15       1.0  0.52161  0.33120  0.92900  1.0000
  C   C16       1.0  0.97839  0.16880  0.92900  1.0000
  H   H1        1.0  0.22230  0.62660  0.64720  1.0000
  H   H2        1.0  0.77770  0.37340  0.64720  1.0000
  H   H3        1.0  0.02770  0.87660  0.89720  1.0000
  H   H4        1.0  0.47230  0.62340  0.89720  1.0000
  H   H5        1.0  0.22230  0.12660  0.14720  1.0000
  H   H6        1.0  0.77770  0.87340  0.14720  1.0000
  H   H7        1.0  0.02770  0.37660  0.39720  1.0000
  H   H8        1.0  0.47230  0.12340  0.39720  1.0000
  H   H9        1.0  0.72230  0.62660  0.14720  1.0000
  H   H10       1.0  0.27770  0.37340  0.14720  1.0000
  H   H11       1.0  0.52770  0.87660  0.39720  1.0000
  H   H12       1.0  0.97230  0.62340  0.39720  1.0000
  H   H13       1.0  0.72230  0.12660  0.64720  1.0000
  H   H14       1.0  0.27770  0.87340  0.64720  1.0000
  H   H15       1.0  0.52770  0.37660  0.89720  1.0000
  H   H16       1.0  0.97230  0.12340  0.89720  1.0000
  C   C17       1.0  0.21512  0.51450  0.67430  1.0000
  C   C18       1.0  0.78488  0.48550  0.67430  1.0000
  C   C19       1.0  0.03488  0.76450  0.92430  1.0000
  C   C20       1.0  0.46512  0.73550  0.92430  1.0000
  C   C21       1.0  0.21512  0.01450  0.17430  1.0000
  C   C22       1.0  0.78488  0.98550  0.17430  1.0000
  C   C23       1.0  0.03488  0.26450  0.42430  1.0000
  C   C24       1.0  0.46512  0.23550  0.42430  1.0000
  C   C25       1.0  0.71512  0.51450  0.17430  1.0000
  C   C26       1.0  0.28488  0.48550  0.17430  1.0000
  C   C27       1.0  0.53488  0.76450  0.42430  1.0000
  C   C28       1.0  0.96512  0.73550  0.42430  1.0000
  C   C29       1.0  0.71512  0.01450  0.67430  1.0000
  C   C30       1.0  0.28488  0.98550  0.67430  1.0000
  C   C31       1.0  0.53488  0.26450  0.92430  1.0000
  C   C32       1.0  0.96512  0.23550  0.92430  1.0000
  H   H17       1.0  0.20010  0.51660  0.64040  1.0000
  H   H18       1.0  0.79990  0.48340  0.64040  1.0000
  H   H19       1.0  0.04990  0.76660  0.89040  1.0000
  H   H20       1.0  0.45010  0.73340  0.89040  1.0000
  H   H21       1.0  0.20010  0.01660  0.14040  1.0000
  H   H22       1.0  0.79990  0.98340  0.14040  1.0000
  H   H23       1.0  0.04990  0.26660  0.39040  1.0000
  H   H24       1.0  0.45010  0.23340  0.39040  1.0000
  H   H25       1.0  0.70010  0.51660  0.14040  1.0000
  H   H26       1.0  0.29990  0.48340  0.14040  1.0000
  H   H27       1.0  0.54990  0.76660  0.39040  1.0000
  H   H28       1.0  0.95010  0.73340  0.39040  1.0000
  H   H29       1.0  0.70010  0.01660  0.64040  1.0000
  H   H30       1.0  0.29990  0.98340  0.64040  1.0000
  H   H31       1.0  0.54990  0.26660  0.89040  1.0000
  H   H32       1.0  0.95010  0.23340  0.89040  1.0000
  N   N1        1.0  0.22319  0.44800  0.71650  1.0000
  N   N2        1.0  0.77681  0.55200  0.71650  1.0000
  N   N3        1.0  0.02681  0.69800  0.96650  1.0000
  N   N4        1.0  0.47319  0.80200  0.96650  1.0000
  N   N5        1.0  0.22319  0.94800  0.21650  1.0000
  N   N6        1.0  0.77681  0.05200  0.21650  1.0000
  N   N7        1.0  0.02681  0.19800  0.46650  1.0000
  N   N8        1.0  0.47319  0.30200  0.46650  1.0000
  N   N9        1.0  0.72319  0.44800  0.21650  1.0000
  N   N10       1.0  0.27681  0.55200  0.21650  1.0000
  N   N11       1.0  0.52681  0.69800  0.46650  1.0000
  N   N12       1.0  0.97319  0.80200  0.46650  1.0000
  N   N13       1.0  0.72319  0.94800  0.71650  1.0000
  N   N14       1.0  0.27681  0.05200  0.71650  1.0000
  N   N15       1.0  0.52681  0.19800  0.96650  1.0000
  N   N16       1.0  0.97319  0.30200  0.96650  1.0000
  C   C33       1.0  0.24531  0.44420  0.76950  1.0000
  C   C34       1.0  0.75469  0.55580  0.76950  1.0000
  C   C35       1.0  0.00469  0.69420  0.01950  1.0000
  C   C36       1.0  0.49531  0.80580  0.01950  1.0000
  C   C37       1.0  0.24531  0.94420  0.26950  1.0000
  C   C38       1.0  0.75469  0.05580  0.26950  1.0000
  C   C39       1.0  0.00469  0.19420  0.51950  1.0000
  C   C40       1.0  0.49531  0.30580  0.51950  1.0000
  C   C41       1.0  0.74531  0.44420  0.26950  1.0000
  C   C42       1.0  0.25469  0.55580  0.26950  1.0000
  C   C43       1.0  0.50469  0.69420  0.51950  1.0000
  C   C44       1.0  0.99531  0.80580  0.51950  1.0000
  C   C45       1.0  0.74531  0.94420  0.76950  1.0000
  C   C46       1.0  0.25469  0.05580  0.76950  1.0000
  C   C47       1.0  0.50469  0.19420  0.01950  1.0000
  C   C48       1.0  0.99531  0.30580  0.01950  1.0000
  C   C49       1.0  0.25973  0.51010  0.77820  1.0000
  C   C50       1.0  0.74027  0.48990  0.77820  1.0000
  C   C51       1.0  0.99027  0.76010  0.02820  1.0000
  C   C52       1.0  0.50973  0.73990  0.02820  1.0000
  C   C53       1.0  0.25973  0.01010  0.27820  1.0000
  C   C54       1.0  0.74027  0.98990  0.27820  1.0000
  C   C55       1.0  0.99027  0.26010  0.52820  1.0000
  C   C56       1.0  0.50973  0.23990  0.52820  1.0000
  C   C57       1.0  0.75973  0.51010  0.27820  1.0000
  C   C58       1.0  0.24027  0.48990  0.27820  1.0000
  C   C59       1.0  0.49027  0.76010  0.52820  1.0000
  C   C60       1.0  0.00973  0.73990  0.52820  1.0000
  C   C61       1.0  0.75973  0.01010  0.77820  1.0000
  C   C62       1.0  0.24027  0.98990  0.77820  1.0000
  C   C63       1.0  0.49027  0.26010  0.02820  1.0000
  C   C64       1.0  0.00973  0.23990  0.02820  1.0000
  C   C65       1.0  0.25048  0.57960  0.73060  1.0000
  C   C66       1.0  0.74952  0.42040  0.73060  1.0000
  C   C67       1.0  0.99952  0.82960  0.98060  1.0000
  C   C68       1.0  0.50048  0.67040  0.98060  1.0000
  C   C69       1.0  0.25048  0.07960  0.23060  1.0000
  C   C70       1.0  0.74952  0.92040  0.23060  1.0000
  C   C71       1.0  0.99952  0.32960  0.48060  1.0000
  C   C72       1.0  0.50048  0.17040  0.48060  1.0000
  C   C73       1.0  0.75048  0.57960  0.23060  1.0000
  C   C74       1.0  0.24952  0.42040  0.23060  1.0000
  C   C75       1.0  0.49952  0.82960  0.48060  1.0000
  C   C76       1.0  0.00048  0.67040  0.48060  1.0000
  C   C77       1.0  0.75048  0.07960  0.73060  1.0000
  C   C78       1.0  0.24952  0.92040  0.73060  1.0000
  C   C79       1.0  0.49952  0.32960  0.98060  1.0000
  C   C80       1.0  0.00048  0.17040  0.98060  1.0000
  H   H33       1.0  0.25940  0.62390  0.73440  1.0000
  H   H34       1.0  0.74060  0.37610  0.73440  1.0000
  H   H35       1.0  0.99060  0.87390  0.98440  1.0000
  H   H36       1.0  0.50940  0.62610  0.98440  1.0000
  H   H37       1.0  0.25940  0.12390  0.23440  1.0000
  H   H38       1.0  0.74060  0.87610  0.23440  1.0000
  H   H39       1.0  0.99060  0.37390  0.48440  1.0000
  H   H40       1.0  0.50940  0.12610  0.48440  1.0000
  H   H41       1.0  0.75940  0.62390  0.23440  1.0000
  H   H42       1.0  0.24060  0.37610  0.23440  1.0000
  H   H43       1.0  0.49060  0.87390  0.48440  1.0000
  H   H44       1.0  0.00940  0.62610  0.48440  1.0000
  H   H45       1.0  0.75940  0.12390  0.73440  1.0000
  H   H46       1.0  0.24060  0.87610  0.73440  1.0000
  H   H47       1.0  0.49060  0.37390  0.98440  1.0000
  H   H48       1.0  0.00940  0.12610  0.98440  1.0000
  O   O49       1.0  0.23963  0.31070  0.80120  1.0000
  O   O50       1.0  0.76037  0.68930  0.80120  1.0000
  O   O51       1.0  0.01037  0.56070  0.05120  1.0000
  O   O52       1.0  0.48963  0.93930  0.05120  1.0000
  O   O53       1.0  0.23963  0.81070  0.30120  1.0000
  O   O54       1.0  0.76037  0.18930  0.30120  1.0000
  O   O55       1.0  0.01037  0.06070  0.55120  1.0000
  O   O56       1.0  0.48963  0.43930  0.55120  1.0000
  O   O57       1.0  0.73963  0.31070  0.30120  1.0000
  O   O58       1.0  0.26037  0.68930  0.30120  1.0000
  O   O59       1.0  0.51037  0.56070  0.55120  1.0000
  O   O60       1.0  0.98963  0.93930  0.55120  1.0000
  O   O61       1.0  0.73963  0.81070  0.80120  1.0000
  O   O62       1.0  0.26037  0.18930  0.80120  1.0000
  O   O63       1.0  0.51037  0.06070  0.05120  1.0000
  O   O64       1.0  0.98963  0.43930  0.05120  1.0000
  C   C81       1.0  0.28267  0.50200  0.83120  1.0000
  C   C82       1.0  0.71733  0.49800  0.83120  1.0000
  C   C83       1.0  0.96733  0.75200  0.08120  1.0000
  C   C84       1.0  0.53267  0.74800  0.08120  1.0000
  C   C85       1.0  0.28267  0.00200  0.33120  1.0000
  C   C86       1.0  0.71733  0.99800  0.33120  1.0000
  C   C87       1.0  0.96733  0.25200  0.58120  1.0000
  C   C88       1.0  0.53267  0.24800  0.58120  1.0000
  C   C89       1.0  0.78267  0.50200  0.33120  1.0000
  C   C90       1.0  0.21733  0.49800  0.33120  1.0000
  C   C91       1.0  0.46733  0.75200  0.58120  1.0000
  C   C92       1.0  0.03267  0.74800  0.58120  1.0000
  C   C93       1.0  0.78267  0.00200  0.83120  1.0000
  C   C94       1.0  0.21733  0.99800  0.83120  1.0000
  C   C95       1.0  0.46733  0.25200  0.08120  1.0000
  C   C96       1.0  0.03267  0.24800  0.08120  1.0000
  C   C97       1.0  0.27660  0.36630  0.85450  1.0000
  C   C98       1.0  0.72340  0.63370  0.85450  1.0000
  C   C99       1.0  0.97340  0.61630  0.10450  1.0000
  C   C100      1.0  0.52660  0.88370  0.10450  1.0000
  C   C101      1.0  0.27660  0.86630  0.35450  1.0000
  C   C102      1.0  0.72340  0.13370  0.35450  1.0000
  C   C103      1.0  0.97340  0.11630  0.60450  1.0000
  C   C104      1.0  0.52660  0.38370  0.60450  1.0000
  C   C105      1.0  0.77660  0.36630  0.35450  1.0000
  C   C106      1.0  0.22340  0.63370  0.35450  1.0000
  C   C107      1.0  0.47340  0.61630  0.60450  1.0000
  C   C108      1.0  0.02660  0.88370  0.60450  1.0000
  C   C109      1.0  0.77660  0.86630  0.85450  1.0000
  C   C110      1.0  0.22340  0.13370  0.85450  1.0000
  C   C111      1.0  0.47340  0.11630  0.10450  1.0000
  C   C112      1.0  0.02660  0.38370  0.10450  1.0000
  H   H49       1.0  0.28250  0.31920  0.87890  1.0000
  H   H50       1.0  0.71750  0.68080  0.87890  1.0000
  H   H51       1.0  0.96750  0.56920  0.12890  1.0000
  H   H52       1.0  0.53250  0.93080  0.12890  1.0000
  H   H53       1.0  0.28250  0.81920  0.37890  1.0000
  H   H54       1.0  0.71750  0.18080  0.37890  1.0000
  H   H55       1.0  0.96750  0.06920  0.62890  1.0000
  H   H56       1.0  0.53250  0.43080  0.62890  1.0000
  H   H57       1.0  0.78250  0.31920  0.37890  1.0000
  H   H58       1.0  0.21750  0.68080  0.37890  1.0000
  H   H59       1.0  0.46750  0.56920  0.62890  1.0000
  H   H60       1.0  0.03250  0.93080  0.62890  1.0000
  H   H61       1.0  0.78250  0.81920  0.87890  1.0000
  H   H62       1.0  0.21750  0.18080  0.87890  1.0000
  H   H63       1.0  0.46750  0.06920  0.12890  1.0000
  H   H64       1.0  0.03250  0.43080  0.12890  1.0000
  C   C113      1.0  0.25374  0.37110  0.80800  1.0000
  C   C114      1.0  0.74626  0.62890  0.80800  1.0000
  C   C115      1.0  0.99626  0.62110  0.05800  1.0000
  C   C116      1.0  0.50374  0.87890  0.05800  1.0000
  C   C117      1.0  0.25374  0.87110  0.30800  1.0000
  C   C118      1.0  0.74626  0.12890  0.30800  1.0000
  C   C119      1.0  0.99626  0.12110  0.55800  1.0000
  C   C120      1.0  0.50374  0.37890  0.55800  1.0000
  C   C121      1.0  0.75374  0.37110  0.30800  1.0000
  C   C122      1.0  0.24626  0.62890  0.30800  1.0000
  C   C123      1.0  0.49626  0.62110  0.55800  1.0000
  C   C124      1.0  0.00374  0.87890  0.55800  1.0000
  C   C125      1.0  0.75374  0.87110  0.80800  1.0000
  C   C126      1.0  0.24626  0.12890  0.80800  1.0000
  C   C127      1.0  0.49626  0.12110  0.05800  1.0000
  C   C128      1.0  0.00374  0.37890  0.05800  1.0000
  C   C129      1.0  0.29088  0.43110  0.86520  1.0000
  C   C130      1.0  0.70912  0.56890  0.86520  1.0000
  C   C131      1.0  0.95912  0.68110  0.11520  1.0000
  C   C132      1.0  0.54088  0.81890  0.11520  1.0000
  C   C133      1.0  0.29088  0.93110  0.36520  1.0000
  C   C134      1.0  0.70912  0.06890  0.36520  1.0000
  C   C135      1.0  0.95912  0.18110  0.61520  1.0000
  C   C136      1.0  0.54088  0.31890  0.61520  1.0000
  C   C137      1.0  0.79088  0.43110  0.36520  1.0000
  C   C138      1.0  0.20912  0.56890  0.36520  1.0000
  C   C139      1.0  0.45912  0.68110  0.61520  1.0000
  C   C140      1.0  0.04088  0.81890  0.61520  1.0000
  C   C141      1.0  0.79088  0.93110  0.86520  1.0000
  C   C142      1.0  0.20912  0.06890  0.86520  1.0000
  C   C143      1.0  0.45912  0.18110  0.11520  1.0000
  C   C144      1.0  0.04088  0.31890  0.11520  1.0000
  H   H65       1.0  0.30610  0.42610  0.89580  1.0000
  H   H66       1.0  0.69390  0.57390  0.89580  1.0000
  H   H67       1.0  0.94390  0.67610  0.14580  1.0000
  H   H68       1.0  0.55610  0.82390  0.14580  1.0000
  H   H69       1.0  0.30610  0.92610  0.39580  1.0000
  H   H70       1.0  0.69390  0.07390  0.39580  1.0000
  H   H71       1.0  0.94390  0.17610  0.64580  1.0000
  H   H72       1.0  0.55610  0.32390  0.64580  1.0000
  H   H73       1.0  0.80610  0.42610  0.39580  1.0000
  H   H74       1.0  0.19390  0.57390  0.39580  1.0000
  H   H75       1.0  0.44390  0.67610  0.64580  1.0000
  H   H76       1.0  0.05610  0.82390  0.64580  1.0000
  H   H77       1.0  0.80610  0.92610  0.89580  1.0000
  H   H78       1.0  0.19390  0.07390  0.89580  1.0000
  H   H79       1.0  0.44390  0.17610  0.14580  1.0000
  H   H80       1.0  0.05610  0.32390  0.14580  1.0000
  N   N17       1.0  0.17225  0.27290  0.66290  1.0000
  N   N18       1.0  0.82775  0.72710  0.66290  1.0000
  N   N19       1.0  0.07775  0.52290  0.91290  1.0000
  N   N20       1.0  0.42225  0.97710  0.91290  1.0000
  N   N21       1.0  0.17225  0.77290  0.16290  1.0000
  N   N22       1.0  0.82775  0.22710  0.16290  1.0000
  N   N23       1.0  0.07775  0.02290  0.41290  1.0000
  N   N24       1.0  0.42225  0.47710  0.41290  1.0000
  N   N25       1.0  0.67225  0.27290  0.16290  1.0000
  N   N26       1.0  0.32775  0.72710  0.16290  1.0000
  N   N27       1.0  0.57775  0.52290  0.41290  1.0000
  N   N28       1.0  0.92225  0.97710  0.41290  1.0000
  N   N29       1.0  0.67225  0.77290  0.66290  1.0000
  N   N30       1.0  0.32775  0.22710  0.66290  1.0000
  N   N31       1.0  0.57775  0.02290  0.91290  1.0000
  N   N32       1.0  0.92225  0.47710  0.91290  1.0000
  C   C145      1.0  0.15645  0.28710  0.56740  1.0000
  C   C146      1.0  0.84355  0.71290  0.56740  1.0000
  C   C147      1.0  0.09355  0.53710  0.81740  1.0000
  C   C148      1.0  0.40645  0.96290  0.81740  1.0000
  C   C149      1.0  0.15645  0.78710  0.06740  1.0000
  C   C150      1.0  0.84355  0.21290  0.06740  1.0000
  C   C151      1.0  0.09355  0.03710  0.31740  1.0000
  C   C152      1.0  0.40645  0.46290  0.31740  1.0000
  C   C153      1.0  0.65645  0.28710  0.06740  1.0000
  C   C154      1.0  0.34355  0.71290  0.06740  1.0000
  C   C155      1.0  0.59355  0.53710  0.31740  1.0000
  C   C156      1.0  0.90645  0.96290  0.31740  1.0000
  C   C157      1.0  0.65645  0.78710  0.56740  1.0000
  C   C158      1.0  0.34355  0.21290  0.56740  1.0000
  C   C159      1.0  0.59355  0.03710  0.81740  1.0000
  C   C160      1.0  0.90645  0.46290  0.81740  1.0000
  H   H81       1.0  0.15970  0.32510  0.50780  1.0000
  H   H82       1.0  0.84030  0.67490  0.50780  1.0000
  H   H83       1.0  0.09030  0.57510  0.75780  1.0000
  H   H84       1.0  0.40970  0.92490  0.75780  1.0000
  H   H85       1.0  0.15970  0.82510  0.00780  1.0000
  H   H86       1.0  0.84030  0.17490  0.00780  1.0000
  H   H87       1.0  0.09030  0.07510  0.25780  1.0000
  H   H88       1.0  0.40970  0.42490  0.25780  1.0000
  H   H89       1.0  0.65970  0.32510  0.00780  1.0000
  H   H90       1.0  0.34030  0.67490  0.00780  1.0000
  H   H91       1.0  0.59030  0.57510  0.25780  1.0000
  H   H92       1.0  0.90970  0.92490  0.25780  1.0000
  H   H93       1.0  0.65970  0.82510  0.50780  1.0000
  H   H94       1.0  0.34030  0.17490  0.50780  1.0000
  H   H95       1.0  0.59030  0.07510  0.75780  1.0000
  H   H96       1.0  0.90970  0.42490  0.75780  1.0000
  C   C161      1.0  0.12998  0.19090  0.64480  1.0000
  C   C162      1.0  0.87002  0.80910  0.64480  1.0000
  C   C163      1.0  0.12002  0.44090  0.89480  1.0000
  C   C164      1.0  0.37998  0.05910  0.89480  1.0000
  C   C165      1.0  0.12998  0.69090  0.14480  1.0000
  C   C166      1.0  0.87002  0.30910  0.14480  1.0000
  C   C167      1.0  0.12002  0.94090  0.39480  1.0000
  C   C168      1.0  0.37998  0.55910  0.39480  1.0000
  C   C169      1.0  0.62998  0.19090  0.14480  1.0000
  C   C170      1.0  0.37002  0.80910  0.14480  1.0000
  C   C171      1.0  0.62002  0.44090  0.39480  1.0000
  C   C172      1.0  0.87998  0.05910  0.39480  1.0000
  C   C173      1.0  0.62998  0.69090  0.64480  1.0000
  C   C174      1.0  0.37002  0.30910  0.64480  1.0000
  C   C175      1.0  0.62002  0.94090  0.89480  1.0000
  C   C176      1.0  0.87998  0.55910  0.89480  1.0000
  C   C177      1.0  0.13575  0.24670  0.55620  1.0000
  C   C178      1.0  0.86425  0.75330  0.55620  1.0000
  C   C179      1.0  0.11425  0.49670  0.80620  1.0000
  C   C180      1.0  0.38575  0.00330  0.80620  1.0000
  C   C181      1.0  0.13575  0.74670  0.05620  1.0000
  C   C182      1.0  0.86425  0.25330  0.05620  1.0000
  C   C183      1.0  0.11425  0.99670  0.30620  1.0000
  C   C184      1.0  0.38575  0.50330  0.30620  1.0000
  C   C185      1.0  0.63575  0.24670  0.05620  1.0000
  C   C186      1.0  0.36425  0.75330  0.05620  1.0000
  C   C187      1.0  0.61425  0.49670  0.30620  1.0000
  C   C188      1.0  0.88575  0.00330  0.30620  1.0000
  C   C189      1.0  0.63575  0.74670  0.55620  1.0000
  C   C190      1.0  0.36425  0.25330  0.55620  1.0000
  C   C191      1.0  0.61425  0.99670  0.80620  1.0000
  C   C192      1.0  0.88575  0.50330  0.80620  1.0000
  H   H97       1.0  0.12560  0.25720  0.48860  1.0000
  H   H98       1.0  0.87440  0.74280  0.48860  1.0000
  H   H99       1.0  0.12440  0.50720  0.73860  1.0000
  H   H100      1.0  0.37560  0.99280  0.73860  1.0000
  H   H101      1.0  0.12560  0.75720  0.98860  1.0000
  H   H102      1.0  0.87440  0.24280  0.98860  1.0000
  H   H103      1.0  0.12440  0.00720  0.23860  1.0000
  H   H104      1.0  0.37560  0.49280  0.23860  1.0000
  H   H105      1.0  0.62560  0.25720  0.98860  1.0000
  H   H106      1.0  0.37440  0.74280  0.98860  1.0000
  H   H107      1.0  0.62440  0.50720  0.23860  1.0000
  H   H108      1.0  0.87560  0.99280  0.23860  1.0000
  H   H109      1.0  0.62560  0.75720  0.48860  1.0000
  H   H110      1.0  0.37440  0.24280  0.48860  1.0000
  H   H111      1.0  0.62440  0.00720  0.73860  1.0000
  H   H112      1.0  0.87560  0.49280  0.73860  1.0000
  C   C193      1.0  0.08399  0.25520  0.74320  1.0000
  C   C194      1.0  0.91601  0.74480  0.74320  1.0000
  C   C195      1.0  0.16601  0.50520  0.99320  1.0000
  C   C196      1.0  0.33399  0.99480  0.99320  1.0000
  C   C197      1.0  0.08399  0.75520  0.24320  1.0000
  C   C198      1.0  0.91601  0.24480  0.24320  1.0000
  C   C199      1.0  0.16601  0.00520  0.49320  1.0000
  C   C200      1.0  0.33399  0.49480  0.49320  1.0000
  C   C201      1.0  0.58399  0.25520  0.24320  1.0000
  C   C202      1.0  0.41601  0.74480  0.24320  1.0000
  C   C203      1.0  0.66601  0.50520  0.49320  1.0000
  C   C204      1.0  0.83399  0.99480  0.49320  1.0000
  C   C205      1.0  0.58399  0.75520  0.74320  1.0000
  C   C206      1.0  0.41601  0.24480  0.74320  1.0000
  C   C207      1.0  0.66601  0.00520  0.99320  1.0000
  C   C208      1.0  0.83399  0.49480  0.99320  1.0000
  H   H113      1.0  0.08140  0.22550  0.82050  1.0000
  H   H114      1.0  0.91860  0.77450  0.82050  1.0000
  H   H115      1.0  0.16860  0.47550  0.07050  1.0000
  H   H116      1.0  0.33140  0.02450  0.07050  1.0000
  H   H117      1.0  0.08140  0.72550  0.32050  1.0000
  H   H118      1.0  0.91860  0.27450  0.32050  1.0000
  H   H119      1.0  0.16860  0.97550  0.57050  1.0000
  H   H120      1.0  0.33140  0.52450  0.57050  1.0000
  H   H121      1.0  0.58140  0.22550  0.32050  1.0000
  H   H122      1.0  0.41860  0.77450  0.32050  1.0000
  H   H123      1.0  0.66860  0.47550  0.57050  1.0000
  H   H124      1.0  0.83140  0.02450  0.57050  1.0000
  H   H125      1.0  0.58140  0.72550  0.82050  1.0000
  H   H126      1.0  0.41860  0.27450  0.82050  1.0000
  H   H127      1.0  0.66860  0.97550  0.07050  1.0000
  H   H128      1.0  0.83140  0.52450  0.07050  1.0000
  H   H129      1.0  0.09870  0.28220  0.75280  1.0000
  H   H130      1.0  0.90130  0.71780  0.75280  1.0000
  H   H131      1.0  0.15130  0.53220  0.00280  1.0000
  H   H132      1.0  0.34870  0.96780  0.00280  1.0000
  H   H133      1.0  0.09870  0.78220  0.25280  1.0000
  H   H134      1.0  0.90130  0.21780  0.25280  1.0000
  H   H135      1.0  0.15130  0.03220  0.50280  1.0000
  H   H136      1.0  0.34870  0.46780  0.50280  1.0000
  H   H137      1.0  0.59870  0.28220  0.25280  1.0000
  H   H138      1.0  0.40130  0.71780  0.25280  1.0000
  H   H139      1.0  0.65130  0.53220  0.50280  1.0000
  H   H140      1.0  0.84870  0.96780  0.50280  1.0000
  H   H141      1.0  0.59870  0.78220  0.75280  1.0000
  H   H142      1.0  0.40130  0.21780  0.75280  1.0000
  H   H143      1.0  0.65130  0.03220  0.00280  1.0000
  H   H144      1.0  0.84870  0.46780  0.00280  1.0000
  C   C209      1.0  0.10699  0.14840  0.63780  1.0000
  C   C210      1.0  0.89301  0.85160  0.63780  1.0000
  C   C211      1.0  0.14301  0.39840  0.88780  1.0000
  C   C212      1.0  0.35699  0.10160  0.88780  1.0000
  C   C213      1.0  0.10699  0.64840  0.13780  1.0000
  C   C214      1.0  0.89301  0.35160  0.13780  1.0000
  C   C215      1.0  0.14301  0.89840  0.38780  1.0000
  C   C216      1.0  0.35699  0.60160  0.38780  1.0000
  C   C217      1.0  0.60699  0.14840  0.13780  1.0000
  C   C218      1.0  0.39301  0.85160  0.13780  1.0000
  C   C219      1.0  0.64301  0.39840  0.38780  1.0000
  C   C220      1.0  0.85699  0.10160  0.38780  1.0000
  C   C221      1.0  0.60699  0.64840  0.63780  1.0000
  C   C222      1.0  0.39301  0.35160  0.63780  1.0000
  C   C223      1.0  0.64301  0.89840  0.88780  1.0000
  C   C224      1.0  0.85699  0.60160  0.88780  1.0000
  H   H145      1.0  0.10540  0.11670  0.71360  1.0000
  H   H146      1.0  0.89460  0.88330  0.71360  1.0000
  H   H147      1.0  0.14460  0.36670  0.96360  1.0000
  H   H148      1.0  0.35540  0.13330  0.96360  1.0000
  H   H149      1.0  0.10540  0.61670  0.21360  1.0000
  H   H150      1.0  0.89460  0.38330  0.21360  1.0000
  H   H151      1.0  0.14460  0.86670  0.46360  1.0000
  H   H152      1.0  0.35540  0.63330  0.46360  1.0000
  H   H153      1.0  0.60540  0.11670  0.21360  1.0000
  H   H154      1.0  0.39460  0.88330  0.21360  1.0000
  H   H155      1.0  0.64460  0.36670  0.46360  1.0000
  H   H156      1.0  0.85540  0.13330  0.46360  1.0000
  H   H157      1.0  0.60540  0.61670  0.71360  1.0000
  H   H158      1.0  0.39460  0.38330  0.71360  1.0000
  H   H159      1.0  0.64460  0.86670  0.96360  1.0000
  H   H160      1.0  0.85540  0.63330  0.96360  1.0000
  H   H161      1.0  0.10720  0.11520  0.56340  1.0000
  H   H162      1.0  0.89280  0.88480  0.56340  1.0000
  H   H163      1.0  0.14280  0.36520  0.81340  1.0000
  H   H164      1.0  0.35720  0.13480  0.81340  1.0000
  H   H165      1.0  0.10720  0.61520  0.06340  1.0000
  H   H166      1.0  0.89280  0.38480  0.06340  1.0000
  H   H167      1.0  0.14280  0.86520  0.31340  1.0000
  H   H168      1.0  0.35720  0.63480  0.31340  1.0000
  H   H169      1.0  0.60720  0.11520  0.06340  1.0000
  H   H170      1.0  0.39280  0.88480  0.06340  1.0000
  H   H171      1.0  0.64280  0.36520  0.31340  1.0000
  H   H172      1.0  0.85720  0.13480  0.31340  1.0000
  H   H173      1.0  0.60720  0.61520  0.56340  1.0000
  H   H174      1.0  0.39280  0.38480  0.56340  1.0000
  H   H175      1.0  0.64280  0.86520  0.81340  1.0000
  H   H176      1.0  0.85720  0.63480  0.81340  1.0000
  C   C225      1.0  0.16678  0.21860  0.74680  1.0000
  C   C226      1.0  0.83322  0.78140  0.74680  1.0000
  C   C227      1.0  0.08322  0.46860  0.99680  1.0000
  C   C228      1.0  0.41678  0.03140  0.99680  1.0000
  C   C229      1.0  0.16678  0.71860  0.24680  1.0000
  C   C230      1.0  0.83322  0.28140  0.24680  1.0000
  C   C231      1.0  0.08322  0.96860  0.49680  1.0000
  C   C232      1.0  0.41678  0.53140  0.49680  1.0000
  C   C233      1.0  0.66678  0.21860  0.24680  1.0000
  C   C234      1.0  0.33322  0.78140  0.24680  1.0000
  C   C235      1.0  0.58322  0.46860  0.49680  1.0000
  C   C236      1.0  0.91678  0.03140  0.49680  1.0000
  C   C237      1.0  0.66678  0.71860  0.74680  1.0000
  C   C238      1.0  0.33322  0.28140  0.74680  1.0000
  C   C239      1.0  0.58322  0.96860  0.99680  1.0000
  C   C240      1.0  0.91678  0.53140  0.99680  1.0000
  H   H177      1.0  0.17740  0.20760  0.81200  1.0000
  H   H178      1.0  0.82260  0.79240  0.81200  1.0000
  H   H179      1.0  0.07260  0.45760  0.06200  1.0000
  H   H180      1.0  0.42740  0.04240  0.06200  1.0000
  H   H181      1.0  0.17740  0.70760  0.31200  1.0000
  H   H182      1.0  0.82260  0.29240  0.31200  1.0000
  H   H183      1.0  0.07260  0.95760  0.56200  1.0000
  H   H184      1.0  0.42740  0.54240  0.56200  1.0000
  H   H185      1.0  0.67740  0.20760  0.31200  1.0000
  H   H186      1.0  0.32260  0.79240  0.31200  1.0000
  H   H187      1.0  0.57260  0.45760  0.56200  1.0000
  H   H188      1.0  0.92740  0.04240  0.56200  1.0000
  H   H189      1.0  0.67740  0.70760  0.81200  1.0000
  H   H190      1.0  0.32260  0.29240  0.81200  1.0000
  H   H191      1.0  0.57260  0.95760  0.06200  1.0000
  H   H192      1.0  0.92740  0.54240  0.06200  1.0000
  C   C241      1.0  0.08566  0.20170  0.62860  1.0000
  C   C242      1.0  0.91434  0.79830  0.62860  1.0000
  C   C243      1.0  0.16434  0.45170  0.87860  1.0000
  C   C244      1.0  0.33566  0.04830  0.87860  1.0000
  C   C245      1.0  0.08566  0.70170  0.12860  1.0000
  C   C246      1.0  0.91434  0.29830  0.12860  1.0000
  C   C247      1.0  0.16434  0.95170  0.37860  1.0000
  C   C248      1.0  0.33566  0.54830  0.37860  1.0000
  C   C249      1.0  0.58566  0.20170  0.12860  1.0000
  C   C250      1.0  0.41434  0.79830  0.12860  1.0000
  C   C251      1.0  0.66434  0.45170  0.37860  1.0000
  C   C252      1.0  0.83566  0.04830  0.37860  1.0000
  C   C253      1.0  0.58566  0.70170  0.62860  1.0000
  C   C254      1.0  0.41434  0.29830  0.62860  1.0000
  C   C255      1.0  0.66434  0.95170  0.87860  1.0000
  C   C256      1.0  0.83566  0.54830  0.87860  1.0000
  H   H193      1.0  0.08680  0.23150  0.55040  1.0000
  H   H194      1.0  0.91320  0.76850  0.55040  1.0000
  H   H195      1.0  0.16320  0.48150  0.80040  1.0000
  H   H196      1.0  0.33680  0.01850  0.80040  1.0000
  H   H197      1.0  0.08680  0.73150  0.05040  1.0000
  H   H198      1.0  0.91320  0.26850  0.05040  1.0000
  H   H199      1.0  0.16320  0.98150  0.30040  1.0000
  H   H200      1.0  0.33680  0.51850  0.30040  1.0000
  H   H201      1.0  0.58680  0.23150  0.05040  1.0000
  H   H202      1.0  0.41320  0.76850  0.05040  1.0000
  H   H203      1.0  0.66320  0.48150  0.30040  1.0000
  H   H204      1.0  0.83680  0.01850  0.30040  1.0000
  H   H205      1.0  0.58680  0.73150  0.55040  1.0000
  H   H206      1.0  0.41320  0.26850  0.55040  1.0000
  H   H207      1.0  0.66320  0.98150  0.80040  1.0000
  H   H208      1.0  0.83680  0.51850  0.80040  1.0000
  H   H209      1.0  0.07150  0.17120  0.62380  1.0000
  H   H210      1.0  0.92850  0.82880  0.62380  1.0000
  H   H211      1.0  0.17850  0.42120  0.87380  1.0000
  H   H212      1.0  0.32150  0.07880  0.87380  1.0000
  H   H213      1.0  0.07150  0.67120  0.12380  1.0000
  H   H214      1.0  0.92850  0.32880  0.12380  1.0000
  H   H215      1.0  0.17850  0.92120  0.37380  1.0000
  H   H216      1.0  0.32150  0.57880  0.37380  1.0000
  H   H217      1.0  0.57150  0.17120  0.12380  1.0000
  H   H218      1.0  0.42850  0.82880  0.12380  1.0000
  H   H219      1.0  0.67850  0.42120  0.37380  1.0000
  H   H220      1.0  0.82150  0.07880  0.37380  1.0000
  H   H221      1.0  0.57150  0.67120  0.62380  1.0000
  H   H222      1.0  0.42850  0.32880  0.62380  1.0000
  H   H223      1.0  0.67850  0.92120  0.87380  1.0000
  H   H224      1.0  0.82150  0.57880  0.87380  1.0000
  C   C257      1.0  0.14573  0.17690  0.74170  1.0000
  C   C258      1.0  0.85427  0.82310  0.74170  1.0000
  C   C259      1.0  0.10427  0.42690  0.99170  1.0000
  C   C260      1.0  0.39573  0.07310  0.99170  1.0000
  C   C261      1.0  0.14573  0.67690  0.24170  1.0000
  C   C262      1.0  0.85427  0.32310  0.24170  1.0000
  C   C263      1.0  0.10427  0.92690  0.49170  1.0000
  C   C264      1.0  0.39573  0.57310  0.49170  1.0000
  C   C265      1.0  0.64573  0.17690  0.24170  1.0000
  C   C266      1.0  0.35427  0.82310  0.24170  1.0000
  C   C267      1.0  0.60427  0.42690  0.49170  1.0000
  C   C268      1.0  0.89573  0.07310  0.49170  1.0000
  C   C269      1.0  0.64573  0.67690  0.74170  1.0000
  C   C270      1.0  0.35427  0.32310  0.74170  1.0000
  C   C271      1.0  0.60427  0.92690  0.99170  1.0000
  C   C272      1.0  0.89573  0.57310  0.99170  1.0000
  H   H225      1.0  0.14250  0.14020  0.80360  1.0000
  H   H226      1.0  0.85750  0.85980  0.80360  1.0000
  H   H227      1.0  0.10750  0.39020  0.05360  1.0000
  H   H228      1.0  0.39250  0.10980  0.05360  1.0000
  H   H229      1.0  0.14250  0.64020  0.30360  1.0000
  H   H230      1.0  0.85750  0.35980  0.30360  1.0000
  H   H231      1.0  0.10750  0.89020  0.55360  1.0000
  H   H232      1.0  0.39250  0.60980  0.55360  1.0000
  H   H233      1.0  0.64250  0.14020  0.30360  1.0000
  H   H234      1.0  0.35750  0.85980  0.30360  1.0000
  H   H235      1.0  0.60750  0.39020  0.55360  1.0000
  H   H236      1.0  0.89250  0.10980  0.55360  1.0000
  H   H237      1.0  0.64250  0.64020  0.80360  1.0000
  H   H238      1.0  0.35750  0.35980  0.80360  1.0000
  H   H239      1.0  0.60750  0.89020  0.05360  1.0000
  H   H240      1.0  0.89250  0.60980  0.05360  1.0000
  C   C273      1.0  0.06440  0.31250  0.72890  1.0000
  C   C274      1.0  0.93560  0.68750  0.72890  1.0000
  C   C275      1.0  0.18560  0.56250  0.97890  1.0000
  C   C276      1.0  0.31440  0.93750  0.97890  1.0000
  C   C277      1.0  0.06440  0.81250  0.22890  1.0000
  C   C278      1.0  0.93560  0.18750  0.22890  1.0000
  C   C279      1.0  0.18560  0.06250  0.47890  1.0000
  C   C280      1.0  0.31440  0.43750  0.47890  1.0000
  C   C281      1.0  0.56440  0.31250  0.22890  1.0000
  C   C282      1.0  0.43560  0.68750  0.22890  1.0000
  C   C283      1.0  0.68560  0.56250  0.47890  1.0000
  C   C284      1.0  0.81440  0.93750  0.47890  1.0000
  C   C285      1.0  0.56440  0.81250  0.72890  1.0000
  C   C286      1.0  0.43560  0.18750  0.72890  1.0000
  C   C287      1.0  0.68560  0.06250  0.97890  1.0000
  C   C288      1.0  0.81440  0.43750  0.97890  1.0000
  C   C289      1.0  0.06782  0.38330  0.67360  1.0000
  C   C290      1.0  0.93218  0.61670  0.67360  1.0000
  C   C291      1.0  0.18218  0.63330  0.92360  1.0000
  C   C292      1.0  0.31782  0.86670  0.92360  1.0000
  C   C293      1.0  0.06782  0.88330  0.17360  1.0000
  C   C294      1.0  0.93218  0.11670  0.17360  1.0000
  C   C295      1.0  0.18218  0.13330  0.42360  1.0000
  C   C296      1.0  0.31782  0.36670  0.42360  1.0000
  C   C297      1.0  0.56782  0.38330  0.17360  1.0000
  C   C298      1.0  0.43218  0.61670  0.17360  1.0000
  C   C299      1.0  0.68218  0.63330  0.42360  1.0000
  C   C300      1.0  0.81782  0.86670  0.42360  1.0000
  C   C301      1.0  0.56782  0.88330  0.67360  1.0000
  C   C302      1.0  0.43218  0.11670  0.67360  1.0000
  C   C303      1.0  0.68218  0.13330  0.92360  1.0000
  C   C304      1.0  0.81782  0.36670  0.92360  1.0000
  H   H241      1.0  0.08240  0.39590  0.64080  1.0000
  H   H242      1.0  0.91760  0.60410  0.64080  1.0000
  H   H243      1.0  0.16760  0.64590  0.89080  1.0000
  H   H244      1.0  0.33240  0.85410  0.89080  1.0000
  H   H245      1.0  0.08240  0.89590  0.14080  1.0000
  H   H246      1.0  0.91760  0.10410  0.14080  1.0000
  H   H247      1.0  0.16760  0.14590  0.39080  1.0000
  H   H248      1.0  0.33240  0.35410  0.39080  1.0000
  H   H249      1.0  0.58240  0.39590  0.14080  1.0000
  H   H250      1.0  0.41760  0.60410  0.14080  1.0000
  H   H251      1.0  0.66760  0.64590  0.39080  1.0000
  H   H252      1.0  0.83240  0.85410  0.39080  1.0000
  H   H253      1.0  0.58240  0.89590  0.64080  1.0000
  H   H254      1.0  0.41760  0.10410  0.64080  1.0000
  H   H255      1.0  0.66760  0.14590  0.89080  1.0000
  H   H256      1.0  0.83240  0.35410  0.89080  1.0000
  C   C305      1.0  0.04134  0.29480  0.76480  1.0000
  C   C306      1.0  0.95866  0.70520  0.76480  1.0000
  C   C307      1.0  0.20866  0.54480  0.01480  1.0000
  C   C308      1.0  0.29134  0.95520  0.01480  1.0000
  C   C309      1.0  0.04134  0.79480  0.26480  1.0000
  C   C310      1.0  0.95866  0.20520  0.26480  1.0000
  C   C311      1.0  0.20866  0.04480  0.51480  1.0000
  C   C312      1.0  0.29134  0.45520  0.51480  1.0000
  C   C313      1.0  0.54134  0.29480  0.26480  1.0000
  C   C314      1.0  0.45866  0.70520  0.26480  1.0000
  C   C315      1.0  0.70866  0.54480  0.51480  1.0000
  C   C316      1.0  0.79134  0.95520  0.51480  1.0000
  C   C317      1.0  0.54134  0.79480  0.76480  1.0000
  C   C318      1.0  0.45866  0.20520  0.76480  1.0000
  C   C319      1.0  0.70866  0.04480  0.01480  1.0000
  C   C320      1.0  0.79134  0.45520  0.01480  1.0000
  H   H257      1.0  0.03770  0.24650  0.79550  1.0000
  H   H258      1.0  0.96230  0.75350  0.79550  1.0000
  H   H259      1.0  0.21230  0.49650  0.04550  1.0000
  H   H260      1.0  0.28770  0.00350  0.04550  1.0000
  H   H261      1.0  0.03770  0.74650  0.29550  1.0000
  H   H262      1.0  0.96230  0.25350  0.29550  1.0000
  H   H263      1.0  0.21230  0.99650  0.54550  1.0000
  H   H264      1.0  0.28770  0.50350  0.54550  1.0000
  H   H265      1.0  0.53770  0.24650  0.29550  1.0000
  H   H266      1.0  0.46230  0.75350  0.29550  1.0000
  H   H267      1.0  0.71230  0.49650  0.54550  1.0000
  H   H268      1.0  0.78770  0.00350  0.54550  1.0000
  H   H269      1.0  0.53770  0.74650  0.79550  1.0000
  H   H270      1.0  0.46230  0.25350  0.79550  1.0000
  H   H271      1.0  0.71230  0.99650  0.04550  1.0000
  H   H272      1.0  0.78770  0.50350  0.04550  1.0000
  C   C321      1.0  0.04959  0.43610  0.66640  1.0000
  C   C322      1.0  0.95041  0.56390  0.66640  1.0000
  C   C323      1.0  0.20041  0.68610  0.91640  1.0000
  C   C324      1.0  0.29959  0.81390  0.91640  1.0000
  C   C325      1.0  0.04959  0.93610  0.16640  1.0000
  C   C326      1.0  0.95041  0.06390  0.16640  1.0000
  C   C327      1.0  0.20041  0.18610  0.41640  1.0000
  C   C328      1.0  0.29959  0.31390  0.41640  1.0000
  C   C329      1.0  0.54959  0.43610  0.16640  1.0000
  C   C330      1.0  0.45041  0.56390  0.16640  1.0000
  C   C331      1.0  0.70041  0.68610  0.41640  1.0000
  C   C332      1.0  0.79959  0.81390  0.41640  1.0000
  C   C333      1.0  0.54959  0.93610  0.66640  1.0000
  C   C334      1.0  0.45041  0.06390  0.66640  1.0000
  C   C335      1.0  0.70041  0.18610  0.91640  1.0000
  C   C336      1.0  0.79959  0.31390  0.91640  1.0000
  H   H273      1.0  0.05240  0.48400  0.63160  1.0000
  H   H274      1.0  0.94760  0.51600  0.63160  1.0000
  H   H275      1.0  0.19760  0.73400  0.88160  1.0000
  H   H276      1.0  0.30240  0.76600  0.88160  1.0000
  H   H277      1.0  0.05240  0.98400  0.13160  1.0000
  H   H278      1.0  0.94760  0.01600  0.13160  1.0000
  H   H279      1.0  0.19760  0.23400  0.38160  1.0000
  H   H280      1.0  0.30240  0.26600  0.38160  1.0000
  H   H281      1.0  0.55240  0.48400  0.13160  1.0000
  H   H282      1.0  0.44760  0.51600  0.13160  1.0000
  H   H283      1.0  0.69760  0.73400  0.38160  1.0000
  H   H284      1.0  0.80240  0.76600  0.38160  1.0000
  H   H285      1.0  0.55240  0.98400  0.63160  1.0000
  H   H286      1.0  0.44760  0.01600  0.63160  1.0000
  H   H287      1.0  0.69760  0.23400  0.88160  1.0000
  H   H288      1.0  0.80240  0.26600  0.88160  1.0000
  C   C337      1.0  0.02409  0.34910  0.75440  1.0000
  C   C338      1.0  0.97591  0.65090  0.75440  1.0000
  C   C339      1.0  0.22591  0.59910  0.00440  1.0000
  C   C340      1.0  0.27409  0.90090  0.00440  1.0000
  C   C341      1.0  0.02409  0.84910  0.25440  1.0000
  C   C342      1.0  0.97591  0.15090  0.25440  1.0000
  C   C343      1.0  0.22591  0.09910  0.50440  1.0000
  C   C344      1.0  0.27409  0.40090  0.50440  1.0000
  C   C345      1.0  0.52409  0.34910  0.25440  1.0000
  C   C346      1.0  0.47591  0.65090  0.25440  1.0000
  C   C347      1.0  0.72591  0.59910  0.50440  1.0000
  C   C348      1.0  0.77409  0.90090  0.50440  1.0000
  C   C349      1.0  0.52409  0.84910  0.75440  1.0000
  C   C350      1.0  0.47591  0.15090  0.75440  1.0000
  C   C351      1.0  0.72591  0.09910  0.00440  1.0000
  C   C352      1.0  0.77409  0.40090  0.00440  1.0000
  H   H289      1.0  0.00900  0.33630  0.78030  1.0000
  H   H290      1.0  0.99100  0.66370  0.78030  1.0000
  H   H291      1.0  0.24100  0.58630  0.03030  1.0000
  H   H292      1.0  0.25900  0.91370  0.03030  1.0000
  H   H293      1.0  0.00900  0.83630  0.28030  1.0000
  H   H294      1.0  0.99100  0.16370  0.28030  1.0000
  H   H295      1.0  0.24100  0.08630  0.53030  1.0000
  H   H296      1.0  0.25900  0.41370  0.53030  1.0000
  H   H297      1.0  0.50900  0.33630  0.28030  1.0000
  H   H298      1.0  0.49100  0.66370  0.28030  1.0000
  H   H299      1.0  0.74100  0.58630  0.53030  1.0000
  H   H300      1.0  0.75900  0.91370  0.53030  1.0000
  H   H301      1.0  0.50900  0.83630  0.78030  1.0000
  H   H302      1.0  0.49100  0.16370  0.78030  1.0000
  H   H303      1.0  0.74100  0.08630  0.03030  1.0000
  H   H304      1.0  0.75900  0.41370  0.03030  1.0000
  N   N33       1.0  0.02789  0.41860  0.70940  1.0000
  N   N34       1.0  0.97211  0.58140  0.70940  1.0000
  N   N35       1.0  0.22211  0.66860  0.95940  1.0000
  N   N36       1.0  0.27789  0.83140  0.95940  1.0000
  N   N37       1.0  0.02789  0.91860  0.20940  1.0000
  N   N38       1.0  0.97211  0.08140  0.20940  1.0000
  N   N39       1.0  0.22211  0.16860  0.45940  1.0000
  N   N40       1.0  0.27789  0.33140  0.45940  1.0000
  N   N41       1.0  0.52789  0.41860  0.20940  1.0000
  N   N42       1.0  0.47211  0.58140  0.20940  1.0000
  N   N43       1.0  0.72211  0.66860  0.45940  1.0000
  N   N44       1.0  0.77789  0.83140  0.45940  1.0000
  N   N45       1.0  0.52789  0.91860  0.70940  1.0000
  N   N46       1.0  0.47211  0.08140  0.70940  1.0000
  N   N47       1.0  0.72211  0.16860  0.95940  1.0000
  N   N48       1.0  0.77789  0.33140  0.95940  1.0000
