data_image0
_chemical_formula_structural       CrMo6NaO28N2C6H2C2H2C2H2C2H2
_chemical_formula_sum              "Cr1 Mo6 Na1 O28 N2 C12 H8"
_cell_length_a       10.514
_cell_length_b       10.655
_cell_length_c       12.295
_cell_angle_alpha    97.351
_cell_angle_beta     112.286
_cell_angle_gamma    113.523

_space_group_name_H-M_alt    "P 1"
_space_group_IT_number       1

loop_
  _space_group_symop_operation_xyz
  'x, y, z'

loop_
  _atom_site_type_symbol
  _atom_site_label
  _atom_site_symmetry_multiplicity
  _atom_site_fract_x
  _atom_site_fract_y
  _atom_site_fract_z
  _atom_site_occupancy
  Cr  Cr1       1.0  0.00000  0.50000  0.50000  1.0000
  Mo  Mo1       1.0  0.08126  0.47837  0.26227  1.0000
  Mo  Mo2       1.0  0.91874  0.52163  0.73773  1.0000
  Mo  Mo3       1.0  0.83418  0.18013  0.28586  1.0000
  Mo  Mo4       1.0  0.16582  0.81987  0.71414  1.0000
  Mo  Mo5       1.0  0.24759  0.79947  0.47866  1.0000
  Mo  Mo6       1.0  0.75241  0.20053  0.52134  1.0000
  Na  Na1       1.0  0.00000  0.00000  0.50000  1.0000
  O   O1        1.0  0.95330  0.42490  0.10820  1.0000
  O   O2        1.0  0.04670  0.57510  0.89180  1.0000
  O   O3        1.0  0.03300  0.29480  0.29130  1.0000
  O   O4        1.0  0.96700  0.70520  0.70870  1.0000
  O   O5        1.0  0.25940  0.51920  0.27140  1.0000
  O   O6        1.0  0.74060  0.48080  0.72860  1.0000
  O   O7        1.0  0.18830  0.56730  0.47380  1.0000
  O   O8        1.0  0.81170  0.43270  0.52620  1.0000
  O   O9        1.0  0.88080  0.41850  0.31530  1.0000
  O   O10       1.0  0.11920  0.58150  0.68470  1.0000
  O   O11       1.0  0.70870  0.12160  0.13030  1.0000
  O   O12       1.0  0.29130  0.87840  0.86970  1.0000
  O   O13       1.0  0.86250  0.03830  0.31370  1.0000
  O   O14       1.0  0.13750  0.96170  0.68630  1.0000
  O   O15       1.0  0.67650  0.16080  0.34100  1.0000
  O   O16       1.0  0.32350  0.83920  0.65900  1.0000
  O   O17       1.0  0.21730  0.94350  0.45950  1.0000
  O   O18       1.0  0.78270  0.05650  0.54050  1.0000
  O   O19       1.0  0.42470  0.84020  0.48620  1.0000
  O   O20       1.0  0.57530  0.15980  0.51380  1.0000
  O   O21       1.0  0.96430  0.30340  0.49060  1.0000
  O   O22       1.0  0.03570  0.69660  0.50940  1.0000
  O   O23       1.0  0.10510  0.67230  0.30600  1.0000
  O   O24       1.0  0.89490  0.32770  0.69400  1.0000
  O   O25       1.0  0.18130  0.25240  0.60730  1.0000
  O   O26       1.0  0.81870  0.74760  0.39270  1.0000
  O   O27       1.0  0.29030  0.44620  0.77620  1.0000
  O   O28       1.0  0.70970  0.55380  0.22380  1.0000
  N   N1        1.0  0.61170  0.20420  0.90290  1.0000
  N   N2        1.0  0.38830  0.79580  0.09710  1.0000
  C   C1        1.0  0.28290  0.33810  0.71710  1.0000
  C   C2        1.0  0.71710  0.66190  0.28290  1.0000
  C   C3        1.0  0.40490  0.29420  0.78290  1.0000
  C   C4        1.0  0.59510  0.70580  0.21710  1.0000
  C   C5        1.0  0.45350  0.22400  0.71790  1.0000
  C   C6        1.0  0.54650  0.77600  0.28210  1.0000
  H   H1        1.0  0.41450  0.20570  0.63260  1.0000
  H   H2        1.0  0.58550  0.79430  0.36740  1.0000
  C   C7        1.0  0.55950  0.18180  0.78080  1.0000
  C   C8        1.0  0.44050  0.81820  0.21920  1.0000
  H   H3        1.0  0.59530  0.13740  0.73840  1.0000
  H   H4        1.0  0.40470  0.86260  0.26160  1.0000
  C   C9        1.0  0.56940  0.27360  0.96800  1.0000
  C   C10       1.0  0.43060  0.72640  0.03200  1.0000
  H   H5        1.0  0.60920  0.28920  0.05310  1.0000
  H   H6        1.0  0.39080  0.71080  0.94690  1.0000
  C   C11       1.0  0.46810  0.32180  0.91090  1.0000
  C   C12       1.0  0.53190  0.67820  0.08910  1.0000
  H   H7        1.0  0.44130  0.37300  0.95720  1.0000
  H   H8        1.0  0.55870  0.62700  0.04280  1.0000
