data_image0
_chemical_formula_structural       Cr4Mo24Na4O96N8C24H8C8H8C8H8C8H8O16
_chemical_formula_sum              "Cr4 Mo24 Na4 O112 N8 C48 H32"
_cell_length_a       22.084
_cell_length_b       9.4366
_cell_length_c       21.011
_cell_angle_alpha    90
_cell_angle_beta     98.517
_cell_angle_gamma    90

_space_group_name_H-M_alt    "P 1"
_space_group_IT_number       1

loop_
  _space_group_symop_operation_xyz
  'x, y, z'

loop_
  _atom_site_type_symbol
  _atom_site_label
  _atom_site_symmetry_multiplicity
  _atom_site_fract_x
  _atom_site_fract_y
  _atom_site_fract_z
  _atom_site_occupancy
  Cr  Cr1       1.0  0.00000  0.00000  0.00000  1.0000
  Cr  Cr2       1.0  0.00000  0.00000  0.50000  1.0000
  Cr  Cr3       1.0  0.50000  0.50000  0.00000  1.0000
  Cr  Cr4       1.0  0.50000  0.50000  0.50000  1.0000
  Mo  Mo1       1.0  0.94742  0.25889  0.89831  1.0000
  Mo  Mo2       1.0  0.05258  0.25889  0.60169  1.0000
  Mo  Mo3       1.0  0.44742  0.75889  0.89831  1.0000
  Mo  Mo4       1.0  0.55258  0.75889  0.60169  1.0000
  Mo  Mo5       1.0  0.05258  0.74111  0.10169  1.0000
  Mo  Mo6       1.0  0.94742  0.74111  0.39831  1.0000
  Mo  Mo7       1.0  0.55258  0.24111  0.10169  1.0000
  Mo  Mo8       1.0  0.44742  0.24111  0.39831  1.0000
  Mo  Mo9       1.0  0.14739  0.91488  0.01925  1.0000
  Mo  Mo10      1.0  0.85261  0.91488  0.48075  1.0000
  Mo  Mo11      1.0  0.64739  0.41488  0.01925  1.0000
  Mo  Mo12      1.0  0.35261  0.41488  0.48075  1.0000
  Mo  Mo13      1.0  0.85261  0.08512  0.98075  1.0000
  Mo  Mo14      1.0  0.14739  0.08512  0.51925  1.0000
  Mo  Mo15      1.0  0.35261  0.58512  0.98075  1.0000
  Mo  Mo16      1.0  0.64739  0.58512  0.51925  1.0000
  Mo  Mo17      1.0  0.09353  0.17188  0.91730  1.0000
  Mo  Mo18      1.0  0.90647  0.17188  0.58270  1.0000
  Mo  Mo19      1.0  0.59353  0.67188  0.91730  1.0000
  Mo  Mo20      1.0  0.40647  0.67188  0.58270  1.0000
  Mo  Mo21      1.0  0.90647  0.82812  0.08270  1.0000
  Mo  Mo22      1.0  0.09353  0.82812  0.41730  1.0000
  Mo  Mo23      1.0  0.40647  0.32812  0.08270  1.0000
  Mo  Mo24      1.0  0.59353  0.32812  0.41730  1.0000
  Na  Na1       1.0  0.00000  0.10890  0.75000  1.0000
  Na  Na2       1.0  0.50000  0.60890  0.75000  1.0000
  Na  Na3       1.0  0.00000  0.89110  0.25000  1.0000
  Na  Na4       1.0  0.50000  0.39110  0.25000  1.0000
  O   O1        1.0  0.94887  0.25770  0.81708  1.0000
  O   O2        1.0  0.05113  0.25770  0.68292  1.0000
  O   O3        1.0  0.44887  0.75770  0.81708  1.0000
  O   O4        1.0  0.55113  0.75770  0.68292  1.0000
  O   O5        1.0  0.05113  0.74230  0.18292  1.0000
  O   O6        1.0  0.94887  0.74230  0.31708  1.0000
  O   O7        1.0  0.55113  0.24230  0.18292  1.0000
  O   O8        1.0  0.44887  0.24230  0.31708  1.0000
  O   O9        1.0  0.91560  0.41650  0.91440  1.0000
  O   O10       1.0  0.08440  0.41650  0.58560  1.0000
  O   O11       1.0  0.41560  0.91650  0.91440  1.0000
  O   O12       1.0  0.58440  0.91650  0.58560  1.0000
  O   O13       1.0  0.08440  0.58350  0.08560  1.0000
  O   O14       1.0  0.91560  0.58350  0.41440  1.0000
  O   O15       1.0  0.58440  0.08350  0.08560  1.0000
  O   O16       1.0  0.41560  0.08350  0.41440  1.0000
  O   O17       1.0  0.87737  0.13030  0.89817  1.0000
  O   O18       1.0  0.12263  0.13030  0.60183  1.0000
  O   O19       1.0  0.37737  0.63030  0.89817  1.0000
  O   O20       1.0  0.62263  0.63030  0.60183  1.0000
  O   O21       1.0  0.12263  0.86970  0.10183  1.0000
  O   O22       1.0  0.87737  0.86970  0.39817  1.0000
  O   O23       1.0  0.62263  0.36970  0.10183  1.0000
  O   O24       1.0  0.37737  0.36970  0.39817  1.0000
  O   O25       1.0  0.17655  0.75790  0.99795  1.0000
  O   O26       1.0  0.82345  0.75790  0.50205  1.0000
  O   O27       1.0  0.67655  0.25790  0.99795  1.0000
  O   O28       1.0  0.32345  0.25790  0.50205  1.0000
  O   O29       1.0  0.82345  0.24210  0.00205  1.0000
  O   O30       1.0  0.17655  0.24210  0.49795  1.0000
  O   O31       1.0  0.32345  0.74210  0.00205  1.0000
  O   O32       1.0  0.67655  0.74210  0.49795  1.0000
  O   O33       1.0  0.20870  0.01890  0.04852  1.0000
  O   O34       1.0  0.79130  0.01890  0.45148  1.0000
  O   O35       1.0  0.70870  0.51890  0.04852  1.0000
  O   O36       1.0  0.29130  0.51890  0.45148  1.0000
  O   O37       1.0  0.79130  0.98110  0.95148  1.0000
  O   O38       1.0  0.20870  0.98110  0.54852  1.0000
  O   O39       1.0  0.29130  0.48110  0.95148  1.0000
  O   O40       1.0  0.70870  0.48110  0.54852  1.0000
  O   O41       1.0  0.12738  0.98280  0.93223  1.0000
  O   O42       1.0  0.87262  0.98280  0.56777  1.0000
  O   O43       1.0  0.62738  0.48280  0.93223  1.0000
  O   O44       1.0  0.37262  0.48280  0.56777  1.0000
  O   O45       1.0  0.87262  0.01720  0.06777  1.0000
  O   O46       1.0  0.12738  0.01720  0.43223  1.0000
  O   O47       1.0  0.37262  0.51720  0.06777  1.0000
  O   O48       1.0  0.62738  0.51720  0.43223  1.0000
  O   O49       1.0  0.15638  0.27080  0.94604  1.0000
  O   O50       1.0  0.84362  0.27080  0.55396  1.0000
  O   O51       1.0  0.65638  0.77080  0.94604  1.0000
  O   O52       1.0  0.34362  0.77080  0.55396  1.0000
  O   O53       1.0  0.84362  0.72920  0.05396  1.0000
  O   O54       1.0  0.15638  0.72920  0.44604  1.0000
  O   O55       1.0  0.34362  0.22920  0.05396  1.0000
  O   O56       1.0  0.65638  0.22920  0.44604  1.0000
  O   O57       1.0  0.08950  0.16920  0.83551  1.0000
  O   O58       1.0  0.91050  0.16920  0.66449  1.0000
  O   O59       1.0  0.58950  0.66920  0.83551  1.0000
  O   O60       1.0  0.41050  0.66920  0.66449  1.0000
  O   O61       1.0  0.91050  0.83080  0.16449  1.0000
  O   O62       1.0  0.08950  0.83080  0.33551  1.0000
  O   O63       1.0  0.41050  0.33080  0.16449  1.0000
  O   O64       1.0  0.58950  0.33080  0.33551  1.0000
  O   O65       1.0  0.03202  0.30910  0.92931  1.0000
  O   O66       1.0  0.96798  0.30910  0.57069  1.0000
  O   O67       1.0  0.53202  0.80910  0.92931  1.0000
  O   O68       1.0  0.46798  0.80910  0.57069  1.0000
  O   O69       1.0  0.96798  0.69090  0.07069  1.0000
  O   O70       1.0  0.03202  0.69090  0.42931  1.0000
  O   O71       1.0  0.46798  0.19090  0.07069  1.0000
  O   O72       1.0  0.53202  0.19090  0.42931  1.0000
  O   O73       1.0  0.00353  0.05410  0.91082  1.0000
  O   O74       1.0  0.99647  0.05410  0.58918  1.0000
  O   O75       1.0  0.50353  0.55410  0.91082  1.0000
  O   O76       1.0  0.49647  0.55410  0.58918  1.0000
  O   O77       1.0  0.99647  0.94590  0.08918  1.0000
  O   O78       1.0  0.00353  0.94590  0.41082  1.0000
  O   O79       1.0  0.49647  0.44590  0.08918  1.0000
  O   O80       1.0  0.50353  0.44590  0.41082  1.0000
  O   O81       1.0  0.07990  0.09830  0.01927  1.0000
  O   O82       1.0  0.92010  0.09830  0.48073  1.0000
  O   O83       1.0  0.57990  0.59830  0.01927  1.0000
  O   O84       1.0  0.42010  0.59830  0.48073  1.0000
  O   O85       1.0  0.92010  0.90170  0.98073  1.0000
  O   O86       1.0  0.07990  0.90170  0.51927  1.0000
  O   O87       1.0  0.42010  0.40170  0.98073  1.0000
  O   O88       1.0  0.57990  0.40170  0.51927  1.0000
  O   O89       1.0  0.05038  0.82600  0.00068  1.0000
  O   O90       1.0  0.94962  0.82600  0.49932  1.0000
  O   O91       1.0  0.55038  0.32600  0.00068  1.0000
  O   O92       1.0  0.44962  0.32600  0.49932  1.0000
  O   O93       1.0  0.94962  0.17400  0.99932  1.0000
  O   O94       1.0  0.05038  0.17400  0.50068  1.0000
  O   O95       1.0  0.44962  0.67400  0.99932  1.0000
  O   O96       1.0  0.55038  0.67400  0.50068  1.0000
  N   N1        1.0  0.12840  0.72970  0.85590  1.0000
  N   N2        1.0  0.87160  0.72970  0.64410  1.0000
  N   N3        1.0  0.62840  0.22970  0.85590  1.0000
  N   N4        1.0  0.37160  0.22970  0.64410  1.0000
  N   N5        1.0  0.87160  0.27030  0.14410  1.0000
  N   N6        1.0  0.12840  0.27030  0.35590  1.0000
  N   N7        1.0  0.37160  0.77030  0.14410  1.0000
  N   N8        1.0  0.62840  0.77030  0.35590  1.0000
  C   C1        1.0  0.07140  0.80670  0.68250  1.0000
  C   C2        1.0  0.92860  0.80670  0.81750  1.0000
  C   C3        1.0  0.57140  0.30670  0.68250  1.0000
  C   C4        1.0  0.42860  0.30670  0.81750  1.0000
  C   C5        1.0  0.92860  0.19330  0.31750  1.0000
  C   C6        1.0  0.07140  0.19330  0.18250  1.0000
  C   C7        1.0  0.42860  0.69330  0.31750  1.0000
  C   C8        1.0  0.57140  0.69330  0.18250  1.0000
  C   C9        1.0  0.09580  0.72720  0.74340  1.0000
  C   C10       1.0  0.90420  0.72720  0.75660  1.0000
  C   C11       1.0  0.59580  0.22720  0.74340  1.0000
  C   C12       1.0  0.40420  0.22720  0.75660  1.0000
  C   C13       1.0  0.90420  0.27280  0.25660  1.0000
  C   C14       1.0  0.09580  0.27280  0.24340  1.0000
  C   C15       1.0  0.40420  0.77280  0.25660  1.0000
  C   C16       1.0  0.59580  0.77280  0.24340  1.0000
  C   C17       1.0  0.11040  0.58360  0.74240  1.0000
  C   C18       1.0  0.88960  0.58360  0.75760  1.0000
  C   C19       1.0  0.61040  0.08360  0.74240  1.0000
  C   C20       1.0  0.38960  0.08360  0.75760  1.0000
  C   C21       1.0  0.88960  0.41640  0.25760  1.0000
  C   C22       1.0  0.11040  0.41640  0.24240  1.0000
  C   C23       1.0  0.38960  0.91640  0.25760  1.0000
  C   C24       1.0  0.61040  0.91640  0.24240  1.0000
  H   H1        1.0  0.10650  0.53450  0.70360  1.0000
  H   H2        1.0  0.89350  0.53450  0.79640  1.0000
  H   H3        1.0  0.60650  0.03450  0.70360  1.0000
  H   H4        1.0  0.39350  0.03450  0.79640  1.0000
  H   H5        1.0  0.89350  0.46550  0.29640  1.0000
  H   H6        1.0  0.10650  0.46550  0.20360  1.0000
  H   H7        1.0  0.39350  0.96550  0.29640  1.0000
  H   H8        1.0  0.60650  0.96550  0.20360  1.0000
  C   C25       1.0  0.13080  0.51490  0.79980  1.0000
  C   C26       1.0  0.86920  0.51490  0.70020  1.0000
  C   C27       1.0  0.63080  0.01490  0.79980  1.0000
  C   C28       1.0  0.36920  0.01490  0.70020  1.0000
  C   C29       1.0  0.86920  0.48510  0.20020  1.0000
  C   C30       1.0  0.13080  0.48510  0.29980  1.0000
  C   C31       1.0  0.36920  0.98510  0.20020  1.0000
  C   C32       1.0  0.63080  0.98510  0.29980  1.0000
  H   H9        1.0  0.13740  0.41750  0.80060  1.0000
  H   H10       1.0  0.86260  0.41750  0.69940  1.0000
  H   H11       1.0  0.63740  0.91750  0.80060  1.0000
  H   H12       1.0  0.36260  0.91750  0.69940  1.0000
  H   H13       1.0  0.86260  0.58250  0.19940  1.0000
  H   H14       1.0  0.13740  0.58250  0.30060  1.0000
  H   H15       1.0  0.36260  0.08250  0.19940  1.0000
  H   H16       1.0  0.63740  0.08250  0.30060  1.0000
  C   C33       1.0  0.14110  0.59260  0.85550  1.0000
  C   C34       1.0  0.85890  0.59260  0.64450  1.0000
  C   C35       1.0  0.64110  0.09260  0.85550  1.0000
  C   C36       1.0  0.35890  0.09260  0.64450  1.0000
  C   C37       1.0  0.85890  0.40740  0.14450  1.0000
  C   C38       1.0  0.14110  0.40740  0.35550  1.0000
  C   C39       1.0  0.35890  0.90740  0.14450  1.0000
  C   C40       1.0  0.64110  0.90740  0.35550  1.0000
  H   H17       1.0  0.15730  0.54810  0.89380  1.0000
  H   H18       1.0  0.84270  0.54810  0.60620  1.0000
  H   H19       1.0  0.65730  0.04810  0.89380  1.0000
  H   H20       1.0  0.34270  0.04810  0.60620  1.0000
  H   H21       1.0  0.84270  0.45190  0.10620  1.0000
  H   H22       1.0  0.15730  0.45190  0.39380  1.0000
  H   H23       1.0  0.34270  0.95190  0.10620  1.0000
  H   H24       1.0  0.65730  0.95190  0.39380  1.0000
  C   C41       1.0  0.10480  0.79580  0.80190  1.0000
  C   C42       1.0  0.89520  0.79580  0.69810  1.0000
  C   C43       1.0  0.60480  0.29580  0.80190  1.0000
  C   C44       1.0  0.39520  0.29580  0.69810  1.0000
  C   C45       1.0  0.89520  0.20420  0.19810  1.0000
  C   C46       1.0  0.10480  0.20420  0.30190  1.0000
  C   C47       1.0  0.39520  0.70420  0.19810  1.0000
  C   C48       1.0  0.60480  0.70420  0.30190  1.0000
  H   H25       1.0  0.09400  0.89080  0.80380  1.0000
  H   H26       1.0  0.90600  0.89080  0.69620  1.0000
  H   H27       1.0  0.59400  0.39080  0.80380  1.0000
  H   H28       1.0  0.40600  0.39080  0.69620  1.0000
  H   H29       1.0  0.90600  0.10920  0.19620  1.0000
  H   H30       1.0  0.09400  0.10920  0.30380  1.0000
  H   H31       1.0  0.40600  0.60920  0.19620  1.0000
  H   H32       1.0  0.59400  0.60920  0.30380  1.0000
  O   O97       1.0  0.03830  0.91230  0.69010  1.0000
  O   O98       1.0  0.96170  0.91230  0.80990  1.0000
  O   O99       1.0  0.53830  0.41230  0.69010  1.0000
  O   O100      1.0  0.46170  0.41230  0.80990  1.0000
  O   O101      1.0  0.96170  0.08770  0.30990  1.0000
  O   O102      1.0  0.03830  0.08770  0.19010  1.0000
  O   O103      1.0  0.46170  0.58770  0.30990  1.0000
  O   O104      1.0  0.53830  0.58770  0.19010  1.0000
  O   O105      1.0  0.08630  0.76070  0.63132  1.0000
  O   O106      1.0  0.91370  0.76070  0.86868  1.0000
  O   O107      1.0  0.58630  0.26070  0.63132  1.0000
  O   O108      1.0  0.41370  0.26070  0.86868  1.0000
  O   O109      1.0  0.91370  0.23930  0.36868  1.0000
  O   O110      1.0  0.08630  0.23930  0.13132  1.0000
  O   O111      1.0  0.41370  0.73930  0.36868  1.0000
  O   O112      1.0  0.58630  0.73930  0.13132  1.0000
