data_image0
_chemical_formula_structural       Fe4O24C4H4C8H8
_chemical_formula_sum              "Fe4 O24 C12 H12"
_cell_length_a       8.413
_cell_length_b       11.8306
_cell_length_c       8.9468
_cell_angle_alpha    90
_cell_angle_beta     90
_cell_angle_gamma    90

_space_group_name_H-M_alt    "P 1"
_space_group_IT_number       1

loop_
  _space_group_symop_operation_xyz
  'x, y, z'

loop_
  _atom_site_type_symbol
  _atom_site_label
  _atom_site_symmetry_multiplicity
  _atom_site_fract_x
  _atom_site_fract_y
  _atom_site_fract_z
  _atom_site_occupancy
  Fe  Fe1       1.0  0.24750  0.25000  0.25000  1.0000
  Fe  Fe2       1.0  0.25250  0.75000  0.25000  1.0000
  Fe  Fe3       1.0  0.75250  0.75000  0.75000  1.0000
  Fe  Fe4       1.0  0.74750  0.25000  0.75000  1.0000
  O   O1        1.0  0.43878  0.19286  0.11207  1.0000
  O   O2        1.0  0.06122  0.80714  0.11207  1.0000
  O   O3        1.0  0.06122  0.69286  0.38793  1.0000
  O   O4        1.0  0.43878  0.30714  0.38793  1.0000
  O   O5        1.0  0.56122  0.80714  0.88793  1.0000
  O   O6        1.0  0.93878  0.19286  0.88793  1.0000
  O   O7        1.0  0.93878  0.30714  0.61207  1.0000
  O   O8        1.0  0.56122  0.69286  0.61207  1.0000
  O   O9        1.0  0.59350  0.18212  0.91342  1.0000
  O   O10       1.0  0.90650  0.81788  0.91342  1.0000
  O   O11       1.0  0.90650  0.68212  0.58658  1.0000
  O   O12       1.0  0.59350  0.31788  0.58658  1.0000
  O   O13       1.0  0.40650  0.81788  0.08658  1.0000
  O   O14       1.0  0.09350  0.18212  0.08658  1.0000
  O   O15       1.0  0.09350  0.31788  0.41342  1.0000
  O   O16       1.0  0.40650  0.68212  0.41342  1.0000
  O   O17       1.0  0.24412  0.40639  0.13090  1.0000
  O   O18       1.0  0.25588  0.59361  0.13090  1.0000
  O   O19       1.0  0.25588  0.90639  0.36910  1.0000
  O   O20       1.0  0.24412  0.09361  0.36910  1.0000
  O   O21       1.0  0.75588  0.59361  0.86910  1.0000
  O   O22       1.0  0.74412  0.40639  0.86910  1.0000
  O   O23       1.0  0.74412  0.09361  0.63090  1.0000
  O   O24       1.0  0.75588  0.90639  0.63090  1.0000
  C   C1        1.0  0.25000  0.50000  0.19290  1.0000
  C   C2        1.0  0.25000  0.00000  0.30710  1.0000
  C   C3        1.0  0.75000  0.50000  0.80710  1.0000
  C   C4        1.0  0.75000  0.00000  0.69290  1.0000
  H   H1        1.0  0.25000  0.50000  0.29690  1.0000
  H   H2        1.0  0.25000  0.00000  0.20310  1.0000
  H   H3        1.0  0.75000  0.50000  0.70310  1.0000
  H   H4        1.0  0.75000  0.00000  0.79690  1.0000
  C   C5        1.0  0.47710  0.22070  0.98290  1.0000
  C   C6        1.0  0.02290  0.77930  0.98290  1.0000
  C   C7        1.0  0.02290  0.72070  0.51710  1.0000
  C   C8        1.0  0.47710  0.27930  0.51710  1.0000
  C   C9        1.0  0.52290  0.77930  0.01710  1.0000
  C   C10       1.0  0.97710  0.22070  0.01710  1.0000
  C   C11       1.0  0.97710  0.27930  0.48290  1.0000
  C   C12       1.0  0.52290  0.72070  0.48290  1.0000
  H   H5        1.0  0.41430  0.27410  0.93460  1.0000
  H   H6        1.0  0.08570  0.72590  0.93460  1.0000
  H   H7        1.0  0.08570  0.77410  0.56540  1.0000
  H   H8        1.0  0.41430  0.22590  0.56540  1.0000
  H   H9        1.0  0.58570  0.72590  0.06540  1.0000
  H   H10       1.0  0.91430  0.27410  0.06540  1.0000
  H   H11       1.0  0.91430  0.22590  0.43460  1.0000
  H   H12       1.0  0.58570  0.77410  0.43460  1.0000
