data_image0
_chemical_formula_structural       Cd2Cl4O4C4H4N2H2C6H2C4H2C2H2C2O6C6H4C2N2H2O2C4H2C2H2C2H2C2O4
_chemical_formula_sum              "Cd2 Cl4 O16 C36 H24 N4"
_cell_length_a       8.0525
_cell_length_b       8.2225
_cell_length_c       18.733
_cell_angle_alpha    89.74
_cell_angle_beta     78.98
_cell_angle_gamma    80.54

_space_group_name_H-M_alt    "P 1"
_space_group_IT_number       1

loop_
  _space_group_symop_operation_xyz
  'x, y, z'

loop_
  _atom_site_type_symbol
  _atom_site_label
  _atom_site_symmetry_multiplicity
  _atom_site_fract_x
  _atom_site_fract_y
  _atom_site_fract_z
  _atom_site_occupancy
  Cd  Cd1       1.0  0.01263  0.98588  0.25482  1.0000
  Cd  Cd2       1.0  0.98737  0.01412  0.74518  1.0000
  Cl  Cl1       1.0  0.22880  0.53340  0.10025  1.0000
  Cl  Cl2       1.0  0.77120  0.46660  0.89975  1.0000
  Cl  Cl3       1.0  0.00080  0.22260  0.03860  1.0000
  Cl  Cl4       1.0  0.99920  0.77740  0.96140  1.0000
  O   O1        1.0  0.20030  0.72420  0.43980  1.0000
  O   O2        1.0  0.79970  0.27580  0.56020  1.0000
  O   O3        1.0  0.09210  0.90660  0.36580  1.0000
  O   O4        1.0  0.90790  0.09340  0.63420  1.0000
  C   C1        1.0  0.15460  0.76670  0.37940  1.0000
  C   C2        1.0  0.84540  0.23330  0.62060  1.0000
  C   C3        1.0  0.17550  0.62750  0.32470  1.0000
  C   C4        1.0  0.82450  0.37250  0.67530  1.0000
  H   H1        1.0  0.28080  0.55260  0.32680  1.0000
  H   H2        1.0  0.71920  0.44740  0.67320  1.0000
  H   H3        1.0  0.08120  0.56680  0.33840  1.0000
  H   H4        1.0  0.91880  0.43320  0.66160  1.0000
  N   N1        1.0  0.18060  0.67930  0.25020  1.0000
  N   N2        1.0  0.81940  0.32070  0.74980  1.0000
  H   H5        1.0  0.12440  0.61330  0.22790  1.0000
  H   H6        1.0  0.87560  0.38670  0.77210  1.0000
  C   C5        1.0  0.63030  0.74410  0.18910  1.0000
  C   C6        1.0  0.36970  0.25590  0.81090  1.0000
  C   C7        1.0  0.34540  0.67880  0.20650  1.0000
  C   C8        1.0  0.65460  0.32120  0.79350  1.0000
  C   C9        1.0  0.47320  0.73800  0.23340  1.0000
  C   C10       1.0  0.52680  0.26200  0.76660  1.0000
  H   H7        1.0  0.45310  0.77400  0.28170  1.0000
  H   H8        1.0  0.54690  0.22600  0.71830  1.0000
  C   C11       1.0  0.38350  0.61960  0.13390  1.0000
  C   C12       1.0  0.61650  0.38040  0.86610  1.0000
  C   C13       1.0  0.66490  0.68410  0.11960  1.0000
  C   C14       1.0  0.33510  0.31590  0.88040  1.0000
  H   H9        1.0  0.77170  0.68730  0.09060  1.0000
  H   H10       1.0  0.22830  0.31270  0.90940  1.0000
  C   C15       1.0  0.54180  0.61740  0.09120  1.0000
  C   C16       1.0  0.45820  0.38260  0.90880  1.0000
  H   H11       1.0  0.56700  0.57240  0.04420  1.0000
  H   H12       1.0  0.43300  0.42760  0.95580  1.0000
  C   C17       1.0  0.76020  0.82360  0.21660  1.0000
  C   C18       1.0  0.23980  0.17640  0.78340  1.0000
  O   O5        1.0  0.73460  0.86970  0.28400  1.0000
  O   O6        1.0  0.26540  0.13030  0.71600  1.0000
  O   O7        1.0  0.89560  0.84050  0.17590  1.0000
  O   O8        1.0  0.10440  0.15950  0.82410  1.0000
  O   O9        1.0  0.82070  0.16090  0.34340  1.0000
  O   O10       1.0  0.17930  0.83910  0.65660  1.0000
  C   C19       1.0  0.79700  0.19780  0.08580  1.0000
  C   C20       1.0  0.20300  0.80220  0.91420  1.0000
  C   C21       1.0  0.75380  0.22530  0.16100  1.0000
  C   C22       1.0  0.24620  0.77470  0.83900  1.0000
  C   C23       1.0  0.83330  0.37750  0.25940  1.0000
  C   C24       1.0  0.16670  0.62250  0.74060  1.0000
  H   H13       1.0  0.73640  0.45640  0.25030  1.0000
  H   H14       1.0  0.26360  0.54360  0.74970  1.0000
  H   H15       1.0  0.92860  0.43660  0.25810  1.0000
  H   H16       1.0  0.07140  0.56340  0.74190  1.0000
  C   C25       1.0  0.78710  0.31190  0.33510  1.0000
  C   C26       1.0  0.21290  0.68810  0.66490  1.0000
  N   N3        1.0  0.88040  0.25200  0.19980  1.0000
  N   N4        1.0  0.11960  0.74800  0.80020  1.0000
  H   H17       1.0  0.96650  0.28450  0.16690  1.0000
  H   H18       1.0  0.03350  0.71550  0.83310  1.0000
  O   O11       1.0  0.72500  0.41220  0.38420  1.0000
  O   O12       1.0  0.27500  0.58780  0.61580  1.0000
  C   C27       1.0  0.47770  0.15620  0.15590  1.0000
  C   C28       1.0  0.52230  0.84380  0.84410  1.0000
  C   C29       1.0  0.52290  0.13130  0.08320  1.0000
  C   C30       1.0  0.47710  0.86870  0.91680  1.0000
  H   H19       1.0  0.44530  0.10040  0.05710  1.0000
  H   H20       1.0  0.55470  0.89960  0.94290  1.0000
  C   C31       1.0  0.68300  0.15170  0.04790  1.0000
  C   C32       1.0  0.31700  0.84830  0.95210  1.0000
  H   H21       1.0  0.71420  0.13390  0.99780  1.0000
  H   H22       1.0  0.28580  0.86610  0.00220  1.0000
  C   C33       1.0  0.59030  0.20820  0.19440  1.0000
  C   C34       1.0  0.40970  0.79180  0.80560  1.0000
  H   H23       1.0  0.55490  0.23220  0.24400  1.0000
  H   H24       1.0  0.44510  0.76780  0.75600  1.0000
  C   C35       1.0  0.31060  0.11560  0.19580  1.0000
  C   C36       1.0  0.68940  0.88440  0.80420  1.0000
  O   O13       1.0  0.25390  0.16260  0.26130  1.0000
  O   O14       1.0  0.74610  0.83740  0.73870  1.0000
  O   O15       1.0  0.22980  0.03620  0.16170  1.0000
  O   O16       1.0  0.77020  0.96380  0.83830  1.0000
