data_image0
_chemical_formula_structural       Co12O64N16C16H8C48H8C24H8C8H8C16H8C16H8C8H8C8H8C8H8C8H8C24H8C8H8C8H8C16H8C8H8C8H8C8H8C8H8C8H8C8H8C8H8C16H8C16H8C16H8
_chemical_formula_sum              "Co12 O64 N16 C320 H192"
_cell_length_a       40.2669
_cell_length_b       13.9032
_cell_length_c       25.9948
_cell_angle_alpha    90
_cell_angle_beta     104.201
_cell_angle_gamma    90

_space_group_name_H-M_alt    "P 1"
_space_group_IT_number       1

loop_
  _space_group_symop_operation_xyz
  'x, y, z'

loop_
  _atom_site_type_symbol
  _atom_site_label
  _atom_site_symmetry_multiplicity
  _atom_site_fract_x
  _atom_site_fract_y
  _atom_site_fract_z
  _atom_site_occupancy
  Co  Co1       1.0  0.75000  0.75000  0.50000  1.0000
  Co  Co2       1.0  0.25000  0.75000  0.00000  1.0000
  Co  Co3       1.0  0.25000  0.25000  0.50000  1.0000
  Co  Co4       1.0  0.75000  0.25000  0.00000  1.0000
  Co  Co5       1.0  0.79425  0.52614  0.53803  1.0000
  Co  Co6       1.0  0.20575  0.52614  0.96197  1.0000
  Co  Co7       1.0  0.29425  0.02614  0.53803  1.0000
  Co  Co8       1.0  0.70575  0.02614  0.96197  1.0000
  Co  Co9       1.0  0.20575  0.47386  0.46197  1.0000
  Co  Co10      1.0  0.79425  0.47386  0.03803  1.0000
  Co  Co11      1.0  0.70575  0.97386  0.46197  1.0000
  Co  Co12      1.0  0.29425  0.97386  0.03803  1.0000
  O   O1        1.0  0.30269  0.17860  0.51551  1.0000
  O   O2        1.0  0.69731  0.17860  0.98449  1.0000
  O   O3        1.0  0.80269  0.67860  0.51551  1.0000
  O   O4        1.0  0.19731  0.67860  0.98449  1.0000
  O   O5        1.0  0.69731  0.82140  0.48449  1.0000
  O   O6        1.0  0.30269  0.82140  0.01551  1.0000
  O   O7        1.0  0.19731  0.32140  0.48449  1.0000
  O   O8        1.0  0.80269  0.32140  0.01551  1.0000
  O   O9        1.0  0.72977  0.37814  0.96317  1.0000
  O   O10       1.0  0.27023  0.37814  0.53683  1.0000
  O   O11       1.0  0.22977  0.87814  0.96317  1.0000
  O   O12       1.0  0.77023  0.87814  0.53683  1.0000
  O   O13       1.0  0.27023  0.62186  0.03683  1.0000
  O   O14       1.0  0.72977  0.62186  0.46317  1.0000
  O   O15       1.0  0.77023  0.12186  0.03683  1.0000
  O   O16       1.0  0.22977  0.12186  0.46317  1.0000
  O   O17       1.0  0.33858  0.11303  0.58444  1.0000
  O   O18       1.0  0.66142  0.11303  0.91556  1.0000
  O   O19       1.0  0.83858  0.61303  0.58444  1.0000
  O   O20       1.0  0.16142  0.61303  0.91556  1.0000
  O   O21       1.0  0.66142  0.88697  0.41556  1.0000
  O   O22       1.0  0.33858  0.88697  0.08444  1.0000
  O   O23       1.0  0.16142  0.38697  0.41556  1.0000
  O   O24       1.0  0.83858  0.38697  0.08444  1.0000
  O   O25       1.0  0.74125  0.69880  0.57148  1.0000
  O   O26       1.0  0.25875  0.69880  0.92852  1.0000
  O   O27       1.0  0.24125  0.19880  0.57148  1.0000
  O   O28       1.0  0.75875  0.19880  0.92852  1.0000
  O   O29       1.0  0.25875  0.30120  0.42852  1.0000
  O   O30       1.0  0.74125  0.30120  0.07148  1.0000
  O   O31       1.0  0.75875  0.80120  0.42852  1.0000
  O   O32       1.0  0.24125  0.80120  0.07148  1.0000
  O   O33       1.0  0.31042  0.88653  0.57172  1.0000
  O   O34       1.0  0.68958  0.88653  0.92828  1.0000
  O   O35       1.0  0.81042  0.38653  0.57172  1.0000
  O   O36       1.0  0.18958  0.38653  0.92828  1.0000
  O   O37       1.0  0.68958  0.11347  0.42828  1.0000
  O   O38       1.0  0.31042  0.11347  0.07172  1.0000
  O   O39       1.0  0.18958  0.61347  0.42828  1.0000
  O   O40       1.0  0.81042  0.61347  0.07172  1.0000
  O   O41       1.0  0.75969  0.51221  0.96760  1.0000
  O   O42       1.0  0.24031  0.51221  0.53240  1.0000
  O   O43       1.0  0.25969  0.01221  0.96760  1.0000
  O   O44       1.0  0.74031  0.01221  0.53240  1.0000
  O   O45       1.0  0.24031  0.48779  0.03240  1.0000
  O   O46       1.0  0.75969  0.48779  0.46760  1.0000
  O   O47       1.0  0.74031  0.98779  0.03240  1.0000
  O   O48       1.0  0.25969  0.98779  0.46760  1.0000
  O   O49       1.0  0.76347  0.54981  0.59016  1.0000
  O   O50       1.0  0.23653  0.54981  0.90984  1.0000
  O   O51       1.0  0.26347  0.04981  0.59016  1.0000
  O   O52       1.0  0.73653  0.04981  0.90984  1.0000
  O   O53       1.0  0.23653  0.45019  0.40984  1.0000
  O   O54       1.0  0.76347  0.45019  0.09016  1.0000
  O   O55       1.0  0.73653  0.95019  0.40984  1.0000
  O   O56       1.0  0.26347  0.95019  0.09016  1.0000
  O   O57       1.0  0.33936  0.93775  0.51564  1.0000
  O   O58       1.0  0.66064  0.93775  0.98436  1.0000
  O   O59       1.0  0.83936  0.43775  0.51564  1.0000
  O   O60       1.0  0.16064  0.43775  0.98436  1.0000
  O   O61       1.0  0.66064  0.06225  0.48436  1.0000
  O   O62       1.0  0.33936  0.06225  0.01564  1.0000
  O   O63       1.0  0.16064  0.56225  0.48436  1.0000
  O   O64       1.0  0.83936  0.56225  0.01564  1.0000
  N   N1        1.0  0.40933  0.52539  0.58247  1.0000
  N   N2        1.0  0.59067  0.52539  0.91753  1.0000
  N   N3        1.0  0.90933  0.02539  0.58247  1.0000
  N   N4        1.0  0.09067  0.02539  0.91753  1.0000
  N   N5        1.0  0.59067  0.47461  0.41753  1.0000
  N   N6        1.0  0.40933  0.47461  0.08247  1.0000
  N   N7        1.0  0.09067  0.97461  0.41753  1.0000
  N   N8        1.0  0.90933  0.97461  0.08247  1.0000
  N   N9        1.0  0.65931  0.55971  0.73845  1.0000
  N   N10       1.0  0.34069  0.55971  0.76155  1.0000
  N   N11       1.0  0.15931  0.05971  0.73845  1.0000
  N   N12       1.0  0.84069  0.05971  0.76155  1.0000
  N   N13       1.0  0.34069  0.44029  0.26155  1.0000
  N   N14       1.0  0.65931  0.44029  0.23845  1.0000
  N   N15       1.0  0.84069  0.94029  0.26155  1.0000
  N   N16       1.0  0.15931  0.94029  0.23845  1.0000
  C   C1        1.0  0.71438  0.48711  0.89140  1.0000
  C   C2        1.0  0.28562  0.48711  0.60860  1.0000
  C   C3        1.0  0.21438  0.98711  0.89140  1.0000
  C   C4        1.0  0.78562  0.98711  0.60860  1.0000
  C   C5        1.0  0.28562  0.51289  0.10860  1.0000
  C   C6        1.0  0.71438  0.51289  0.39140  1.0000
  C   C7        1.0  0.78562  0.01289  0.10860  1.0000
  C   C8        1.0  0.21438  0.01289  0.39140  1.0000
  C   C9        1.0  0.36340  0.42854  0.52971  1.0000
  C   C10       1.0  0.63660  0.42854  0.97029  1.0000
  C   C11       1.0  0.86340  0.92854  0.52971  1.0000
  C   C12       1.0  0.13660  0.92854  0.97029  1.0000
  C   C13       1.0  0.63660  0.57146  0.47029  1.0000
  C   C14       1.0  0.36340  0.57146  0.02971  1.0000
  C   C15       1.0  0.13660  0.07146  0.47029  1.0000
  C   C16       1.0  0.86340  0.07146  0.02971  1.0000
  H   H1        1.0  0.35810  0.47940  0.50460  1.0000
  H   H2        1.0  0.64190  0.47940  0.99540  1.0000
  H   H3        1.0  0.85810  0.97940  0.50460  1.0000
  H   H4        1.0  0.14190  0.97940  0.99540  1.0000
  H   H5        1.0  0.64190  0.52060  0.49540  1.0000
  H   H6        1.0  0.35810  0.52060  0.00460  1.0000
  H   H7        1.0  0.14190  0.02060  0.49540  1.0000
  H   H8        1.0  0.85810  0.02060  0.00460  1.0000
  C   C17       1.0  0.39078  0.61373  0.57358  1.0000
  C   C18       1.0  0.60922  0.61373  0.92642  1.0000
  C   C19       1.0  0.89078  0.11373  0.57358  1.0000
  C   C20       1.0  0.10922  0.11373  0.92642  1.0000
  C   C21       1.0  0.60922  0.38627  0.42642  1.0000
  C   C22       1.0  0.39078  0.38627  0.07358  1.0000
  C   C23       1.0  0.10922  0.88627  0.42642  1.0000
  C   C24       1.0  0.89078  0.88627  0.07358  1.0000
  C   C25       1.0  0.39051  0.43767  0.57378  1.0000
  C   C26       1.0  0.60949  0.43767  0.92622  1.0000
  C   C27       1.0  0.89051  0.93767  0.57378  1.0000
  C   C28       1.0  0.10949  0.93767  0.92622  1.0000
  C   C29       1.0  0.60949  0.56233  0.42622  1.0000
  C   C30       1.0  0.39051  0.56233  0.07378  1.0000
  C   C31       1.0  0.10949  0.06233  0.42622  1.0000
  C   C32       1.0  0.89051  0.06233  0.07378  1.0000
  C   C33       1.0  0.44487  0.52641  0.60598  1.0000
  C   C34       1.0  0.55513  0.52641  0.89402  1.0000
  C   C35       1.0  0.94487  0.02641  0.60598  1.0000
  C   C36       1.0  0.05513  0.02641  0.89402  1.0000
  C   C37       1.0  0.55513  0.47359  0.39402  1.0000
  C   C38       1.0  0.44487  0.47359  0.10598  1.0000
  C   C39       1.0  0.05513  0.97359  0.39402  1.0000
  C   C40       1.0  0.94487  0.97359  0.10598  1.0000
  C   C41       1.0  0.73661  0.45703  0.94541  1.0000
  C   C42       1.0  0.26339  0.45703  0.55459  1.0000
  C   C43       1.0  0.23661  0.95703  0.94541  1.0000
  C   C44       1.0  0.76339  0.95703  0.55459  1.0000
  C   C45       1.0  0.26339  0.54297  0.05459  1.0000
  C   C46       1.0  0.73661  0.54297  0.44541  1.0000
  C   C47       1.0  0.76339  0.04297  0.05459  1.0000
  C   C48       1.0  0.23661  0.04297  0.44541  1.0000
  C   C49       1.0  0.67599  0.53526  0.79084  1.0000
  C   C50       1.0  0.32401  0.53526  0.70916  1.0000
  C   C51       1.0  0.17599  0.03526  0.79084  1.0000
  C   C52       1.0  0.82401  0.03526  0.70916  1.0000
  C   C53       1.0  0.32401  0.46474  0.20916  1.0000
  C   C54       1.0  0.67599  0.46474  0.29084  1.0000
  C   C55       1.0  0.82401  0.96474  0.20916  1.0000
  C   C56       1.0  0.17599  0.96474  0.29084  1.0000
  C   C57       1.0  0.36176  0.62470  0.59143  1.0000
  C   C58       1.0  0.63824  0.62470  0.90857  1.0000
  C   C59       1.0  0.86176  0.12470  0.59143  1.0000
  C   C60       1.0  0.13824  0.12470  0.90857  1.0000
  C   C61       1.0  0.63824  0.37530  0.40857  1.0000
  C   C62       1.0  0.36176  0.37530  0.09143  1.0000
  C   C63       1.0  0.13824  0.87530  0.40857  1.0000
  C   C64       1.0  0.86176  0.87530  0.09143  1.0000
  H   H9        1.0  0.35420  0.57380  0.61010  1.0000
  H   H10       1.0  0.64580  0.57380  0.88990  1.0000
  H   H11       1.0  0.85420  0.07380  0.61010  1.0000
  H   H12       1.0  0.14580  0.07380  0.88990  1.0000
  H   H13       1.0  0.64580  0.42620  0.38990  1.0000
  H   H14       1.0  0.35420  0.42620  0.11010  1.0000
  H   H15       1.0  0.14580  0.92620  0.38990  1.0000
  H   H16       1.0  0.85420  0.92620  0.11010  1.0000
  C   C65       1.0  0.72132  0.60227  0.63188  1.0000
  C   C66       1.0  0.27868  0.60227  0.86812  1.0000
  C   C67       1.0  0.22132  0.10227  0.63188  1.0000
  C   C68       1.0  0.77868  0.10227  0.86812  1.0000
  C   C69       1.0  0.27868  0.39773  0.36812  1.0000
  C   C70       1.0  0.72132  0.39773  0.13188  1.0000
  C   C71       1.0  0.77868  0.89773  0.36812  1.0000
  C   C72       1.0  0.22132  0.89773  0.13188  1.0000
  C   C73       1.0  0.35411  0.78376  0.55620  1.0000
  C   C74       1.0  0.64589  0.78376  0.94380  1.0000
  C   C75       1.0  0.85411  0.28376  0.55620  1.0000
  C   C76       1.0  0.14589  0.28376  0.94380  1.0000
  C   C77       1.0  0.64589  0.21624  0.44380  1.0000
  C   C78       1.0  0.35411  0.21624  0.05620  1.0000
  C   C79       1.0  0.14589  0.71624  0.44380  1.0000
  C   C80       1.0  0.85411  0.71624  0.05620  1.0000
  C   C81       1.0  0.72876  0.53046  0.67006  1.0000
  C   C82       1.0  0.27124  0.53046  0.82994  1.0000
  C   C83       1.0  0.22876  0.03046  0.67006  1.0000
  C   C84       1.0  0.77124  0.03046  0.82994  1.0000
  C   C85       1.0  0.27124  0.46954  0.32994  1.0000
  C   C86       1.0  0.72876  0.46954  0.17006  1.0000
  C   C87       1.0  0.77124  0.96954  0.32994  1.0000
  C   C88       1.0  0.22876  0.96954  0.17006  1.0000
  H   H17       1.0  0.74830  0.49100  0.67240  1.0000
  H   H18       1.0  0.25170  0.49100  0.82760  1.0000
  H   H19       1.0  0.24830  0.99100  0.67240  1.0000
  H   H20       1.0  0.75170  0.99100  0.82760  1.0000
  H   H21       1.0  0.25170  0.50900  0.32760  1.0000
  H   H22       1.0  0.74830  0.50900  0.17240  1.0000
  H   H23       1.0  0.75170  0.00900  0.32760  1.0000
  H   H24       1.0  0.24830  0.00900  0.17240  1.0000
  C   C89       1.0  0.34390  0.34533  0.52208  1.0000
  C   C90       1.0  0.65610  0.34533  0.97792  1.0000
  C   C91       1.0  0.84390  0.84533  0.52208  1.0000
  C   C92       1.0  0.15610  0.84533  0.97792  1.0000
  C   C93       1.0  0.65610  0.65467  0.47792  1.0000
  C   C94       1.0  0.34390  0.65467  0.02208  1.0000
  C   C95       1.0  0.15610  0.15467  0.47792  1.0000
  C   C96       1.0  0.84390  0.15467  0.02208  1.0000
  H   H25       1.0  0.32520  0.33930  0.49180  1.0000
  H   H26       1.0  0.67480  0.33930  0.00820  1.0000
  H   H27       1.0  0.82520  0.83930  0.49180  1.0000
  H   H28       1.0  0.17480  0.83930  0.00820  1.0000
  H   H29       1.0  0.67480  0.66070  0.50820  1.0000
  H   H30       1.0  0.32520  0.66070  0.99180  1.0000
  H   H31       1.0  0.17480  0.16070  0.50820  1.0000
  H   H32       1.0  0.82520  0.16070  0.99180  1.0000
  C   C97       1.0  0.68005  0.57313  0.70184  1.0000
  C   C98       1.0  0.31995  0.57313  0.79816  1.0000
  C   C99       1.0  0.18005  0.07313  0.70184  1.0000
  C   C100      1.0  0.81995  0.07313  0.79816  1.0000
  C   C101      1.0  0.31995  0.42687  0.29816  1.0000
  C   C102      1.0  0.68005  0.42687  0.20184  1.0000
  C   C103      1.0  0.81995  0.92687  0.29816  1.0000
  C   C104      1.0  0.18005  0.92687  0.20184  1.0000
  C   C105      1.0  0.37967  0.27984  0.60197  1.0000
  C   C106      1.0  0.62033  0.27984  0.89803  1.0000
  C   C107      1.0  0.87967  0.77984  0.60197  1.0000
  C   C108      1.0  0.12033  0.77984  0.89803  1.0000
  C   C109      1.0  0.62033  0.72016  0.39803  1.0000
  C   C110      1.0  0.37967  0.72016  0.10197  1.0000
  C   C111      1.0  0.12033  0.22016  0.39803  1.0000
  C   C112      1.0  0.87967  0.22016  0.10197  1.0000
  H   H33       1.0  0.38590  0.22810  0.62630  1.0000
  H   H34       1.0  0.61410  0.22810  0.87370  1.0000
  H   H35       1.0  0.88590  0.72810  0.62630  1.0000
  H   H36       1.0  0.11410  0.72810  0.87370  1.0000
  H   H37       1.0  0.61410  0.77190  0.37370  1.0000
  H   H38       1.0  0.38590  0.77190  0.12630  1.0000
  H   H39       1.0  0.11410  0.27190  0.37370  1.0000
  H   H40       1.0  0.88590  0.27190  0.12630  1.0000
  C   C113      1.0  0.62362  0.54343  0.71841  1.0000
  C   C114      1.0  0.37638  0.54343  0.78159  1.0000
  C   C115      1.0  0.12362  0.04343  0.71841  1.0000
  C   C116      1.0  0.87638  0.04343  0.78159  1.0000
  C   C117      1.0  0.37638  0.45657  0.28159  1.0000
  C   C118      1.0  0.62362  0.45657  0.21841  1.0000
  C   C119      1.0  0.87638  0.95657  0.28159  1.0000
  C   C120      1.0  0.12362  0.95657  0.21841  1.0000
  C   C121      1.0  0.68746  0.42931  0.86566  1.0000
  C   C122      1.0  0.31254  0.42931  0.63434  1.0000
  C   C123      1.0  0.18746  0.92931  0.86566  1.0000
  C   C124      1.0  0.81254  0.92931  0.63434  1.0000
  C   C125      1.0  0.31254  0.57069  0.13434  1.0000
  C   C126      1.0  0.68746  0.57069  0.36566  1.0000
  C   C127      1.0  0.81254  0.07069  0.13434  1.0000
  C   C128      1.0  0.18746  0.07069  0.36566  1.0000
  H   H41       1.0  0.68220  0.37250  0.88240  1.0000
  H   H42       1.0  0.31780  0.37250  0.61760  1.0000
  H   H43       1.0  0.18220  0.87250  0.88240  1.0000
  H   H44       1.0  0.81780  0.87250  0.61760  1.0000
  H   H45       1.0  0.31780  0.62750  0.11760  1.0000
  H   H46       1.0  0.68220  0.62750  0.38240  1.0000
  H   H47       1.0  0.81780  0.12750  0.11760  1.0000
  H   H48       1.0  0.18220  0.12750  0.38240  1.0000
  C   C129      1.0  0.38373  0.77277  0.53724  1.0000
  C   C130      1.0  0.61627  0.77277  0.96276  1.0000
  C   C131      1.0  0.88373  0.27277  0.53724  1.0000
  C   C132      1.0  0.11627  0.27277  0.96276  1.0000
  C   C133      1.0  0.61627  0.22723  0.46276  1.0000
  C   C134      1.0  0.38373  0.22723  0.03724  1.0000
  C   C135      1.0  0.11627  0.72723  0.46276  1.0000
  C   C136      1.0  0.88373  0.72723  0.03724  1.0000
  H   H49       1.0  0.39100  0.82350  0.51810  1.0000
  H   H50       1.0  0.60900  0.82350  0.98190  1.0000
  H   H51       1.0  0.89100  0.32350  0.51810  1.0000
  H   H52       1.0  0.10900  0.32350  0.98190  1.0000
  H   H53       1.0  0.60900  0.17650  0.48190  1.0000
  H   H54       1.0  0.39100  0.17650  0.01810  1.0000
  H   H55       1.0  0.10900  0.67650  0.48190  1.0000
  H   H56       1.0  0.89100  0.67650  0.01810  1.0000
  C   C137      1.0  0.45910  0.59660  0.64181  1.0000
  C   C138      1.0  0.54090  0.59660  0.85819  1.0000
  C   C139      1.0  0.95910  0.09660  0.64181  1.0000
  C   C140      1.0  0.04090  0.09660  0.85819  1.0000
  C   C141      1.0  0.54090  0.40340  0.35819  1.0000
  C   C142      1.0  0.45910  0.40340  0.14181  1.0000
  C   C143      1.0  0.04090  0.90340  0.35819  1.0000
  C   C144      1.0  0.95910  0.90340  0.14181  1.0000
  H   H57       1.0  0.44500  0.64520  0.65100  1.0000
  H   H58       1.0  0.55500  0.64520  0.84900  1.0000
  H   H59       1.0  0.94500  0.14520  0.65100  1.0000
  H   H60       1.0  0.05500  0.14520  0.84900  1.0000
  H   H61       1.0  0.55500  0.35480  0.34900  1.0000
  H   H62       1.0  0.44500  0.35480  0.15100  1.0000
  H   H63       1.0  0.05500  0.85480  0.34900  1.0000
  H   H64       1.0  0.94500  0.85480  0.15100  1.0000
  C   C145      1.0  0.72150  0.57039  0.86795  1.0000
  C   C146      1.0  0.27850  0.57039  0.63205  1.0000
  C   C147      1.0  0.22150  0.07039  0.86795  1.0000
  C   C148      1.0  0.77850  0.07039  0.63205  1.0000
  C   C149      1.0  0.27850  0.42961  0.13205  1.0000
  C   C150      1.0  0.72150  0.42961  0.36795  1.0000
  C   C151      1.0  0.77850  0.92961  0.13205  1.0000
  C   C152      1.0  0.22150  0.92961  0.36795  1.0000
  H   H65       1.0  0.73970  0.61050  0.88600  1.0000
  H   H66       1.0  0.26030  0.61050  0.61400  1.0000
  H   H67       1.0  0.23970  0.11050  0.88600  1.0000
  H   H68       1.0  0.76030  0.11050  0.61400  1.0000
  H   H69       1.0  0.26030  0.38950  0.11400  1.0000
  H   H70       1.0  0.73970  0.38950  0.38600  1.0000
  H   H71       1.0  0.76030  0.88950  0.11400  1.0000
  H   H72       1.0  0.23970  0.88950  0.38600  1.0000
  C   C153      1.0  0.70853  0.51549  0.70426  1.0000
  C   C154      1.0  0.29147  0.51549  0.79574  1.0000
  C   C155      1.0  0.20853  0.01549  0.70426  1.0000
  C   C156      1.0  0.79147  0.01549  0.79574  1.0000
  C   C157      1.0  0.29147  0.48451  0.29574  1.0000
  C   C158      1.0  0.70853  0.48451  0.20426  1.0000
  C   C159      1.0  0.79147  0.98451  0.29574  1.0000
  C   C160      1.0  0.20853  0.98451  0.20426  1.0000
  H   H73       1.0  0.71390  0.46550  0.72980  1.0000
  H   H74       1.0  0.28610  0.46550  0.77020  1.0000
  H   H75       1.0  0.21390  0.96550  0.72980  1.0000
  H   H76       1.0  0.78610  0.96550  0.77020  1.0000
  H   H77       1.0  0.28610  0.53450  0.27020  1.0000
  H   H78       1.0  0.71390  0.53450  0.22980  1.0000
  H   H79       1.0  0.78610  0.03450  0.27020  1.0000
  H   H80       1.0  0.21390  0.03450  0.22980  1.0000
  C   C161      1.0  0.35160  0.27015  0.55888  1.0000
  C   C162      1.0  0.64840  0.27015  0.94112  1.0000
  C   C163      1.0  0.85160  0.77015  0.55888  1.0000
  C   C164      1.0  0.14840  0.77015  0.94112  1.0000
  C   C165      1.0  0.64840  0.72985  0.44112  1.0000
  C   C166      1.0  0.35160  0.72985  0.05888  1.0000
  C   C167      1.0  0.14840  0.22985  0.44112  1.0000
  C   C168      1.0  0.85160  0.22985  0.05888  1.0000
  C   C169      1.0  0.74355  0.61882  0.59426  1.0000
  C   C170      1.0  0.25645  0.61882  0.90574  1.0000
  C   C171      1.0  0.24355  0.11882  0.59426  1.0000
  C   C172      1.0  0.75645  0.11882  0.90574  1.0000
  C   C173      1.0  0.25645  0.38118  0.40574  1.0000
  C   C174      1.0  0.74355  0.38118  0.09426  1.0000
  C   C175      1.0  0.75645  0.88118  0.40574  1.0000
  C   C176      1.0  0.24355  0.88118  0.09426  1.0000
  C   C177      1.0  0.70234  0.59628  0.81822  1.0000
  C   C178      1.0  0.29766  0.59628  0.68178  1.0000
  C   C179      1.0  0.20234  0.09628  0.81822  1.0000
  C   C180      1.0  0.79766  0.09628  0.68178  1.0000
  C   C181      1.0  0.29766  0.40372  0.18178  1.0000
  C   C182      1.0  0.70234  0.40372  0.31822  1.0000
  C   C183      1.0  0.79766  0.90372  0.18178  1.0000
  C   C184      1.0  0.20234  0.90372  0.31822  1.0000
  H   H81       1.0  0.70690  0.65500  0.80260  1.0000
  H   H82       1.0  0.29310  0.65500  0.69740  1.0000
  H   H83       1.0  0.20690  0.15500  0.80260  1.0000
  H   H84       1.0  0.79310  0.15500  0.69740  1.0000
  H   H85       1.0  0.29310  0.34500  0.19740  1.0000
  H   H86       1.0  0.70690  0.34500  0.30260  1.0000
  H   H87       1.0  0.79310  0.84500  0.19740  1.0000
  H   H88       1.0  0.20690  0.84500  0.30260  1.0000
  C   C185      1.0  0.49429  0.59656  0.66469  1.0000
  C   C186      1.0  0.50571  0.59656  0.83531  1.0000
  C   C187      1.0  0.99429  0.09656  0.66469  1.0000
  C   C188      1.0  0.00571  0.09656  0.83531  1.0000
  C   C189      1.0  0.50571  0.40344  0.33531  1.0000
  C   C190      1.0  0.49429  0.40344  0.16469  1.0000
  C   C191      1.0  0.00571  0.90344  0.33531  1.0000
  C   C192      1.0  0.99429  0.90344  0.16469  1.0000
  H   H89       1.0  0.50370  0.64620  0.68900  1.0000
  H   H90       1.0  0.49630  0.64620  0.81100  1.0000
  H   H91       1.0  0.00370  0.14620  0.68900  1.0000
  H   H92       1.0  0.99630  0.14620  0.81100  1.0000
  H   H93       1.0  0.49630  0.35380  0.31100  1.0000
  H   H94       1.0  0.50370  0.35380  0.18900  1.0000
  H   H95       1.0  0.99630  0.85380  0.31100  1.0000
  H   H96       1.0  0.00370  0.85380  0.18900  1.0000
  C   C193      1.0  0.39875  0.36371  0.61003  1.0000
  C   C194      1.0  0.60125  0.36371  0.88997  1.0000
  C   C195      1.0  0.89875  0.86371  0.61003  1.0000
  C   C196      1.0  0.10125  0.86371  0.88997  1.0000
  C   C197      1.0  0.60125  0.63629  0.38997  1.0000
  C   C198      1.0  0.39875  0.63629  0.11003  1.0000
  C   C199      1.0  0.10125  0.13629  0.38997  1.0000
  C   C200      1.0  0.89875  0.13629  0.11003  1.0000
  H   H97       1.0  0.41740  0.37030  0.64030  1.0000
  H   H98       1.0  0.58260  0.37030  0.85970  1.0000
  H   H99       1.0  0.91740  0.87030  0.64030  1.0000
  H   H100      1.0  0.08260  0.87030  0.85970  1.0000
  H   H101      1.0  0.58260  0.62970  0.35970  1.0000
  H   H102      1.0  0.41740  0.62970  0.14030  1.0000
  H   H103      1.0  0.08260  0.12970  0.35970  1.0000
  H   H104      1.0  0.91740  0.12970  0.14030  1.0000
  C   C201      1.0  0.33013  0.18362  0.55290  1.0000
  C   C202      1.0  0.66987  0.18362  0.94710  1.0000
  C   C203      1.0  0.83013  0.68362  0.55290  1.0000
  C   C204      1.0  0.16987  0.68362  0.94710  1.0000
  C   C205      1.0  0.66987  0.81638  0.44710  1.0000
  C   C206      1.0  0.33013  0.81638  0.05290  1.0000
  C   C207      1.0  0.16987  0.31638  0.44710  1.0000
  C   C208      1.0  0.83013  0.31638  0.05290  1.0000
  C   C209      1.0  0.34346  0.70994  0.58232  1.0000
  C   C210      1.0  0.65654  0.70994  0.91768  1.0000
  C   C211      1.0  0.84346  0.20994  0.58232  1.0000
  C   C212      1.0  0.15654  0.20994  0.91768  1.0000
  C   C213      1.0  0.65654  0.29006  0.41768  1.0000
  C   C214      1.0  0.34346  0.29006  0.08232  1.0000
  C   C215      1.0  0.15654  0.79006  0.41768  1.0000
  C   C216      1.0  0.84346  0.79006  0.08232  1.0000
  H   H105      1.0  0.32320  0.71680  0.59450  1.0000
  H   H106      1.0  0.67680  0.71680  0.90550  1.0000
  H   H107      1.0  0.82320  0.21680  0.59450  1.0000
  H   H108      1.0  0.17680  0.21680  0.90550  1.0000
  H   H109      1.0  0.67680  0.28320  0.40550  1.0000
  H   H110      1.0  0.32320  0.28320  0.09450  1.0000
  H   H111      1.0  0.17680  0.78320  0.40550  1.0000
  H   H112      1.0  0.82320  0.78320  0.09450  1.0000
  C   C217      1.0  0.46592  0.45594  0.59331  1.0000
  C   C218      1.0  0.53408  0.45594  0.90669  1.0000
  C   C219      1.0  0.96592  0.95594  0.59331  1.0000
  C   C220      1.0  0.03408  0.95594  0.90669  1.0000
  C   C221      1.0  0.53408  0.54406  0.40669  1.0000
  C   C222      1.0  0.46592  0.54406  0.09331  1.0000
  C   C223      1.0  0.03408  0.04406  0.40669  1.0000
  C   C224      1.0  0.96592  0.04406  0.09331  1.0000
  H   H113      1.0  0.45640  0.40690  0.56860  1.0000
  H   H114      1.0  0.54360  0.40690  0.93140  1.0000
  H   H115      1.0  0.95640  0.90690  0.56860  1.0000
  H   H116      1.0  0.04360  0.90690  0.93140  1.0000
  H   H117      1.0  0.54360  0.59310  0.43140  1.0000
  H   H118      1.0  0.45640  0.59310  0.06860  1.0000
  H   H119      1.0  0.04360  0.09310  0.43140  1.0000
  H   H120      1.0  0.95640  0.09310  0.06860  1.0000
  C   C225      1.0  0.67245  0.64481  0.66382  1.0000
  C   C226      1.0  0.32755  0.64481  0.83618  1.0000
  C   C227      1.0  0.17245  0.14481  0.66382  1.0000
  C   C228      1.0  0.82755  0.14481  0.83618  1.0000
  C   C229      1.0  0.32755  0.35519  0.33618  1.0000
  C   C230      1.0  0.67245  0.35519  0.16382  1.0000
  C   C231      1.0  0.82755  0.85519  0.33618  1.0000
  C   C232      1.0  0.17245  0.85519  0.16382  1.0000
  H   H121      1.0  0.65280  0.68400  0.66130  1.0000
  H   H122      1.0  0.34720  0.68400  0.83870  1.0000
  H   H123      1.0  0.15280  0.18400  0.66130  1.0000
  H   H124      1.0  0.84720  0.18400  0.83870  1.0000
  H   H125      1.0  0.34720  0.31600  0.33870  1.0000
  H   H126      1.0  0.65280  0.31600  0.16130  1.0000
  H   H127      1.0  0.84720  0.81600  0.33870  1.0000
  H   H128      1.0  0.15280  0.81600  0.16130  1.0000
  C   C233      1.0  0.61098  0.50600  0.66855  1.0000
  C   C234      1.0  0.38902  0.50600  0.83145  1.0000
  C   C235      1.0  0.11098  0.00600  0.66855  1.0000
  C   C236      1.0  0.88902  0.00600  0.83145  1.0000
  C   C237      1.0  0.38902  0.49400  0.33145  1.0000
  C   C238      1.0  0.61098  0.49400  0.16855  1.0000
  C   C239      1.0  0.88902  0.99400  0.33145  1.0000
  C   C240      1.0  0.11098  0.99400  0.16855  1.0000
  H   H129      1.0  0.62630  0.48530  0.64830  1.0000
  H   H130      1.0  0.37370  0.48530  0.85170  1.0000
  H   H131      1.0  0.12630  0.98530  0.64830  1.0000
  H   H132      1.0  0.87370  0.98530  0.85170  1.0000
  H   H133      1.0  0.37370  0.51470  0.35170  1.0000
  H   H134      1.0  0.62630  0.51470  0.14830  1.0000
  H   H135      1.0  0.87370  0.01470  0.35170  1.0000
  H   H136      1.0  0.12630  0.01470  0.14830  1.0000
  C   C241      1.0  0.40211  0.68945  0.54629  1.0000
  C   C242      1.0  0.59789  0.68945  0.95371  1.0000
  C   C243      1.0  0.90211  0.18945  0.54629  1.0000
  C   C244      1.0  0.09789  0.18945  0.95371  1.0000
  C   C245      1.0  0.59789  0.31055  0.45371  1.0000
  C   C246      1.0  0.40211  0.31055  0.04629  1.0000
  C   C247      1.0  0.09789  0.81055  0.45371  1.0000
  C   C248      1.0  0.90211  0.81055  0.04629  1.0000
  H   H137      1.0  0.42240  0.68260  0.53430  1.0000
  H   H138      1.0  0.57760  0.68260  0.96570  1.0000
  H   H139      1.0  0.92240  0.18260  0.53430  1.0000
  H   H140      1.0  0.07760  0.18260  0.96570  1.0000
  H   H141      1.0  0.57760  0.31740  0.46570  1.0000
  H   H142      1.0  0.42240  0.31740  0.03430  1.0000
  H   H143      1.0  0.07760  0.81740  0.46570  1.0000
  H   H144      1.0  0.92240  0.81740  0.03430  1.0000
  C   C249      1.0  0.60142  0.57097  0.74917  1.0000
  C   C250      1.0  0.39858  0.57097  0.75083  1.0000
  C   C251      1.0  0.10142  0.07097  0.74917  1.0000
  C   C252      1.0  0.89858  0.07097  0.75083  1.0000
  C   C253      1.0  0.39858  0.42903  0.25083  1.0000
  C   C254      1.0  0.60142  0.42903  0.24917  1.0000
  C   C255      1.0  0.89858  0.92903  0.25083  1.0000
  C   C256      1.0  0.10142  0.92903  0.24917  1.0000
  H   H145      1.0  0.61000  0.59440  0.78430  1.0000
  H   H146      1.0  0.39000  0.59440  0.71570  1.0000
  H   H147      1.0  0.11000  0.09440  0.78430  1.0000
  H   H148      1.0  0.89000  0.09440  0.71570  1.0000
  H   H149      1.0  0.39000  0.40560  0.21570  1.0000
  H   H150      1.0  0.61000  0.40560  0.28430  1.0000
  H   H151      1.0  0.89000  0.90560  0.21570  1.0000
  H   H152      1.0  0.11000  0.90560  0.28430  1.0000
  C   C257      1.0  0.69301  0.65957  0.63005  1.0000
  C   C258      1.0  0.30699  0.65957  0.86995  1.0000
  C   C259      1.0  0.19301  0.15957  0.63005  1.0000
  C   C260      1.0  0.80699  0.15957  0.86995  1.0000
  C   C261      1.0  0.30699  0.34043  0.36995  1.0000
  C   C262      1.0  0.69301  0.34043  0.13005  1.0000
  C   C263      1.0  0.80699  0.84043  0.36995  1.0000
  C   C264      1.0  0.19301  0.84043  0.13005  1.0000
  H   H153      1.0  0.68780  0.71020  0.60480  1.0000
  H   H154      1.0  0.31220  0.71020  0.89520  1.0000
  H   H155      1.0  0.18780  0.21020  0.60480  1.0000
  H   H156      1.0  0.81220  0.21020  0.89520  1.0000
  H   H157      1.0  0.31220  0.28980  0.39520  1.0000
  H   H158      1.0  0.68780  0.28980  0.10480  1.0000
  H   H159      1.0  0.81220  0.78980  0.39520  1.0000
  H   H160      1.0  0.18780  0.78980  0.10480  1.0000
  C   C265      1.0  0.66802  0.45426  0.81512  1.0000
  C   C266      1.0  0.33198  0.45426  0.68488  1.0000
  C   C267      1.0  0.16802  0.95426  0.81512  1.0000
  C   C268      1.0  0.83198  0.95426  0.68488  1.0000
  C   C269      1.0  0.33198  0.54574  0.18488  1.0000
  C   C270      1.0  0.66802  0.54574  0.31512  1.0000
  C   C271      1.0  0.83198  0.04574  0.18488  1.0000
  C   C272      1.0  0.16802  0.04574  0.31512  1.0000
  H   H161      1.0  0.64930  0.41500  0.79770  1.0000
  H   H162      1.0  0.35070  0.41500  0.70230  1.0000
  H   H163      1.0  0.14930  0.91500  0.79770  1.0000
  H   H164      1.0  0.85070  0.91500  0.70230  1.0000
  H   H165      1.0  0.35070  0.58500  0.20230  1.0000
  H   H166      1.0  0.64930  0.58500  0.29770  1.0000
  H   H167      1.0  0.85070  0.08500  0.20230  1.0000
  H   H168      1.0  0.14930  0.08500  0.29770  1.0000
  C   C273      1.0  0.51553  0.52785  0.65343  1.0000
  C   C274      1.0  0.48447  0.52785  0.84657  1.0000
  C   C275      1.0  0.01553  0.02785  0.65343  1.0000
  C   C276      1.0  0.98447  0.02785  0.84657  1.0000
  C   C277      1.0  0.48447  0.47215  0.34657  1.0000
  C   C278      1.0  0.51553  0.47215  0.15343  1.0000
  C   C279      1.0  0.98447  0.97215  0.34657  1.0000
  C   C280      1.0  0.01553  0.97215  0.15343  1.0000
  C   C281      1.0  0.57546  0.49820  0.64738  1.0000
  C   C282      1.0  0.42454  0.49820  0.85262  1.0000
  C   C283      1.0  0.07546  0.99820  0.64738  1.0000
  C   C284      1.0  0.92454  0.99820  0.85262  1.0000
  C   C285      1.0  0.42454  0.50180  0.35262  1.0000
  C   C286      1.0  0.57546  0.50180  0.14738  1.0000
  C   C287      1.0  0.92454  0.00180  0.35262  1.0000
  C   C288      1.0  0.07546  0.00180  0.14738  1.0000
  H   H169      1.0  0.56680  0.47250  0.61280  1.0000
  H   H170      1.0  0.43320  0.47250  0.88720  1.0000
  H   H171      1.0  0.06680  0.97250  0.61280  1.0000
  H   H172      1.0  0.93320  0.97250  0.88720  1.0000
  H   H173      1.0  0.43320  0.52750  0.38720  1.0000
  H   H174      1.0  0.56680  0.52750  0.11280  1.0000
  H   H175      1.0  0.93320  0.02750  0.38720  1.0000
  H   H176      1.0  0.06680  0.02750  0.11280  1.0000
  C   C289      1.0  0.33340  0.87492  0.54693  1.0000
  C   C290      1.0  0.66660  0.87492  0.95307  1.0000
  C   C291      1.0  0.83340  0.37492  0.54693  1.0000
  C   C292      1.0  0.16660  0.37492  0.95307  1.0000
  C   C293      1.0  0.66660  0.12508  0.45307  1.0000
  C   C294      1.0  0.33340  0.12508  0.04693  1.0000
  C   C295      1.0  0.16660  0.62508  0.45307  1.0000
  C   C296      1.0  0.83340  0.62508  0.04693  1.0000
  C   C297      1.0  0.50056  0.45687  0.61650  1.0000
  C   C298      1.0  0.49944  0.45687  0.88350  1.0000
  C   C299      1.0  0.00056  0.95687  0.61650  1.0000
  C   C300      1.0  0.99944  0.95687  0.88350  1.0000
  C   C301      1.0  0.49944  0.54313  0.38350  1.0000
  C   C302      1.0  0.50056  0.54313  0.11650  1.0000
  C   C303      1.0  0.99944  0.04313  0.38350  1.0000
  C   C304      1.0  0.00056  0.04313  0.11650  1.0000
  H   H177      1.0  0.51470  0.40830  0.60730  1.0000
  H   H178      1.0  0.48530  0.40830  0.89270  1.0000
  H   H179      1.0  0.01470  0.90830  0.60730  1.0000
  H   H180      1.0  0.98530  0.90830  0.89270  1.0000
  H   H181      1.0  0.48530  0.59170  0.39270  1.0000
  H   H182      1.0  0.51470  0.59170  0.10730  1.0000
  H   H183      1.0  0.98530  0.09170  0.39270  1.0000
  H   H184      1.0  0.01470  0.09170  0.10730  1.0000
  C   C305      1.0  0.55290  0.52834  0.67750  1.0000
  C   C306      1.0  0.44710  0.52834  0.82250  1.0000
  C   C307      1.0  0.05290  0.02834  0.67750  1.0000
  C   C308      1.0  0.94710  0.02834  0.82250  1.0000
  C   C309      1.0  0.44710  0.47166  0.32250  1.0000
  C   C310      1.0  0.55290  0.47166  0.17750  1.0000
  C   C311      1.0  0.94710  0.97166  0.32250  1.0000
  C   C312      1.0  0.05290  0.97166  0.17750  1.0000
  C   C313      1.0  0.56636  0.56337  0.72723  1.0000
  C   C314      1.0  0.43364  0.56337  0.77277  1.0000
  C   C315      1.0  0.06636  0.06337  0.72723  1.0000
  C   C316      1.0  0.93364  0.06337  0.77277  1.0000
  C   C317      1.0  0.43364  0.43663  0.27277  1.0000
  C   C318      1.0  0.56636  0.43663  0.22723  1.0000
  C   C319      1.0  0.93364  0.93663  0.27277  1.0000
  C   C320      1.0  0.06636  0.93663  0.22723  1.0000
  H   H185      1.0  0.55110  0.58350  0.74780  1.0000
  H   H186      1.0  0.44890  0.58350  0.75220  1.0000
  H   H187      1.0  0.05110  0.08350  0.74780  1.0000
  H   H188      1.0  0.94890  0.08350  0.75220  1.0000
  H   H189      1.0  0.44890  0.41650  0.25220  1.0000
  H   H190      1.0  0.55110  0.41650  0.24780  1.0000
  H   H191      1.0  0.94890  0.91650  0.25220  1.0000
  H   H192      1.0  0.05110  0.91650  0.24780  1.0000
