data_image0
_chemical_formula_structural       C4H4C20O24Fe4
_chemical_formula_sum              "C24 H4 O24 Fe4"
_cell_length_a       9.3825
_cell_length_b       13.791
_cell_length_c       6.7346
_cell_angle_alpha    90
_cell_angle_beta     122.37
_cell_angle_gamma    90

_space_group_name_H-M_alt    "P 1"
_space_group_IT_number       1

loop_
  _space_group_symop_operation_xyz
  'x, y, z'

loop_
  _atom_site_type_symbol
  _atom_site_label
  _atom_site_symmetry_multiplicity
  _atom_site_fract_x
  _atom_site_fract_y
  _atom_site_fract_z
  _atom_site_occupancy
  C   C1        1.0  0.66570  0.50000  0.68880  1.0000
  C   C2        1.0  0.16570  0.00000  0.68880  1.0000
  C   C3        1.0  0.33430  0.50000  0.31120  1.0000
  C   C4        1.0  0.83430  1.00000  0.31120  1.0000
  H   H1        1.0  0.77720  0.50000  0.81490  1.0000
  H   H2        1.0  0.27720  0.00000  0.81490  1.0000
  H   H3        1.0  0.22280  0.50000  0.18510  1.0000
  H   H4        1.0  0.72280  1.00000  0.18510  1.0000
  C   C5        1.0  0.58390  0.41257  0.59630  1.0000
  C   C6        1.0  0.08390  0.91257  0.59630  1.0000
  C   C7        1.0  0.58390  0.58743  0.59630  1.0000
  C   C8        1.0  0.08390  0.08743  0.59630  1.0000
  C   C9        1.0  0.41610  0.58743  0.40370  1.0000
  C   C10       1.0  0.91610  0.08743  0.40370  1.0000
  C   C11       1.0  0.41610  0.41257  0.40370  1.0000
  C   C12       1.0  0.91610  0.91257  0.40370  1.0000
  C   C13       1.0  0.67180  0.32070  0.72000  1.0000
  C   C14       1.0  0.17180  0.82070  0.72000  1.0000
  C   C15       1.0  0.67180  0.67930  0.72000  1.0000
  C   C16       1.0  0.17180  0.17930  0.72000  1.0000
  C   C17       1.0  0.32820  0.67930  0.28000  1.0000
  C   C18       1.0  0.82820  0.17930  0.28000  1.0000
  C   C19       1.0  0.32820  0.32070  0.28000  1.0000
  C   C20       1.0  0.82820  0.82070  0.28000  1.0000
  C   C21       1.0  0.09510  0.00000  0.09530  1.0000
  C   C22       1.0  0.59510  0.50000  0.09530  1.0000
  C   C23       1.0  0.90490  0.00000  0.90470  1.0000
  C   C24       1.0  0.40490  0.50000  0.90470  1.0000
  O   O1        1.0  0.82210  0.31005  0.77400  1.0000
  O   O2        1.0  0.32210  0.81005  0.77400  1.0000
  O   O3        1.0  0.82210  0.68995  0.77400  1.0000
  O   O4        1.0  0.32210  0.18995  0.77400  1.0000
  O   O5        1.0  0.17790  0.68995  0.22600  1.0000
  O   O6        1.0  0.67790  0.18995  0.22600  1.0000
  O   O7        1.0  0.17790  0.31005  0.22600  1.0000
  O   O8        1.0  0.67790  0.81005  0.22600  1.0000
  O   O9        1.0  0.59240  0.26260  0.76860  1.0000
  O   O10       1.0  0.09240  0.76260  0.76860  1.0000
  O   O11       1.0  0.59240  0.73740  0.76860  1.0000
  O   O12       1.0  0.09240  0.23740  0.76860  1.0000
  O   O13       1.0  0.40760  0.73740  0.23140  1.0000
  O   O14       1.0  0.90760  0.23740  0.23140  1.0000
  O   O15       1.0  0.40760  0.26260  0.23140  1.0000
  O   O16       1.0  0.90760  0.76260  0.23140  1.0000
  O   O17       1.0  0.16400  0.08163  0.16380  1.0000
  O   O18       1.0  0.66400  0.58163  0.16380  1.0000
  O   O19       1.0  0.16400  0.91837  0.16380  1.0000
  O   O20       1.0  0.66400  0.41837  0.16380  1.0000
  O   O21       1.0  0.83600  0.91837  0.83620  1.0000
  O   O22       1.0  0.33600  0.41837  0.83620  1.0000
  O   O23       1.0  0.83600  0.08163  0.83620  1.0000
  O   O24       1.0  0.33600  0.58163  0.83620  1.0000
  Fe  Fe1       1.0  0.00000  0.20736  0.00000  1.0000
  Fe  Fe2       1.0  0.50000  0.70736  0.00000  1.0000
  Fe  Fe3       1.0  0.00000  0.79264  0.00000  1.0000
  Fe  Fe4       1.0  0.50000  0.29264  0.00000  1.0000
