data_image0
_chemical_formula_structural       Ag12S8C4H4C4H4C4H4C4H4C8H8C8H8C8H8C8H8N24O32
_chemical_formula_sum              "Ag12 S8 C48 H48 N24 O32"
_cell_length_a       7.1428
_cell_length_b       14.203
_cell_length_c       35.245
_cell_angle_alpha    90
_cell_angle_beta     90
_cell_angle_gamma    90

_space_group_name_H-M_alt    "P 1"
_space_group_IT_number       1

loop_
  _space_group_symop_operation_xyz
  'x, y, z'

loop_
  _atom_site_type_symbol
  _atom_site_label
  _atom_site_symmetry_multiplicity
  _atom_site_fract_x
  _atom_site_fract_y
  _atom_site_fract_z
  _atom_site_occupancy
  Ag  Ag1       1.0  0.52713  0.42161  0.25000  1.0000
  Ag  Ag2       1.0  0.47287  0.57839  0.75000  1.0000
  Ag  Ag3       1.0  0.52713  0.07839  0.75000  1.0000
  Ag  Ag4       1.0  0.47287  0.92161  0.25000  1.0000
  Ag  Ag5       1.0  0.48864  0.38122  0.34349  1.0000
  Ag  Ag6       1.0  0.51136  0.61878  0.84349  1.0000
  Ag  Ag7       1.0  0.48864  0.11878  0.65651  1.0000
  Ag  Ag8       1.0  0.51136  0.88122  0.15651  1.0000
  Ag  Ag9       1.0  0.51136  0.61878  0.65651  1.0000
  Ag  Ag10      1.0  0.48864  0.38122  0.15651  1.0000
  Ag  Ag11      1.0  0.51136  0.88122  0.34349  1.0000
  Ag  Ag12      1.0  0.48864  0.11878  0.84349  1.0000
  S   S1        1.0  0.52410  0.63938  0.30962  1.0000
  S   S2        1.0  0.47590  0.36062  0.80962  1.0000
  S   S3        1.0  0.52410  0.86062  0.69038  1.0000
  S   S4        1.0  0.47590  0.13938  0.19038  1.0000
  S   S5        1.0  0.47590  0.36062  0.69038  1.0000
  S   S6        1.0  0.52410  0.63938  0.19038  1.0000
  S   S7        1.0  0.47590  0.13938  0.30962  1.0000
  S   S8        1.0  0.52410  0.86062  0.80962  1.0000
  C   C1        1.0  0.93050  0.49140  0.25000  1.0000
  C   C2        1.0  0.06950  0.50860  0.75000  1.0000
  C   C3        1.0  0.93050  0.00860  0.75000  1.0000
  C   C4        1.0  0.06950  0.99140  0.25000  1.0000
  H   H1        1.0  0.86730  0.54860  0.25000  1.0000
  H   H2        1.0  0.13270  0.45140  0.75000  1.0000
  H   H3        1.0  0.86730  0.95140  0.75000  1.0000
  H   H4        1.0  0.13270  0.04860  0.25000  1.0000
  C   C5        1.0  0.12350  0.49060  0.25000  1.0000
  C   C6        1.0  0.87650  0.50940  0.75000  1.0000
  C   C7        1.0  0.12350  0.00940  0.75000  1.0000
  C   C8        1.0  0.87650  0.99060  0.25000  1.0000
  H   H5        1.0  0.18780  0.54750  0.25000  1.0000
  H   H6        1.0  0.81220  0.45250  0.75000  1.0000
  H   H7        1.0  0.18780  0.95250  0.75000  1.0000
  H   H8        1.0  0.81220  0.04750  0.25000  1.0000
  C   C9        1.0  0.12160  0.33120  0.25000  1.0000
  C   C10       1.0  0.87840  0.66880  0.75000  1.0000
  C   C11       1.0  0.12160  0.16880  0.75000  1.0000
  C   C12       1.0  0.87840  0.83120  0.25000  1.0000
  H   H9        1.0  0.18490  0.27400  0.25000  1.0000
  H   H10       1.0  0.81510  0.72600  0.75000  1.0000
  H   H11       1.0  0.18490  0.22600  0.75000  1.0000
  H   H12       1.0  0.81510  0.77400  0.25000  1.0000
  C   C13       1.0  0.92880  0.33120  0.25000  1.0000
  C   C14       1.0  0.07120  0.66880  0.75000  1.0000
  C   C15       1.0  0.92880  0.16880  0.75000  1.0000
  C   C16       1.0  0.07120  0.83120  0.25000  1.0000
  H   H13       1.0  0.86500  0.27410  0.25000  1.0000
  H   H14       1.0  0.13500  0.72590  0.75000  1.0000
  H   H15       1.0  0.86500  0.22590  0.75000  1.0000
  H   H16       1.0  0.13500  0.77410  0.25000  1.0000
  C   C17       1.0  0.89270  0.45960  0.34589  1.0000
  C   C18       1.0  0.10730  0.54040  0.84589  1.0000
  C   C19       1.0  0.89270  0.04040  0.65411  1.0000
  C   C20       1.0  0.10730  0.95960  0.15411  1.0000
  C   C21       1.0  0.10730  0.54040  0.65411  1.0000
  C   C22       1.0  0.89270  0.45960  0.15411  1.0000
  C   C23       1.0  0.10730  0.95960  0.34589  1.0000
  C   C24       1.0  0.89270  0.04040  0.84589  1.0000
  H   H17       1.0  0.83000  0.51690  0.34490  1.0000
  H   H18       1.0  0.17000  0.48310  0.84490  1.0000
  H   H19       1.0  0.83000  0.98310  0.65510  1.0000
  H   H20       1.0  0.17000  0.01690  0.15510  1.0000
  H   H21       1.0  0.17000  0.48310  0.65510  1.0000
  H   H22       1.0  0.83000  0.51690  0.15510  1.0000
  H   H23       1.0  0.17000  0.01690  0.34490  1.0000
  H   H24       1.0  0.83000  0.98310  0.84490  1.0000
  C   C25       1.0  0.08630  0.45910  0.34557  1.0000
  C   C26       1.0  0.91370  0.54090  0.84557  1.0000
  C   C27       1.0  0.08630  0.04090  0.65443  1.0000
  C   C28       1.0  0.91370  0.95910  0.15443  1.0000
  C   C29       1.0  0.91370  0.54090  0.65443  1.0000
  C   C30       1.0  0.08630  0.45910  0.15443  1.0000
  C   C31       1.0  0.91370  0.95910  0.34557  1.0000
  C   C32       1.0  0.08630  0.04090  0.84557  1.0000
  H   H25       1.0  0.15030  0.51600  0.34430  1.0000
  H   H26       1.0  0.84970  0.48400  0.84430  1.0000
  H   H27       1.0  0.15030  0.98400  0.65570  1.0000
  H   H28       1.0  0.84970  0.01600  0.15570  1.0000
  H   H29       1.0  0.84970  0.48400  0.65570  1.0000
  H   H30       1.0  0.15030  0.51600  0.15570  1.0000
  H   H31       1.0  0.84970  0.01600  0.34430  1.0000
  H   H32       1.0  0.15030  0.98400  0.84430  1.0000
  C   C33       1.0  0.08480  0.29970  0.34949  1.0000
  C   C34       1.0  0.91520  0.70030  0.84949  1.0000
  C   C35       1.0  0.08480  0.20030  0.65051  1.0000
  C   C36       1.0  0.91520  0.79970  0.15051  1.0000
  C   C37       1.0  0.91520  0.70030  0.65051  1.0000
  C   C38       1.0  0.08480  0.29970  0.15051  1.0000
  C   C39       1.0  0.91520  0.79970  0.34949  1.0000
  C   C40       1.0  0.08480  0.20030  0.84949  1.0000
  H   H33       1.0  0.14780  0.24260  0.35120  1.0000
  H   H34       1.0  0.85220  0.75740  0.85120  1.0000
  H   H35       1.0  0.14780  0.25740  0.64880  1.0000
  H   H36       1.0  0.85220  0.74260  0.14880  1.0000
  H   H37       1.0  0.85220  0.75740  0.64880  1.0000
  H   H38       1.0  0.14780  0.24260  0.14880  1.0000
  H   H39       1.0  0.85220  0.74260  0.35120  1.0000
  H   H40       1.0  0.14780  0.25740  0.85120  1.0000
  C   C41       1.0  0.89120  0.30030  0.34951  1.0000
  C   C42       1.0  0.10880  0.69970  0.84951  1.0000
  C   C43       1.0  0.89120  0.19970  0.65049  1.0000
  C   C44       1.0  0.10880  0.80030  0.15049  1.0000
  C   C45       1.0  0.10880  0.69970  0.65049  1.0000
  C   C46       1.0  0.89120  0.30030  0.15049  1.0000
  C   C47       1.0  0.10880  0.80030  0.34951  1.0000
  C   C48       1.0  0.89120  0.19970  0.84951  1.0000
  H   H41       1.0  0.82730  0.24340  0.35090  1.0000
  H   H42       1.0  0.17270  0.75660  0.85090  1.0000
  H   H43       1.0  0.82730  0.25660  0.64910  1.0000
  H   H44       1.0  0.17270  0.74340  0.14910  1.0000
  H   H45       1.0  0.17270  0.75660  0.64910  1.0000
  H   H46       1.0  0.82730  0.24340  0.14910  1.0000
  H   H47       1.0  0.17270  0.74340  0.35090  1.0000
  H   H48       1.0  0.82730  0.25660  0.85090  1.0000
  N   N1        1.0  0.83240  0.41090  0.25000  1.0000
  N   N2        1.0  0.16760  0.58910  0.75000  1.0000
  N   N3        1.0  0.83240  0.08910  0.75000  1.0000
  N   N4        1.0  0.16760  0.91090  0.25000  1.0000
  N   N5        1.0  0.22010  0.41080  0.25000  1.0000
  N   N6        1.0  0.77990  0.58920  0.75000  1.0000
  N   N7        1.0  0.22010  0.08920  0.75000  1.0000
  N   N8        1.0  0.77990  0.91080  0.25000  1.0000
  N   N9        1.0  0.79330  0.38020  0.34760  1.0000
  N   N10       1.0  0.20670  0.61980  0.84760  1.0000
  N   N11       1.0  0.79330  0.11980  0.65240  1.0000
  N   N12       1.0  0.20670  0.88020  0.15240  1.0000
  N   N13       1.0  0.20670  0.61980  0.65240  1.0000
  N   N14       1.0  0.79330  0.38020  0.15240  1.0000
  N   N15       1.0  0.20670  0.88020  0.34760  1.0000
  N   N16       1.0  0.79330  0.11980  0.84760  1.0000
  N   N17       1.0  0.18290  0.37950  0.34709  1.0000
  N   N18       1.0  0.81710  0.62050  0.84709  1.0000
  N   N19       1.0  0.18290  0.12050  0.65291  1.0000
  N   N20       1.0  0.81710  0.87950  0.15291  1.0000
  N   N21       1.0  0.81710  0.62050  0.65291  1.0000
  N   N22       1.0  0.18290  0.37950  0.15291  1.0000
  N   N23       1.0  0.81710  0.87950  0.34709  1.0000
  N   N24       1.0  0.18290  0.12050  0.84709  1.0000
  O   O1        1.0  0.49780  0.67160  0.34811  1.0000
  O   O2        1.0  0.50220  0.32840  0.84811  1.0000
  O   O3        1.0  0.49780  0.82840  0.65189  1.0000
  O   O4        1.0  0.50220  0.17160  0.15189  1.0000
  O   O5        1.0  0.50220  0.32840  0.65189  1.0000
  O   O6        1.0  0.49780  0.67160  0.15189  1.0000
  O   O7        1.0  0.50220  0.17160  0.34811  1.0000
  O   O8        1.0  0.49780  0.82840  0.84811  1.0000
  O   O9        1.0  0.46930  0.54390  0.30392  1.0000
  O   O10       1.0  0.53070  0.45610  0.80392  1.0000
  O   O11       1.0  0.46930  0.95610  0.69608  1.0000
  O   O12       1.0  0.53070  0.04390  0.19608  1.0000
  O   O13       1.0  0.53070  0.45610  0.69608  1.0000
  O   O14       1.0  0.46930  0.54390  0.19608  1.0000
  O   O15       1.0  0.53070  0.04390  0.30392  1.0000
  O   O16       1.0  0.46930  0.95610  0.80392  1.0000
  O   O17       1.0  0.42390  0.70510  0.28432  1.0000
  O   O18       1.0  0.57610  0.29490  0.78432  1.0000
  O   O19       1.0  0.42390  0.79490  0.71568  1.0000
  O   O20       1.0  0.57610  0.20510  0.21568  1.0000
  O   O21       1.0  0.57610  0.29490  0.71568  1.0000
  O   O22       1.0  0.42390  0.70510  0.21568  1.0000
  O   O23       1.0  0.57610  0.20510  0.28432  1.0000
  O   O24       1.0  0.42390  0.79490  0.78432  1.0000
  O   O25       1.0  0.72470  0.64740  0.29966  1.0000
  O   O26       1.0  0.27530  0.35260  0.79966  1.0000
  O   O27       1.0  0.72470  0.85260  0.70034  1.0000
  O   O28       1.0  0.27530  0.14740  0.20034  1.0000
  O   O29       1.0  0.27530  0.35260  0.70034  1.0000
  O   O30       1.0  0.72470  0.64740  0.20034  1.0000
  O   O31       1.0  0.27530  0.14740  0.29966  1.0000
  O   O32       1.0  0.72470  0.85260  0.79966  1.0000
