data_image0
_chemical_formula_structural       CuN2O8C10H2C2H2C2H2
_chemical_formula_sum              "Cu1 N2 O8 C14 H6"
_cell_length_a       6.7226
_cell_length_b       8.0901
_cell_length_c       11.2557
_cell_angle_alpha    74.525
_cell_angle_beta     83.848
_cell_angle_gamma    83.7

_space_group_name_H-M_alt    "P 1"
_space_group_IT_number       1

loop_
  _space_group_symop_operation_xyz
  'x, y, z'

loop_
  _atom_site_type_symbol
  _atom_site_label
  _atom_site_symmetry_multiplicity
  _atom_site_fract_x
  _atom_site_fract_y
  _atom_site_fract_z
  _atom_site_occupancy
  Cu  Cu1       1.0  0.50000  0.50000  0.00000  1.0000
  N   N1        1.0  0.68720  0.62038  0.06458  1.0000
  N   N2        1.0  0.31280  0.37962  0.93542  1.0000
  O   O1        1.0  0.67355  0.29710  0.07359  1.0000
  O   O2        1.0  0.32645  0.70290  0.92641  1.0000
  O   O3        1.0  0.93160  0.21390  0.18909  1.0000
  O   O4        1.0  0.06840  0.78610  0.81091  1.0000
  O   O5        1.0  0.29528  0.40676  0.20204  1.0000
  O   O6        1.0  0.70472  0.59324  0.79796  1.0000
  O   O7        1.0  0.08770  0.40890  0.36927  1.0000
  O   O8        1.0  0.91230  0.59110  0.63073  1.0000
  C   C1        1.0  0.81370  0.32560  0.13127  1.0000
  C   C2        1.0  0.18630  0.67440  0.86873  1.0000
  C   C3        1.0  0.83090  0.51300  0.12612  1.0000
  C   C4        1.0  0.16910  0.48700  0.87388  1.0000
  C   C5        1.0  0.97870  0.57100  0.17826  1.0000
  C   C6        1.0  0.02130  0.42900  0.82174  1.0000
  C   C7        1.0  0.13170  0.45110  0.25714  1.0000
  C   C8        1.0  0.86830  0.54890  0.74286  1.0000
  C   C9        1.0  0.97610  0.74850  0.16096  1.0000
  C   C10       1.0  0.02390  0.25150  0.83904  1.0000
  H   H1        1.0  0.07350  0.79290  0.19340  1.0000
  H   H2        1.0  0.92650  0.20710  0.80660  1.0000
  C   C11       1.0  0.83050  0.85840  0.09622  1.0000
  C   C12       1.0  0.16950  0.14160  0.90378  1.0000
  H   H3        1.0  0.82920  0.97680  0.08420  1.0000
  H   H4        1.0  0.17080  0.02320  0.91580  1.0000
  C   C13       1.0  0.68690  0.79000  0.04961  1.0000
  C   C14       1.0  0.31310  0.21000  0.95039  1.0000
  H   H5        1.0  0.58720  0.86350  0.00670  1.0000
  H   H6        1.0  0.41280  0.13650  0.99330  1.0000
