data_image0
_chemical_formula_structural       Co12O64C16H8C8H8C16H8C8H8C24H8C16H8C16H8C16H8C8
_chemical_formula_sum              "Co12 O64 C128 H64"
_cell_length_a       33.225
_cell_length_b       9.851
_cell_length_c       17.7341
_cell_angle_alpha    90
_cell_angle_beta     99.335
_cell_angle_gamma    90

_space_group_name_H-M_alt    "P 1"
_space_group_IT_number       1

loop_
  _space_group_symop_operation_xyz
  'x, y, z'

loop_
  _atom_site_type_symbol
  _atom_site_label
  _atom_site_symmetry_multiplicity
  _atom_site_fract_x
  _atom_site_fract_y
  _atom_site_fract_z
  _atom_site_occupancy
  Co  Co1       1.0  0.25000  0.75000  0.00000  1.0000
  Co  Co2       1.0  0.75000  0.75000  0.50000  1.0000
  Co  Co3       1.0  0.75000  0.25000  0.00000  1.0000
  Co  Co4       1.0  0.25000  0.25000  0.50000  1.0000
  Co  Co5       1.0  0.14935  0.82088  0.96560  1.0000
  Co  Co6       1.0  0.85065  0.82088  0.53440  1.0000
  Co  Co7       1.0  0.64935  0.32088  0.96560  1.0000
  Co  Co8       1.0  0.35065  0.32088  0.53440  1.0000
  Co  Co9       1.0  0.85065  0.17912  0.03440  1.0000
  Co  Co10      1.0  0.14935  0.17912  0.46560  1.0000
  Co  Co11      1.0  0.35065  0.67912  0.03440  1.0000
  Co  Co12      1.0  0.64935  0.67912  0.46560  1.0000
  O   O1        1.0  0.15820  0.70740  0.87750  1.0000
  O   O2        1.0  0.84180  0.70740  0.62250  1.0000
  O   O3        1.0  0.65820  0.20740  0.87750  1.0000
  O   O4        1.0  0.34180  0.20740  0.62250  1.0000
  O   O5        1.0  0.84180  0.29260  0.12250  1.0000
  O   O6        1.0  0.15820  0.29260  0.37750  1.0000
  O   O7        1.0  0.34180  0.79260  0.12250  1.0000
  O   O8        1.0  0.65820  0.79260  0.37750  1.0000
  O   O9        1.0  0.22649  0.71100  0.88860  1.0000
  O   O10       1.0  0.77351  0.71100  0.61140  1.0000
  O   O11       1.0  0.72649  0.21100  0.88860  1.0000
  O   O12       1.0  0.27351  0.21100  0.61140  1.0000
  O   O13       1.0  0.77351  0.28900  0.11140  1.0000
  O   O14       1.0  0.22649  0.28900  0.38860  1.0000
  O   O15       1.0  0.27351  0.78900  0.11140  1.0000
  O   O16       1.0  0.72649  0.78900  0.38860  1.0000
  O   O17       1.0  0.15000  0.31220  0.55190  1.0000
  O   O18       1.0  0.85000  0.31220  0.94810  1.0000
  O   O19       1.0  0.65000  0.81220  0.55190  1.0000
  O   O20       1.0  0.35000  0.81220  0.94810  1.0000
  O   O21       1.0  0.85000  0.68780  0.44810  1.0000
  O   O22       1.0  0.15000  0.68780  0.05190  1.0000
  O   O23       1.0  0.35000  0.18780  0.44810  1.0000
  O   O24       1.0  0.65000  0.18780  0.05190  1.0000
  O   O25       1.0  0.21220  0.38620  0.53920  1.0000
  O   O26       1.0  0.78780  0.38620  0.96080  1.0000
  O   O27       1.0  0.71220  0.88620  0.53920  1.0000
  O   O28       1.0  0.28780  0.88620  0.96080  1.0000
  O   O29       1.0  0.78780  0.61380  0.46080  1.0000
  O   O30       1.0  0.21220  0.61380  0.03920  1.0000
  O   O31       1.0  0.28780  0.11380  0.46080  1.0000
  O   O32       1.0  0.71220  0.11380  0.03920  1.0000
  O   O33       1.0  0.16910  0.01820  0.91150  1.0000
  O   O34       1.0  0.83090  0.01820  0.58850  1.0000
  O   O35       1.0  0.66910  0.51820  0.91150  1.0000
  O   O36       1.0  0.33090  0.51820  0.58850  1.0000
  O   O37       1.0  0.83090  0.98180  0.08850  1.0000
  O   O38       1.0  0.16910  0.98180  0.41150  1.0000
  O   O39       1.0  0.33090  0.48180  0.08850  1.0000
  O   O40       1.0  0.66910  0.48180  0.41150  1.0000
  O   O41       1.0  0.20507  0.91060  0.00810  1.0000
  O   O42       1.0  0.79493  0.91060  0.49190  1.0000
  O   O43       1.0  0.70507  0.41060  0.00810  1.0000
  O   O44       1.0  0.29493  0.41060  0.49190  1.0000
  O   O45       1.0  0.79493  0.08940  0.99190  1.0000
  O   O46       1.0  0.20507  0.08940  0.50810  1.0000
  O   O47       1.0  0.29493  0.58940  0.99190  1.0000
  O   O48       1.0  0.70507  0.58940  0.50810  1.0000
  O   O49       1.0  0.11152  0.95970  0.03280  1.0000
  O   O50       1.0  0.88848  0.95970  0.46720  1.0000
  O   O51       1.0  0.61152  0.45970  0.03280  1.0000
  O   O52       1.0  0.38848  0.45970  0.46720  1.0000
  O   O53       1.0  0.88848  0.04030  0.96720  1.0000
  O   O54       1.0  0.11152  0.04030  0.53280  1.0000
  O   O55       1.0  0.38848  0.54030  0.96720  1.0000
  O   O56       1.0  0.61152  0.54030  0.53280  1.0000
  O   O57       1.0  0.08743  0.84120  0.93170  1.0000
  O   O58       1.0  0.91257  0.84120  0.56830  1.0000
  O   O59       1.0  0.58743  0.34120  0.93170  1.0000
  O   O60       1.0  0.41257  0.34120  0.56830  1.0000
  O   O61       1.0  0.91257  0.15880  0.06830  1.0000
  O   O62       1.0  0.08743  0.15880  0.43170  1.0000
  O   O63       1.0  0.41257  0.65880  0.06830  1.0000
  O   O64       1.0  0.58743  0.65880  0.43170  1.0000
  C   C1        1.0  0.18880  0.60330  0.78170  1.0000
  C   C2        1.0  0.81120  0.60330  0.71830  1.0000
  C   C3        1.0  0.68880  0.10330  0.78170  1.0000
  C   C4        1.0  0.31120  0.10330  0.71830  1.0000
  C   C5        1.0  0.81120  0.39670  0.21830  1.0000
  C   C6        1.0  0.18880  0.39670  0.28170  1.0000
  C   C7        1.0  0.31120  0.89670  0.21830  1.0000
  C   C8        1.0  0.68880  0.89670  0.28170  1.0000
  C   C9        1.0  0.22310  0.58730  0.74740  1.0000
  C   C10       1.0  0.77690  0.58730  0.75260  1.0000
  C   C11       1.0  0.72310  0.08730  0.74740  1.0000
  C   C12       1.0  0.27690  0.08730  0.75260  1.0000
  C   C13       1.0  0.77690  0.41270  0.25260  1.0000
  C   C14       1.0  0.22310  0.41270  0.24740  1.0000
  C   C15       1.0  0.27690  0.91270  0.25260  1.0000
  C   C16       1.0  0.72310  0.91270  0.24740  1.0000
  H   H1        1.0  0.24800  0.62280  0.77040  1.0000
  H   H2        1.0  0.75200  0.62280  0.72960  1.0000
  H   H3        1.0  0.74800  0.12280  0.77040  1.0000
  H   H4        1.0  0.25200  0.12280  0.72960  1.0000
  H   H5        1.0  0.75200  0.37720  0.22960  1.0000
  H   H6        1.0  0.24800  0.37720  0.27040  1.0000
  H   H7        1.0  0.25200  0.87720  0.22960  1.0000
  H   H8        1.0  0.74800  0.87720  0.27040  1.0000
  C   C17       1.0  0.22010  0.51830  0.67890  1.0000
  C   C18       1.0  0.77990  0.51830  0.82110  1.0000
  C   C19       1.0  0.72010  0.01830  0.67890  1.0000
  C   C20       1.0  0.27990  0.01830  0.82110  1.0000
  C   C21       1.0  0.77990  0.48170  0.32110  1.0000
  C   C22       1.0  0.22010  0.48170  0.17890  1.0000
  C   C23       1.0  0.27990  0.98170  0.32110  1.0000
  C   C24       1.0  0.72010  0.98170  0.17890  1.0000
  H   H9        1.0  0.24300  0.50990  0.65550  1.0000
  H   H10       1.0  0.75700  0.50990  0.84450  1.0000
  H   H11       1.0  0.74300  0.00990  0.65550  1.0000
  H   H12       1.0  0.25700  0.00990  0.84450  1.0000
  H   H13       1.0  0.75700  0.49010  0.34450  1.0000
  H   H14       1.0  0.24300  0.49010  0.15550  1.0000
  H   H15       1.0  0.25700  0.99010  0.34450  1.0000
  H   H16       1.0  0.74300  0.99010  0.15550  1.0000
  C   C25       1.0  0.18390  0.46200  0.64490  1.0000
  C   C26       1.0  0.81610  0.46200  0.85510  1.0000
  C   C27       1.0  0.68390  0.96200  0.64490  1.0000
  C   C28       1.0  0.31610  0.96200  0.85510  1.0000
  C   C29       1.0  0.81610  0.53800  0.35510  1.0000
  C   C30       1.0  0.18390  0.53800  0.14490  1.0000
  C   C31       1.0  0.31610  0.03800  0.35510  1.0000
  C   C32       1.0  0.68390  0.03800  0.14490  1.0000
  C   C33       1.0  0.14960  0.47750  0.67950  1.0000
  C   C34       1.0  0.85040  0.47750  0.82050  1.0000
  C   C35       1.0  0.64960  0.97750  0.67950  1.0000
  C   C36       1.0  0.35040  0.97750  0.82050  1.0000
  C   C37       1.0  0.85040  0.52250  0.32050  1.0000
  C   C38       1.0  0.14960  0.52250  0.17950  1.0000
  C   C39       1.0  0.35040  0.02250  0.32050  1.0000
  C   C40       1.0  0.64960  0.02250  0.17950  1.0000
  H   H17       1.0  0.12480  0.44060  0.65680  1.0000
  H   H18       1.0  0.87520  0.44060  0.84320  1.0000
  H   H19       1.0  0.62480  0.94060  0.65680  1.0000
  H   H20       1.0  0.37520  0.94060  0.84320  1.0000
  H   H21       1.0  0.87520  0.55940  0.34320  1.0000
  H   H22       1.0  0.12480  0.55940  0.15680  1.0000
  H   H23       1.0  0.37520  0.05940  0.34320  1.0000
  H   H24       1.0  0.62480  0.05940  0.15680  1.0000
  C   C41       1.0  0.15220  0.54750  0.74730  1.0000
  C   C42       1.0  0.84780  0.54750  0.75270  1.0000
  C   C43       1.0  0.65220  0.04750  0.74730  1.0000
  C   C44       1.0  0.34780  0.04750  0.75270  1.0000
  C   C45       1.0  0.84780  0.45250  0.25270  1.0000
  C   C46       1.0  0.15220  0.45250  0.24730  1.0000
  C   C47       1.0  0.34780  0.95250  0.25270  1.0000
  C   C48       1.0  0.65220  0.95250  0.24730  1.0000
  H   H25       1.0  0.12910  0.55740  0.77010  1.0000
  H   H26       1.0  0.87090  0.55740  0.72990  1.0000
  H   H27       1.0  0.62910  0.05740  0.77010  1.0000
  H   H28       1.0  0.37090  0.05740  0.72990  1.0000
  H   H29       1.0  0.87090  0.44260  0.22990  1.0000
  H   H30       1.0  0.12910  0.44260  0.27010  1.0000
  H   H31       1.0  0.37090  0.94260  0.22990  1.0000
  H   H32       1.0  0.62910  0.94260  0.27010  1.0000
  C   C49       1.0  0.19160  0.67940  0.85510  1.0000
  C   C50       1.0  0.80840  0.67940  0.64490  1.0000
  C   C51       1.0  0.69160  0.17940  0.85510  1.0000
  C   C52       1.0  0.30840  0.17940  0.64490  1.0000
  C   C53       1.0  0.80840  0.32060  0.14490  1.0000
  C   C54       1.0  0.19160  0.32060  0.35510  1.0000
  C   C55       1.0  0.30840  0.82060  0.14490  1.0000
  C   C56       1.0  0.69160  0.82060  0.35510  1.0000
  C   C57       1.0  0.18170  0.38070  0.57280  1.0000
  C   C58       1.0  0.81830  0.38070  0.92720  1.0000
  C   C59       1.0  0.68170  0.88070  0.57280  1.0000
  C   C60       1.0  0.31830  0.88070  0.92720  1.0000
  C   C61       1.0  0.81830  0.61930  0.42720  1.0000
  C   C62       1.0  0.18170  0.61930  0.07280  1.0000
  C   C63       1.0  0.31830  0.11930  0.42720  1.0000
  C   C64       1.0  0.68170  0.11930  0.07280  1.0000
  C   C65       1.0  0.22050  0.25040  0.93510  1.0000
  C   C66       1.0  0.77950  0.25040  0.56490  1.0000
  C   C67       1.0  0.72050  0.75040  0.93510  1.0000
  C   C68       1.0  0.27950  0.75040  0.56490  1.0000
  C   C69       1.0  0.77950  0.74960  0.06490  1.0000
  C   C70       1.0  0.22050  0.74960  0.43510  1.0000
  C   C71       1.0  0.27950  0.24960  0.06490  1.0000
  C   C72       1.0  0.72050  0.24960  0.43510  1.0000
  H   H33       1.0  0.20080  0.25010  0.89130  1.0000
  H   H34       1.0  0.79920  0.25010  0.60870  1.0000
  H   H35       1.0  0.70080  0.75010  0.89130  1.0000
  H   H36       1.0  0.29920  0.75010  0.60870  1.0000
  H   H37       1.0  0.79920  0.74990  0.10870  1.0000
  H   H38       1.0  0.20080  0.74990  0.39130  1.0000
  H   H39       1.0  0.29920  0.24990  0.10870  1.0000
  H   H40       1.0  0.70080  0.24990  0.39130  1.0000
  C   C73       1.0  0.22550  0.13640  0.98220  1.0000
  C   C74       1.0  0.77450  0.13640  0.51780  1.0000
  C   C75       1.0  0.72550  0.63640  0.98220  1.0000
  C   C76       1.0  0.27450  0.63640  0.51780  1.0000
  C   C77       1.0  0.77450  0.86360  0.01780  1.0000
  C   C78       1.0  0.22550  0.86360  0.48220  1.0000
  C   C79       1.0  0.27450  0.36360  0.01780  1.0000
  C   C80       1.0  0.72550  0.36360  0.48220  1.0000
  C   C81       1.0  0.25560  0.13690  0.04720  1.0000
  C   C82       1.0  0.74440  0.13690  0.45280  1.0000
  C   C83       1.0  0.75560  0.63690  0.04720  1.0000
  C   C84       1.0  0.24440  0.63690  0.45280  1.0000
  C   C85       1.0  0.74440  0.86310  0.95280  1.0000
  C   C86       1.0  0.25560  0.86310  0.54720  1.0000
  C   C87       1.0  0.24440  0.36310  0.95280  1.0000
  C   C88       1.0  0.75560  0.36310  0.54720  1.0000
  H   H41       1.0  0.25940  0.06070  0.07850  1.0000
  H   H42       1.0  0.74060  0.06070  0.42150  1.0000
  H   H43       1.0  0.75940  0.56070  0.07850  1.0000
  H   H44       1.0  0.24060  0.56070  0.42150  1.0000
  H   H45       1.0  0.74060  0.93930  0.92150  1.0000
  H   H46       1.0  0.25940  0.93930  0.57850  1.0000
  H   H47       1.0  0.24060  0.43930  0.92150  1.0000
  H   H48       1.0  0.75940  0.43930  0.57850  1.0000
  C   C89       1.0  0.19870  0.01660  0.96420  1.0000
  C   C90       1.0  0.80130  0.01660  0.53580  1.0000
  C   C91       1.0  0.69870  0.51660  0.96420  1.0000
  C   C92       1.0  0.30130  0.51660  0.53580  1.0000
  C   C93       1.0  0.80130  0.98340  0.03580  1.0000
  C   C94       1.0  0.19870  0.98340  0.46420  1.0000
  C   C95       1.0  0.30130  0.48340  0.03580  1.0000
  C   C96       1.0  0.69870  0.48340  0.46420  1.0000
  C   C97       1.0  0.03330  0.06320  0.04390  1.0000
  C   C98       1.0  0.96670  0.06320  0.45610  1.0000
  C   C99       1.0  0.53330  0.56320  0.04390  1.0000
  C   C100      1.0  0.46670  0.56320  0.45610  1.0000
  C   C101      1.0  0.96670  0.93680  0.95610  1.0000
  C   C102      1.0  0.03330  0.93680  0.54390  1.0000
  C   C103      1.0  0.46670  0.43680  0.95610  1.0000
  C   C104      1.0  0.53330  0.43680  0.54390  1.0000
  H   H49       1.0  0.05550  0.10570  0.07330  1.0000
  H   H50       1.0  0.94450  0.10570  0.42670  1.0000
  H   H51       1.0  0.55550  0.60570  0.07330  1.0000
  H   H52       1.0  0.44450  0.60570  0.42670  1.0000
  H   H53       1.0  0.94450  0.89430  0.92670  1.0000
  H   H54       1.0  0.05550  0.89430  0.57330  1.0000
  H   H55       1.0  0.44450  0.39430  0.92670  1.0000
  H   H56       1.0  0.55550  0.39430  0.57330  1.0000
  C   C105      1.0  0.03940  0.96150  0.99260  1.0000
  C   C106      1.0  0.96060  0.96150  0.50740  1.0000
  C   C107      1.0  0.53940  0.46150  0.99260  1.0000
  C   C108      1.0  0.46060  0.46150  0.50740  1.0000
  C   C109      1.0  0.96060  0.03850  0.00740  1.0000
  C   C110      1.0  0.03940  0.03850  0.49260  1.0000
  C   C111      1.0  0.46060  0.53850  0.00740  1.0000
  C   C112      1.0  0.53940  0.53850  0.49260  1.0000
  C   C113      1.0  0.00670  0.89860  0.94880  1.0000
  C   C114      1.0  0.99330  0.89860  0.55120  1.0000
  C   C115      1.0  0.50670  0.39860  0.94880  1.0000
  C   C116      1.0  0.49330  0.39860  0.55120  1.0000
  C   C117      1.0  0.99330  0.10140  0.05120  1.0000
  C   C118      1.0  0.00670  0.10140  0.44880  1.0000
  C   C119      1.0  0.49330  0.60140  0.05120  1.0000
  C   C120      1.0  0.50670  0.60140  0.44880  1.0000
  H   H57       1.0  0.01100  0.83080  0.91450  1.0000
  H   H58       1.0  0.98900  0.83080  0.58550  1.0000
  H   H59       1.0  0.51100  0.33080  0.91450  1.0000
  H   H60       1.0  0.48900  0.33080  0.58550  1.0000
  H   H61       1.0  0.98900  0.16920  0.08550  1.0000
  H   H62       1.0  0.01100  0.16920  0.41450  1.0000
  H   H63       1.0  0.48900  0.66920  0.08550  1.0000
  H   H64       1.0  0.51100  0.66920  0.41450  1.0000
  C   C121      1.0  0.08200  0.92010  0.98550  1.0000
  C   C122      1.0  0.91800  0.92010  0.51450  1.0000
  C   C123      1.0  0.58200  0.42010  0.98550  1.0000
  C   C124      1.0  0.41800  0.42010  0.51450  1.0000
  C   C125      1.0  0.91800  0.07990  0.01450  1.0000
  C   C126      1.0  0.08200  0.07990  0.48550  1.0000
  C   C127      1.0  0.41800  0.57990  0.01450  1.0000
  C   C128      1.0  0.58200  0.57990  0.48550  1.0000
