data_image0
_chemical_formula_structural       U3P4O22C4H2C2H2C2H2C2H2C2H2C2H4C2H4C6H2C2H2C2H2C2H2C2H2C2H4C2H4C2
_chemical_formula_sum              "U3 P4 O22 C36 H36"
_cell_length_a       12.3337
_cell_length_b       13.5585
_cell_length_c       13.6142
_cell_angle_alpha    61.218
_cell_angle_beta     83.154
_cell_angle_gamma    66.954

_space_group_name_H-M_alt    "P 1"
_space_group_IT_number       1

loop_
  _space_group_symop_operation_xyz
  'x, y, z'

loop_
  _atom_site_type_symbol
  _atom_site_label
  _atom_site_symmetry_multiplicity
  _atom_site_fract_x
  _atom_site_fract_y
  _atom_site_fract_z
  _atom_site_occupancy
  U   U1        1.0  0.50000  0.50000  0.50000  1.0000
  U   U2        1.0  0.64110  0.98435  0.78048  1.0000
  U   U3        1.0  0.35890  0.01565  0.21952  1.0000
  P   P1        1.0  0.43287  0.77171  0.51864  1.0000
  P   P2        1.0  0.56713  0.22829  0.48136  1.0000
  P   P3        1.0  0.40693  0.73817  0.21138  1.0000
  P   P4        1.0  0.59307  0.26183  0.78862  1.0000
  O   O1        1.0  0.36650  0.48290  0.55220  1.0000
  O   O2        1.0  0.63350  0.51710  0.44780  1.0000
  O   O3        1.0  0.78470  0.94490  0.73600  1.0000
  O   O4        1.0  0.21530  0.05510  0.26400  1.0000
  O   O5        1.0  0.49650  0.02040  0.82470  1.0000
  O   O6        1.0  0.50350  0.97960  0.17530  1.0000
  O   O7        1.0  0.46750  0.63640  0.56380  1.0000
  O   O8        1.0  0.53250  0.36360  0.43620  1.0000
  O   O9        1.0  0.42740  0.84050  0.39230  1.0000
  O   O10       1.0  0.57260  0.15950  0.60770  1.0000
  O   O11       1.0  0.63780  0.78380  0.82370  1.0000
  O   O12       1.0  0.36220  0.21620  0.17630  1.0000
  O   O13       1.0  0.57100  0.93530  0.65610  1.0000
  O   O14       1.0  0.42900  0.06470  0.34390  1.0000
  O   O15       1.0  0.72730  0.85960  0.96160  1.0000
  O   O16       1.0  0.27270  0.14040  0.03840  1.0000
  O   O17       1.0  0.76620  0.75730  0.14650  1.0000
  O   O18       1.0  0.23380  0.24270  0.85350  1.0000
  O   O19       1.0  0.34170  0.86880  0.18680  1.0000
  O   O20       1.0  0.65830  0.13120  0.81320  1.0000
  O   O21       1.0  0.39990  0.64530  0.33080  1.0000
  O   O22       1.0  0.60010  0.35470  0.66920  1.0000
  C   C1        1.0  0.29230  0.82840  0.56790  1.0000
  C   C2        1.0  0.70770  0.17160  0.43210  1.0000
  C   C3        1.0  0.24590  0.94470  0.55370  1.0000
  C   C4        1.0  0.75410  0.05530  0.44630  1.0000
  H   H1        1.0  0.28700  0.99580  0.51800  1.0000
  H   H2        1.0  0.71300  0.00420  0.48200  1.0000
  C   C5        1.0  0.13660  0.98600  0.59320  1.0000
  C   C6        1.0  0.86340  0.01400  0.40680  1.0000
  H   H3        1.0  0.10540  0.06480  0.58400  1.0000
  H   H4        1.0  0.89460  0.93520  0.41600  1.0000
  C   C7        1.0  0.07510  0.91220  0.64520  1.0000
  C   C8        1.0  0.92490  0.08780  0.35480  1.0000
  H   H5        1.0  0.00200  0.94060  0.67070  1.0000
  H   H6        1.0  0.99800  0.05940  0.32930  1.0000
  C   C9        1.0  0.12070  0.79840  0.65910  1.0000
  C   C10       1.0  0.87930  0.20160  0.34090  1.0000
  H   H7        1.0  0.07860  0.74830  0.69420  1.0000
  H   H8        1.0  0.92140  0.25170  0.30580  1.0000
  C   C11       1.0  0.22890  0.75490  0.62220  1.0000
  C   C12       1.0  0.77110  0.24510  0.37780  1.0000
  H   H9        1.0  0.25990  0.67520  0.63390  1.0000
  H   H10       1.0  0.74010  0.32480  0.36610  1.0000
  C   C13       1.0  0.53600  0.79880  0.57350  1.0000
  C   C14       1.0  0.46400  0.20120  0.42650  1.0000
  H   H11       1.0  0.61390  0.76050  0.55440  1.0000
  H   H12       1.0  0.38610  0.23950  0.44560  1.0000
  H   H13       1.0  0.51710  0.88590  0.53480  1.0000
  H   H14       1.0  0.48290  0.11410  0.46520  1.0000
  C   C15       1.0  0.54360  0.75520  0.70000  1.0000
  C   C16       1.0  0.45640  0.24480  0.30000  1.0000
  H   H15       1.0  0.46600  0.76120  0.72670  1.0000
  H   H16       1.0  0.53400  0.23880  0.27330  1.0000
  H   H17       1.0  0.59650  0.67010  0.73830  1.0000
  H   H18       1.0  0.40350  0.32990  0.26170  1.0000
  C   C17       1.0  0.58710  0.82720  0.72930  1.0000
  C   C18       1.0  0.41290  0.17280  0.27070  1.0000
  C   C19       1.0  0.34270  0.71620  0.11610  1.0000
  C   C20       1.0  0.65730  0.28380  0.88390  1.0000
  C   C21       1.0  0.30820  0.80470  0.00690  1.0000
  C   C22       1.0  0.69180  0.19530  0.99310  1.0000
  H   H19       1.0  0.31630  0.87820  0.98230  1.0000
  H   H20       1.0  0.68370  0.12180  0.01770  1.0000
  C   C23       1.0  0.26140  0.78680  0.93220  1.0000
  C   C24       1.0  0.73860  0.21320  0.06780  1.0000
  H   H21       1.0  0.24030  0.84670  0.85740  1.0000
  H   H22       1.0  0.75970  0.15330  0.14260  1.0000
  C   C25       1.0  0.24700  0.68060  0.96980  1.0000
  C   C26       1.0  0.75300  0.31940  0.03020  1.0000
  H   H23       1.0  0.21620  0.66760  0.92000  1.0000
  H   H24       1.0  0.78380  0.33240  0.08000  1.0000
  C   C27       1.0  0.27630  0.59370  0.07790  1.0000
  C   C28       1.0  0.72370  0.40630  0.92210  1.0000
  H   H25       1.0  0.26420  0.52230  0.10190  1.0000
  H   H26       1.0  0.73580  0.47770  0.89810  1.0000
  C   C29       1.0  0.32440  0.60940  0.15380  1.0000
  C   C30       1.0  0.67560  0.39060  0.84620  1.0000
  H   H27       1.0  0.34410  0.54940  0.22870  1.0000
  H   H28       1.0  0.65590  0.45060  0.77130  1.0000
  C   C31       1.0  0.55930  0.70970  0.19000  1.0000
  C   C32       1.0  0.44070  0.29030  0.81000  1.0000
  H   H29       1.0  0.59290  0.72190  0.24220  1.0000
  H   H30       1.0  0.40710  0.27810  0.75780  1.0000
  H   H31       1.0  0.60030  0.62510  0.20740  1.0000
  H   H32       1.0  0.39970  0.37490  0.79260  1.0000
  C   C33       1.0  0.58200  0.79100  0.06980  1.0000
  C   C34       1.0  0.41800  0.20900  0.93020  1.0000
  H   H33       1.0  0.57760  0.75790  0.02170  1.0000
  H   H34       1.0  0.42240  0.24210  0.97830  1.0000
  H   H35       1.0  0.52010  0.87180  0.04140  1.0000
  H   H36       1.0  0.47990  0.12820  0.95860  1.0000
  C   C35       1.0  0.70100  0.80140  0.06250  1.0000
  C   C36       1.0  0.29900  0.19860  0.93750  1.0000
