data_image0
_chemical_formula_structural       Cd8O52N16C6H2C2H2C6H2C2H2C4H2C4H2C2H2C6H2C2H2C4H2C6H2C2H2C4H2C2H2C6H2C2H2C4H2C2H2C8H2C2H2C4H2C2H2C4H2C4H2C2H2C6H2C2H2C4H2C4H2C2H2C4H2C2H2C6H2C2H2C4H2C2H2C8H2C2H2C4H2C2H2C4H2C4H2C2H2C6H2C2H2C4H2C6H2C2H2C4H2C2H2C6H2C2H2C4H2C2H2C8H2C2H2C4H2C2H2C4H2C4H2C2H2C6H2C2H2C4H2C6H2C2H2C4H2C2H2C6H2C2H2C4H2C2H2C4H2C2H2C4H2C2H2C2H2C2H2C4H2C2H2C2H6C4H6C2H6C2H6C4H6C2H6
_chemical_formula_sum              "Cd8 O52 N16 C300 H196"
_cell_length_a       15.8325
_cell_length_b       22.884
_cell_length_c       36.596
_cell_angle_alpha    90
_cell_angle_beta     97.523
_cell_angle_gamma    90

_space_group_name_H-M_alt    "P 1"
_space_group_IT_number       1

loop_
  _space_group_symop_operation_xyz
  'x, y, z'

loop_
  _atom_site_type_symbol
  _atom_site_label
  _atom_site_symmetry_multiplicity
  _atom_site_fract_x
  _atom_site_fract_y
  _atom_site_fract_z
  _atom_site_occupancy
  Cd  Cd1       1.0  0.96856  0.72584  0.20669  1.0000
  Cd  Cd2       1.0  0.46856  0.27416  0.70669  1.0000
  Cd  Cd3       1.0  0.64496  0.69741  0.37595  1.0000
  Cd  Cd4       1.0  0.14496  0.30259  0.87595  1.0000
  Cd  Cd5       1.0  0.11555  0.19566  0.35291  1.0000
  Cd  Cd6       1.0  0.61555  0.80434  0.85291  1.0000
  Cd  Cd7       1.0  0.50590  0.24296  0.23583  1.0000
  Cd  Cd8       1.0  0.00590  0.75704  0.73583  1.0000
  O   O1        1.0  0.84170  0.70720  0.23918  1.0000
  O   O2        1.0  0.34170  0.29280  0.73918  1.0000
  O   O3        1.0  0.83090  0.75010  0.18525  1.0000
  O   O4        1.0  0.33090  0.24990  0.68525  1.0000
  O   O5        1.0  0.51980  0.14130  0.23750  1.0000
  O   O6        1.0  0.01980  0.85870  0.73750  1.0000
  O   O7        1.0  0.40960  0.17320  0.20240  1.0000
  O   O8        1.0  0.90960  0.82680  0.70240  1.0000
  O   O9        1.0  0.50820  0.34030  0.23985  1.0000
  O   O10       1.0  0.00820  0.65970  0.73985  1.0000
  O   O11       1.0  0.39120  0.30880  0.20677  1.0000
  O   O12       1.0  0.89120  0.69120  0.70677  1.0000
  O   O13       1.0  0.57840  0.25220  0.18109  1.0000
  O   O14       1.0  0.07840  0.74780  0.68109  1.0000
  O   O15       1.0  0.65310  0.23620  0.23547  1.0000
  O   O16       1.0  0.15310  0.76380  0.73547  1.0000
  O   O17       1.0  0.96000  0.62610  0.20165  1.0000
  O   O18       1.0  0.46000  0.37390  0.70165  1.0000
  O   O19       1.0  0.00700  0.66050  0.15206  1.0000
  O   O20       1.0  0.50700  0.33950  0.65206  1.0000
  O   O21       1.0  0.01980  0.79795  0.16966  1.0000
  O   O22       1.0  0.51980  0.20205  0.66966  1.0000
  O   O23       1.0  0.97480  0.83065  0.21973  1.0000
  O   O24       1.0  0.47480  0.16935  0.71973  1.0000
  O   O25       1.0  0.77160  0.67800  0.34015  1.0000
  O   O26       1.0  0.27160  0.32200  0.84015  1.0000
  O   O27       1.0  0.78630  0.71020  0.39742  1.0000
  O   O28       1.0  0.28630  0.28980  0.89742  1.0000
  O   O29       1.0  0.10890  0.29750  0.33980  1.0000
  O   O30       1.0  0.60890  0.70250  0.83980  1.0000
  O   O31       1.0  0.21320  0.26450  0.38064  1.0000
  O   O32       1.0  0.71320  0.73550  0.88064  1.0000
  O   O33       1.0  0.10040  0.09540  0.34577  1.0000
  O   O34       1.0  0.60040  0.90460  0.84577  1.0000
  O   O35       1.0  0.20730  0.12650  0.38624  1.0000
  O   O36       1.0  0.70730  0.87350  0.88624  1.0000
  O   O37       1.0  0.96480  0.19320  0.34528  1.0000
  O   O38       1.0  0.46480  0.80680  0.84528  1.0000
  O   O39       1.0  0.03200  0.20750  0.40101  1.0000
  O   O40       1.0  0.53200  0.79250  0.90101  1.0000
  O   O41       1.0  0.64800  0.80279  0.36530  1.0000
  O   O42       1.0  0.14800  0.19721  0.86530  1.0000
  O   O43       1.0  0.59660  0.76789  0.41393  1.0000
  O   O44       1.0  0.09660  0.23211  0.91393  1.0000
  O   O45       1.0  0.64690  0.59790  0.38008  1.0000
  O   O46       1.0  0.14690  0.40210  0.88008  1.0000
  O   O47       1.0  0.60290  0.63110  0.43061  1.0000
  O   O48       1.0  0.10290  0.36890  0.93061  1.0000
  O   O49       1.0  0.17730  0.18920  0.30120  1.0000
  O   O50       1.0  0.67730  0.81080  0.80120  1.0000
  O   O51       1.0  0.50410  0.24320  0.29890  1.0000
  O   O52       1.0  0.00410  0.75680  0.79890  1.0000
  N   N1        1.0  0.43440  0.74150  0.20052  1.0000
  N   N2        1.0  0.93440  0.25850  0.70052  1.0000
  N   N3        1.0  0.95950  0.22680  0.14041  1.0000
  N   N4        1.0  0.45950  0.77320  0.64041  1.0000
  N   N5        1.0  0.18160  0.69590  0.38233  1.0000
  N   N6        1.0  0.68160  0.30410  0.88233  1.0000
  N   N7        1.0  0.64510  0.19800  0.43540  1.0000
  N   N8        1.0  0.14510  0.80200  0.93540  1.0000
  N   N9        1.0  0.09270  0.71570  0.24629  1.0000
  N   N10       1.0  0.59270  0.28430  0.74629  1.0000
  N   N11       1.0  0.51860  0.69700  0.33587  1.0000
  N   N12       1.0  0.01860  0.30300  0.83587  1.0000
  N   N13       1.0  0.20950  0.21780  0.24860  1.0000
  N   N14       1.0  0.70950  0.78220  0.74860  1.0000
  N   N15       1.0  0.44250  0.21290  0.34550  1.0000
  N   N16       1.0  0.94250  0.78710  0.84550  1.0000
  C   C1        1.0  0.79710  0.73020  0.21210  1.0000
  C   C2        1.0  0.29710  0.26980  0.71210  1.0000
  C   C3        1.0  0.70190  0.73520  0.21050  1.0000
  C   C4        1.0  0.20190  0.26480  0.71050  1.0000
  C   C5        1.0  0.65580  0.76630  0.18227  1.0000
  C   C6        1.0  0.15580  0.23370  0.68227  1.0000
  H   H1        1.0  0.68390  0.78490  0.16480  1.0000
  H   H2        1.0  0.18390  0.21510  0.66480  1.0000
  C   C7        1.0  0.56760  0.77000  0.17982  1.0000
  C   C8        1.0  0.06760  0.23000  0.67982  1.0000
  H   H3        1.0  0.53710  0.79210  0.16130  1.0000
  H   H4        1.0  0.03710  0.20790  0.66130  1.0000
  C   C9        1.0  0.52570  0.74080  0.20490  1.0000
  C   C10       1.0  0.02570  0.25920  0.70490  1.0000
  C   C11       1.0  0.00760  0.27660  0.13326  1.0000
  C   C12       1.0  0.50760  0.72340  0.63326  1.0000
  C   C13       1.0  0.57040  0.70930  0.23380  1.0000
  C   C14       1.0  0.07040  0.29070  0.73380  1.0000
  H   H5        1.0  0.54170  0.68970  0.25070  1.0000
  H   H6        1.0  0.04170  0.31030  0.75070  1.0000
  C   C15       1.0  0.65890  0.70790  0.23690  1.0000
  C   C16       1.0  0.15890  0.29210  0.73690  1.0000
  H   H7        1.0  0.68980  0.68870  0.25670  1.0000
  H   H8        1.0  0.18980  0.31130  0.75670  1.0000
  C   C17       1.0  0.38360  0.79140  0.19490  1.0000
  C   C18       1.0  0.88360  0.20860  0.69490  1.0000
  C   C19       1.0  0.40710  0.84910  0.20046  1.0000
  C   C20       1.0  0.90710  0.15090  0.70046  1.0000
  H   H9        1.0  0.46360  0.85920  0.20810  1.0000
  H   H10       1.0  0.96360  0.14080  0.70810  1.0000
  C   C21       1.0  0.34460  0.89190  0.19450  1.0000
  C   C22       1.0  0.84460  0.10810  0.69450  1.0000
  C   C23       1.0  0.25910  0.87510  0.18150  1.0000
  C   C24       1.0  0.75910  0.12490  0.68150  1.0000
  H   H11       1.0  0.21760  0.90390  0.17670  1.0000
  H   H12       1.0  0.71760  0.09610  0.67670  1.0000
  C   C25       1.0  0.23660  0.81780  0.17600  1.0000
  C   C26       1.0  0.73660  0.18220  0.67600  1.0000
  H   H13       1.0  0.18070  0.80770  0.16730  1.0000
  H   H14       1.0  0.68070  0.19230  0.66730  1.0000
  C   C27       1.0  0.29890  0.77440  0.18360  1.0000
  C   C28       1.0  0.79890  0.22560  0.68360  1.0000
  C   C29       1.0  0.29710  0.71080  0.18230  1.0000
  C   C30       1.0  0.79710  0.28920  0.68230  1.0000
  C   C31       1.0  0.23600  0.66870  0.17390  1.0000
  C   C32       1.0  0.73600  0.33130  0.67390  1.0000
  H   H15       1.0  0.18050  0.67970  0.16520  1.0000
  H   H16       1.0  0.68050  0.32030  0.66520  1.0000
  C   C33       1.0  0.25610  0.61000  0.17820  1.0000
  C   C34       1.0  0.75610  0.39000  0.67820  1.0000
  H   H17       1.0  0.21340  0.58220  0.17330  1.0000
  H   H18       1.0  0.71340  0.41780  0.67330  1.0000
  C   C35       1.0  0.34110  0.59170  0.18990  1.0000
  C   C36       1.0  0.84110  0.40830  0.68990  1.0000
  C   C37       1.0  0.40580  0.63500  0.19660  1.0000
  C   C38       1.0  0.90580  0.36500  0.69660  1.0000
  H   H19       1.0  0.46260  0.62440  0.20290  1.0000
  H   H20       1.0  0.96260  0.37560  0.70290  1.0000
  C   C39       1.0  0.38270  0.69210  0.19350  1.0000
  C   C40       1.0  0.88270  0.30790  0.69350  1.0000
  C   C41       1.0  0.36950  0.95400  0.20072  1.0000
  C   C42       1.0  0.86950  0.04600  0.70072  1.0000
  C   C43       1.0  0.44230  0.96850  0.22510  1.0000
  C   C44       1.0  0.94230  0.03150  0.72510  1.0000
  H   H21       1.0  0.47310  0.93920  0.23850  1.0000
  H   H22       1.0  0.97310  0.06080  0.73850  1.0000
  C   C45       1.0  0.46920  0.02660  0.22930  1.0000
  C   C46       1.0  0.96920  0.97340  0.72930  1.0000
  H   H23       1.0  0.51870  0.03530  0.24500  1.0000
  H   H24       1.0  0.01870  0.96470  0.74500  1.0000
  C   C47       1.0  0.42380  0.07100  0.21090  1.0000
  C   C48       1.0  0.92380  0.92900  0.71090  1.0000
  C   C49       1.0  0.34930  0.05800  0.18800  1.0000
  C   C50       1.0  0.84930  0.94200  0.68800  1.0000
  H   H25       1.0  0.31730  0.08800  0.17590  1.0000
  H   H26       1.0  0.81730  0.91200  0.67590  1.0000
  C   C51       1.0  0.32160  0.00000  0.18270  1.0000
  C   C52       1.0  0.82160  0.00000  0.68270  1.0000
  H   H27       1.0  0.27150  0.99190  0.16730  1.0000
  H   H28       1.0  0.77150  0.00810  0.66730  1.0000
  C   C53       1.0  0.45200  0.13280  0.21690  1.0000
  C   C54       1.0  0.95200  0.86720  0.71690  1.0000
  C   C55       1.0  0.36470  0.53010  0.19610  1.0000
  C   C56       1.0  0.86470  0.46990  0.69610  1.0000
  C   C57       1.0  0.30920  0.48420  0.18460  1.0000
  C   C58       1.0  0.80920  0.51580  0.68460  1.0000
  H   H29       1.0  0.25570  0.49290  0.17200  1.0000
  H   H30       1.0  0.75570  0.50710  0.67200  1.0000
  C   C59       1.0  0.33130  0.42680  0.19140  1.0000
  C   C60       1.0  0.83130  0.57320  0.69140  1.0000
  H   H31       1.0  0.29330  0.39710  0.18310  1.0000
  H   H32       1.0  0.79330  0.60290  0.68310  1.0000
  C   C61       1.0  0.41120  0.41290  0.21080  1.0000
  C   C62       1.0  0.91120  0.58710  0.71080  1.0000
  C   C63       1.0  0.46570  0.45610  0.22250  1.0000
  C   C64       1.0  0.96570  0.54390  0.72250  1.0000
  H   H33       1.0  0.51880  0.44720  0.23530  1.0000
  H   H34       1.0  0.01880  0.55280  0.73530  1.0000
  C   C65       1.0  0.44250  0.51420  0.21560  1.0000
  C   C66       1.0  0.94250  0.48580  0.71560  1.0000
  H   H35       1.0  0.48070  0.54340  0.22430  1.0000
  H   H36       1.0  0.98070  0.45660  0.72430  1.0000
  C   C67       1.0  0.43630  0.35060  0.21950  1.0000
  C   C68       1.0  0.93630  0.64940  0.71950  1.0000
  C   C69       1.0  0.64780  0.24170  0.20120  1.0000
  C   C70       1.0  0.14780  0.75830  0.70120  1.0000
  C   C71       1.0  0.72770  0.23490  0.18330  1.0000
  C   C72       1.0  0.22770  0.76510  0.68330  1.0000
  C   C73       1.0  0.79770  0.20590  0.20300  1.0000
  C   C74       1.0  0.29770  0.79410  0.70300  1.0000
  H   H37       1.0  0.79310  0.18950  0.22590  1.0000
  H   H38       1.0  0.29310  0.81050  0.72590  1.0000
  C   C75       1.0  0.87330  0.20210  0.18820  1.0000
  C   C76       1.0  0.37330  0.79790  0.68820  1.0000
  H   H39       1.0  0.91930  0.18220  0.20090  1.0000
  H   H40       1.0  0.41930  0.81780  0.70090  1.0000
  C   C77       1.0  0.88110  0.22780  0.15450  1.0000
  C   C78       1.0  0.38110  0.77220  0.65450  1.0000
  C   C79       1.0  0.81130  0.25510  0.13410  1.0000
  C   C80       1.0  0.31130  0.74490  0.63410  1.0000
  H   H41       1.0  0.81560  0.27070  0.11100  1.0000
  H   H42       1.0  0.31560  0.72930  0.61100  1.0000
  C   C81       1.0  0.73440  0.25840  0.14940  1.0000
  C   C82       1.0  0.23440  0.74160  0.64940  1.0000
  H   H43       1.0  0.68750  0.27670  0.13620  1.0000
  H   H44       1.0  0.18750  0.72330  0.63620  1.0000
  C   C83       1.0  0.01190  0.17800  0.13901  1.0000
  C   C84       1.0  0.51190  0.82200  0.63901  1.0000
  C   C85       1.0  0.99570  0.12000  0.14790  1.0000
  C   C86       1.0  0.49570  0.88000  0.64790  1.0000
  H   H45       1.0  0.94440  0.10930  0.15580  1.0000
  H   H46       1.0  0.44440  0.89070  0.65580  1.0000
  C   C87       1.0  0.05860  0.07910  0.14456  1.0000
  C   C88       1.0  0.55860  0.92090  0.64456  1.0000
  C   C89       1.0  0.13370  0.09460  0.13200  1.0000
  C   C90       1.0  0.63370  0.90540  0.63200  1.0000
  H   H47       1.0  0.17350  0.06580  0.12880  1.0000
  H   H48       1.0  0.67350  0.93420  0.62880  1.0000
  C   C91       1.0  0.15150  0.15260  0.12390  1.0000
  C   C92       1.0  0.65150  0.84740  0.62390  1.0000
  H   H49       1.0  0.20320  0.16270  0.11610  1.0000
  H   H50       1.0  0.70320  0.83730  0.61610  1.0000
  C   C93       1.0  0.09060  0.19480  0.12780  1.0000
  C   C94       1.0  0.59060  0.80520  0.62780  1.0000
  C   C95       1.0  0.08720  0.25790  0.12489  1.0000
  C   C96       1.0  0.58720  0.74210  0.62489  1.0000
  C   C97       1.0  0.14620  0.30140  0.11890  1.0000
  C   C98       1.0  0.64620  0.69860  0.61890  1.0000
  H   H51       1.0  0.19900  0.29100  0.11230  1.0000
  H   H52       1.0  0.69900  0.70900  0.61230  1.0000
  C   C99       1.0  0.12620  0.35970  0.12260  1.0000
  C   C100      1.0  0.62620  0.64030  0.62260  1.0000
  H   H53       1.0  0.16590  0.38830  0.11880  1.0000
  H   H54       1.0  0.66590  0.61170  0.61880  1.0000
  C   C101      1.0  0.04710  0.37630  0.13206  1.0000
  C   C102      1.0  0.54710  0.62370  0.63206  1.0000
  C   C103      1.0  0.98570  0.33390  0.13652  1.0000
  C   C104      1.0  0.48570  0.66610  0.63652  1.0000
  H   H55       1.0  0.93160  0.34440  0.14150  1.0000
  H   H56       1.0  0.43160  0.65560  0.64150  1.0000
  C   C105      1.0  0.04520  0.01620  0.15606  1.0000
  C   C106      1.0  0.54520  0.98380  0.65606  1.0000
  C   C107      1.0  0.00980  0.00500  0.18900  1.0000
  C   C108      1.0  0.50980  0.99500  0.68900  1.0000
  H   H57       1.0  0.99490  0.03590  0.20330  1.0000
  H   H58       1.0  0.49490  0.96410  0.70330  1.0000
  C   C109      1.0  0.99750  0.94810  0.19980  1.0000
  C   C110      1.0  0.49750  0.05190  0.69980  1.0000
  H   H59       1.0  0.97670  0.94080  0.22190  1.0000
  H   H60       1.0  0.47670  0.05920  0.72190  1.0000
  C   C111      1.0  0.01640  0.90100  0.17720  1.0000
  C   C112      1.0  0.51640  0.09900  0.67720  1.0000
  C   C113      1.0  0.05280  0.91270  0.14520  1.0000
  C   C114      1.0  0.55280  0.08730  0.64520  1.0000
  H   H61       1.0  0.06840  0.88180  0.13090  1.0000
  H   H62       1.0  0.56840  0.11820  0.63090  1.0000
  C   C115      1.0  0.06620  0.97000  0.13446  1.0000
  C   C116      1.0  0.56620  0.03000  0.63446  1.0000
  H   H63       1.0  0.08920  0.97720  0.11280  1.0000
  H   H64       1.0  0.58920  0.02280  0.61280  1.0000
  C   C117      1.0  0.00200  0.83930  0.19020  1.0000
  C   C118      1.0  0.50200  0.16070  0.69020  1.0000
  C   C119      1.0  0.02970  0.43940  0.13973  1.0000
  C   C120      1.0  0.52970  0.56060  0.63973  1.0000
  C   C121      1.0  0.07260  0.48460  0.12500  1.0000
  C   C122      1.0  0.57260  0.51540  0.62500  1.0000
  H   H65       1.0  0.11190  0.47600  0.10900  1.0000
  H   H66       1.0  0.61190  0.52400  0.60900  1.0000
  C   C123      1.0  0.05790  0.54390  0.13380  1.0000
  C   C124      1.0  0.55790  0.45610  0.63380  1.0000
  H   H67       1.0  0.08670  0.57380  0.12340  1.0000
  H   H68       1.0  0.58670  0.42620  0.62340  1.0000
  C   C125      1.0  0.99940  0.55690  0.15823  1.0000
  C   C126      1.0  0.49940  0.44310  0.65823  1.0000
  C   C127      1.0  0.95480  0.51060  0.17220  1.0000
  C   C128      1.0  0.45480  0.48940  0.67220  1.0000
  H   H69       1.0  0.91480  0.51860  0.18800  1.0000
  H   H70       1.0  0.41480  0.48140  0.68800  1.0000
  C   C129      1.0  0.96930  0.45470  0.16280  1.0000
  C   C130      1.0  0.46930  0.54530  0.66280  1.0000
  H   H71       1.0  0.93770  0.42510  0.17200  1.0000
  H   H72       1.0  0.43770  0.57490  0.67200  1.0000
  C   C131      1.0  0.98780  0.61870  0.17000  1.0000
  C   C132      1.0  0.48780  0.38130  0.67000  1.0000
  C   C133      1.0  0.81690  0.69460  0.36910  1.0000
  C   C134      1.0  0.31690  0.30540  0.86910  1.0000
  C   C135      1.0  0.91310  0.69580  0.37081  1.0000
  C   C136      1.0  0.41310  0.30420  0.87081  1.0000
  C   C137      1.0  0.96090  0.72470  0.39997  1.0000
  C   C138      1.0  0.46090  0.27530  0.89997  1.0000
  H   H73       1.0  0.93380  0.74350  0.41770  1.0000
  H   H74       1.0  0.43380  0.25650  0.91770  1.0000
  C   C139      1.0  0.04970  0.72550  0.40250  1.0000
  C   C140      1.0  0.54970  0.27450  0.90250  1.0000
  H   H75       1.0  0.08110  0.74530  0.42190  1.0000
  H   H76       1.0  0.58110  0.25470  0.92190  1.0000
  C   C141      1.0  0.09110  0.69760  0.37710  1.0000
  C   C142      1.0  0.59110  0.30240  0.87710  1.0000
  C   C143      1.0  0.04430  0.66820  0.34710  1.0000
  C   C144      1.0  0.54430  0.33180  0.84710  1.0000
  H   H77       1.0  0.07230  0.64920  0.32960  1.0000
  H   H78       1.0  0.57230  0.35080  0.82960  1.0000
  C   C145      1.0  0.95570  0.66790  0.34410  1.0000
  C   C146      1.0  0.45570  0.33210  0.84410  1.0000
  H   H79       1.0  0.92430  0.64910  0.32420  1.0000
  H   H80       1.0  0.42430  0.35090  0.82420  1.0000
  C   C147      1.0  0.23300  0.74510  0.38939  1.0000
  C   C148      1.0  0.73300  0.25490  0.88939  1.0000
  C   C149      1.0  0.21070  0.80280  0.38430  1.0000
  C   C150      1.0  0.71070  0.19720  0.88430  1.0000
  H   H81       1.0  0.15430  0.81360  0.37710  1.0000
  H   H82       1.0  0.65430  0.18640  0.87710  1.0000
  C   C151      1.0  0.27430  0.84450  0.39025  1.0000
  C   C152      1.0  0.77430  0.15550  0.89025  1.0000
  C   C153      1.0  0.35830  0.82810  0.40240  1.0000
  C   C154      1.0  0.85830  0.17190  0.90240  1.0000
  H   H83       1.0  0.39970  0.85700  0.40700  1.0000
  H   H84       1.0  0.89970  0.14300  0.90700  1.0000
  C   C155      1.0  0.38130  0.77020  0.40770  1.0000
  C   C156      1.0  0.88130  0.22980  0.90770  1.0000
  H   H85       1.0  0.43770  0.75990  0.41520  1.0000
  H   H86       1.0  0.93770  0.24010  0.91520  1.0000
  C   C157      1.0  0.31680  0.72680  0.40140  1.0000
  C   C158      1.0  0.81680  0.27320  0.90140  1.0000
  C   C159      1.0  0.31690  0.66370  0.40150  1.0000
  C   C160      1.0  0.81690  0.33630  0.90150  1.0000
  C   C161      1.0  0.37910  0.62100  0.41070  1.0000
  C   C162      1.0  0.87910  0.37900  0.91070  1.0000
  H   H87       1.0  0.43430  0.63130  0.42040  1.0000
  H   H88       1.0  0.93430  0.36870  0.92040  1.0000
  C   C163      1.0  0.35650  0.56300  0.40500  1.0000
  C   C164      1.0  0.85650  0.43700  0.90500  1.0000
  H   H89       1.0  0.39800  0.53420  0.40990  1.0000
  H   H90       1.0  0.89800  0.46580  0.90990  1.0000
  C   C165      1.0  0.27220  0.54630  0.39200  1.0000
  C   C166      1.0  0.77220  0.45370  0.89200  1.0000
  C   C167      1.0  0.20950  0.58780  0.38460  1.0000
  C   C168      1.0  0.70950  0.41220  0.88460  1.0000
  H   H91       1.0  0.15330  0.57720  0.37690  1.0000
  H   H92       1.0  0.65330  0.42280  0.87690  1.0000
  C   C169      1.0  0.23310  0.64650  0.38910  1.0000
  C   C170      1.0  0.73310  0.35350  0.88910  1.0000
  C   C171      1.0  0.25000  0.90670  0.38353  1.0000
  C   C172      1.0  0.75000  0.09330  0.88353  1.0000
  C   C173      1.0  0.17620  0.92140  0.36000  1.0000
  C   C174      1.0  0.67620  0.07860  0.86000  1.0000
  H   H93       1.0  0.14480  0.89210  0.34690  1.0000
  H   H94       1.0  0.64480  0.10790  0.84690  1.0000
  C   C175      1.0  0.14910  0.97850  0.35590  1.0000
  C   C176      1.0  0.64910  0.02150  0.85590  1.0000
  H   H95       1.0  0.09900  0.98720  0.34070  1.0000
  H   H96       1.0  0.59900  0.01280  0.84070  1.0000
  C   C177      1.0  0.19660  0.02380  0.37468  1.0000
  C   C178      1.0  0.69660  0.97620  0.87468  1.0000
  C   C179      1.0  0.26990  0.00990  0.39740  1.0000
  C   C180      1.0  0.76990  0.99010  0.89740  1.0000
  H   H97       1.0  0.30200  0.03960  0.40970  1.0000
  H   H98       1.0  0.80200  0.96040  0.90970  1.0000
  C   C181      1.0  0.29650  0.95350  0.40220  1.0000
  C   C182      1.0  0.79650  0.04650  0.90220  1.0000
  H   H99       1.0  0.34600  0.94550  0.41810  1.0000
  H   H100      1.0  0.84600  0.05450  0.91810  1.0000
  C   C183      1.0  0.16630  0.08470  0.36860  1.0000
  C   C184      1.0  0.66630  0.91530  0.86860  1.0000
  C   C185      1.0  0.25050  0.48390  0.38450  1.0000
  C   C186      1.0  0.75050  0.51610  0.88450  1.0000
  C   C187      1.0  0.29680  0.43770  0.40250  1.0000
  C   C188      1.0  0.79680  0.56230  0.90250  1.0000
  H   H101      1.0  0.34480  0.44570  0.41930  1.0000
  H   H102      1.0  0.84480  0.55430  0.91930  1.0000
  C   C189      1.0  0.27250  0.38020  0.39570  1.0000
  C   C190      1.0  0.77250  0.61980  0.89570  1.0000
  H   H103      1.0  0.30390  0.35020  0.40800  1.0000
  H   H104      1.0  0.80390  0.64980  0.90800  1.0000
  C   C191      1.0  0.20150  0.36730  0.37070  1.0000
  C   C192      1.0  0.70150  0.63270  0.87070  1.0000
  C   C193      1.0  0.15470  0.41300  0.35180  1.0000
  C   C194      1.0  0.65470  0.58700  0.85180  1.0000
  H   H105      1.0  0.10670  0.40500  0.33510  1.0000
  H   H106      1.0  0.60670  0.59500  0.83510  1.0000
  C   C195      1.0  0.18160  0.46990  0.35870  1.0000
  C   C196      1.0  0.68160  0.53010  0.85870  1.0000
  H   H107      1.0  0.15210  0.50000  0.34550  1.0000
  H   H108      1.0  0.65210  0.50000  0.84550  1.0000
  C   C197      1.0  0.17120  0.30570  0.36330  1.0000
  C   C198      1.0  0.67120  0.69430  0.86330  1.0000
  C   C199      1.0  0.96440  0.19960  0.37940  1.0000
  C   C200      1.0  0.46440  0.80040  0.87940  1.0000
  C   C201      1.0  0.88110  0.19830  0.39460  1.0000
  C   C202      1.0  0.38110  0.80170  0.89460  1.0000
  C   C203      1.0  0.87400  0.22160  0.42920  1.0000
  C   C204      1.0  0.37400  0.77840  0.92920  1.0000
  H   H109      1.0  0.92170  0.23730  0.44340  1.0000
  H   H110      1.0  0.42170  0.76270  0.94340  1.0000
  C   C205      1.0  0.79670  0.22160  0.44260  1.0000
  C   C206      1.0  0.29670  0.77840  0.94260  1.0000
  H   H111      1.0  0.79250  0.23760  0.46560  1.0000
  H   H112      1.0  0.29250  0.76240  0.96560  1.0000
  C   C207      1.0  0.72500  0.19790  0.42190  1.0000
  C   C208      1.0  0.22500  0.80210  0.92190  1.0000
  C   C209      1.0  0.73230  0.17360  0.38790  1.0000
  C   C210      1.0  0.23230  0.82640  0.88790  1.0000
  H   H113      1.0  0.68490  0.15680  0.37410  1.0000
  H   H114      1.0  0.18490  0.84320  0.87410  1.0000
  C   C211      1.0  0.81020  0.17430  0.37410  1.0000
  C   C212      1.0  0.31020  0.82570  0.87410  1.0000
  H   H115      1.0  0.81450  0.15850  0.35100  1.0000
  H   H116      1.0  0.31450  0.84150  0.85100  1.0000
  C   C213      1.0  0.60160  0.24640  0.44450  1.0000
  C   C214      1.0  0.10160  0.75360  0.94450  1.0000
  C   C215      1.0  0.62120  0.30580  0.44050  1.0000
  C   C216      1.0  0.12120  0.69420  0.94050  1.0000
  H   H117      1.0  0.67290  0.31670  0.43310  1.0000
  H   H118      1.0  0.17290  0.68330  0.93310  1.0000
  C   C217      1.0  0.56330  0.34750  0.44777  1.0000
  C   C218      1.0  0.06330  0.65250  0.94777  1.0000
  C   C219      1.0  0.48530  0.33000  0.46010  1.0000
  C   C220      1.0  0.98530  0.67000  0.96010  1.0000
  H   H119      1.0  0.44640  0.35840  0.46520  1.0000
  H   H120      1.0  0.94640  0.64160  0.96520  1.0000
  C   C221      1.0  0.46650  0.27130  0.46470  1.0000
  C   C222      1.0  0.96650  0.72870  0.96470  1.0000
  H   H121      1.0  0.41620  0.26050  0.47350  1.0000
  H   H122      1.0  0.91620  0.73950  0.97350  1.0000
  C   C223      1.0  0.52360  0.22910  0.45610  1.0000
  C   C224      1.0  0.02360  0.77090  0.95610  1.0000
  C   C225      1.0  0.52120  0.16620  0.45337  1.0000
  C   C226      1.0  0.02120  0.83380  0.95337  1.0000
  C   C227      1.0  0.46310  0.12230  0.46072  1.0000
  C   C228      1.0  0.96310  0.87770  0.96072  1.0000
  H   H123      1.0  0.41380  0.13240  0.47050  1.0000
  H   H124      1.0  0.91380  0.86760  0.97050  1.0000
  C   C229      1.0  0.47930  0.06440  0.45340  1.0000
  C   C230      1.0  0.97930  0.93560  0.95340  1.0000
  H   H125      1.0  0.44120  0.03580  0.45890  1.0000
  H   H126      1.0  0.94120  0.96420  0.95890  1.0000
  C   C231      1.0  0.55280  0.04800  0.43771  1.0000
  C   C232      1.0  0.05280  0.95200  0.93771  1.0000
  C   C233      1.0  0.61200  0.08990  0.43100  1.0000
  C   C234      1.0  0.11200  0.91010  0.93100  1.0000
  H   H127      1.0  0.66110  0.07940  0.42110  1.0000
  H   H128      1.0  0.16110  0.92060  0.92110  1.0000
  C   C235      1.0  0.59660  0.14790  0.43950  1.0000
  C   C236      1.0  0.09660  0.85210  0.93950  1.0000
  C   C237      1.0  0.58030  0.41080  0.44008  1.0000
  C   C238      1.0  0.08030  0.58920  0.94008  1.0000
  C   C239      1.0  0.54350  0.45570  0.45714  1.0000
  C   C240      1.0  0.04350  0.54430  0.95714  1.0000
  H   H129      1.0  0.50810  0.44710  0.47480  1.0000
  H   H130      1.0  0.00810  0.55290  0.97480  1.0000
  C   C241      1.0  0.55790  0.51360  0.44869  1.0000
  C   C242      1.0  0.05790  0.48640  0.94869  1.0000
  H   H131      1.0  0.53230  0.54320  0.46070  1.0000
  H   H132      1.0  0.03230  0.45680  0.96070  1.0000
  C   C243      1.0  0.60960  0.52730  0.42260  1.0000
  C   C244      1.0  0.10960  0.47270  0.92260  1.0000
  C   C245      1.0  0.64910  0.48300  0.40590  1.0000
  C   C246      1.0  0.14910  0.51700  0.90590  1.0000
  H   H133      1.0  0.68480  0.49190  0.38840  1.0000
  H   H134      1.0  0.18480  0.50810  0.88840  1.0000
  C   C247      1.0  0.63570  0.42490  0.41510  1.0000
  C   C248      1.0  0.13570  0.57510  0.91510  1.0000
  H   H135      1.0  0.66430  0.39530  0.40430  1.0000
  H   H136      1.0  0.16430  0.60470  0.90430  1.0000
  C   C249      1.0  0.62050  0.58940  0.41030  1.0000
  C   C250      1.0  0.12050  0.41060  0.91030  1.0000
  C   C251      1.0  0.56780  0.98660  0.42710  1.0000
  C   C252      1.0  0.06780  0.01340  0.92710  1.0000
  C   C253      1.0  0.60430  0.97580  0.39550  1.0000
  C   C254      1.0  0.10430  0.02420  0.89550  1.0000
  H   H137      1.0  0.61830  0.00710  0.38120  1.0000
  H   H138      1.0  0.11830  0.99290  0.88120  1.0000
  C   C255      1.0  0.62060  0.91860  0.38450  1.0000
  C   C256      1.0  0.12060  0.08140  0.88450  1.0000
  H   H139      1.0  0.64490  0.91200  0.36310  1.0000
  H   H140      1.0  0.14490  0.08800  0.86310  1.0000
  C   C257      1.0  0.59980  0.87120  0.40625  1.0000
  C   C258      1.0  0.09980  0.12880  0.90625  1.0000
  C   C259      1.0  0.56340  0.88210  0.43825  1.0000
  C   C260      1.0  0.06340  0.11790  0.93825  1.0000
  H   H141      1.0  0.54980  0.85110  0.45290  1.0000
  H   H142      1.0  0.04980  0.14890  0.95290  1.0000
  C   C261      1.0  0.54740  0.93860  0.44819  1.0000
  C   C262      1.0  0.04740  0.06140  0.94819  1.0000
  H   H143      1.0  0.52250  0.94520  0.46950  1.0000
  H   H144      1.0  0.02250  0.05480  0.96950  1.0000
  C   C263      1.0  0.61750  0.81040  0.39390  1.0000
  C   C264      1.0  0.11750  0.18960  0.89390  1.0000
  C   C265      1.0  0.46670  0.65100  0.33430  1.0000
  C   C266      1.0  0.96670  0.34900  0.83430  1.0000
  H   H145      1.0  0.48780  0.61620  0.34490  1.0000
  H   H146      1.0  0.98780  0.38380  0.84490  1.0000
  C   C267      1.0  0.38290  0.65220  0.31760  1.0000
  C   C268      1.0  0.88290  0.34780  0.81760  1.0000
  H   H147      1.0  0.34920  0.61890  0.31730  1.0000
  H   H148      1.0  0.84920  0.38110  0.81730  1.0000
  C   C269      1.0  0.34950  0.70390  0.30123  1.0000
  C   C270      1.0  0.84950  0.29610  0.80123  1.0000
  C   C271      1.0  0.40220  0.75150  0.30320  1.0000
  C   C272      1.0  0.90220  0.24850  0.80320  1.0000
  H   H149      1.0  0.38240  0.78690  0.29290  1.0000
  H   H150      1.0  0.88240  0.21310  0.79290  1.0000
  C   C273      1.0  0.48700  0.74690  0.32090  1.0000
  C   C274      1.0  0.98700  0.25310  0.82090  1.0000
  H   H151      1.0  0.52190  0.77980  0.32210  1.0000
  H   H152      1.0  0.02190  0.22020  0.82210  1.0000
  C   C275      1.0  0.13160  0.66430  0.25220  1.0000
  C   C276      1.0  0.63160  0.33570  0.75220  1.0000
  H   H153      1.0  0.10170  0.63070  0.24420  1.0000
  H   H154      1.0  0.60170  0.36930  0.74420  1.0000
  C   C277      1.0  0.21570  0.65830  0.26970  1.0000
  C   C278      1.0  0.71570  0.34170  0.76970  1.0000
  H   H155      1.0  0.24090  0.62150  0.27240  1.0000
  H   H156      1.0  0.74090  0.37850  0.77240  1.0000
  C   C279      1.0  0.26060  0.70730  0.28294  1.0000
  C   C280      1.0  0.76060  0.29270  0.78294  1.0000
  C   C281      1.0  0.21830  0.76030  0.27870  1.0000
  C   C282      1.0  0.71830  0.23970  0.77870  1.0000
  H   H157      1.0  0.24520  0.79420  0.28830  1.0000
  H   H158      1.0  0.74520  0.20580  0.78830  1.0000
  C   C283      1.0  0.13620  0.76330  0.26030  1.0000
  C   C284      1.0  0.63620  0.23670  0.76030  1.0000
  H   H159      1.0  0.10980  0.79970  0.25740  1.0000
  H   H160      1.0  0.60980  0.20030  0.75740  1.0000
  C   C285      1.0  0.50640  0.13870  0.32100  1.0000
  C   C286      1.0  0.00640  0.86130  0.82100  1.0000
  H   H161      1.0  0.45620  0.11510  0.31550  1.0000
  H   H162      1.0  0.95620  0.88490  0.81550  1.0000
  H   H163      1.0  0.53450  0.12900  0.34510  1.0000
  H   H164      1.0  0.03450  0.87100  0.84510  1.0000
  H   H165      1.0  0.54420  0.13150  0.30300  1.0000
  H   H166      1.0  0.04420  0.86850  0.80300  1.0000
  C   C287      1.0  0.48090  0.20430  0.32000  1.0000
  C   C288      1.0  0.98090  0.79570  0.82000  1.0000
  C   C289      1.0  0.42470  0.28500  0.34770  1.0000
  C   C290      1.0  0.92470  0.71500  0.84770  1.0000
  H   H167      1.0  0.36450  0.29210  0.34530  1.0000
  H   H168      1.0  0.86450  0.70790  0.84530  1.0000
  H   H169      1.0  0.44850  0.30440  0.32820  1.0000
  H   H170      1.0  0.94850  0.69560  0.82820  1.0000
  H   H171      1.0  0.45100  0.29970  0.37100  1.0000
  H   H172      1.0  0.95100  0.70030  0.87100  1.0000
  C   C291      1.0  0.40110  0.17590  0.36840  1.0000
  C   C292      1.0  0.90110  0.82410  0.86840  1.0000
  H   H173      1.0  0.34340  0.16950  0.35740  1.0000
  H   H174      1.0  0.84340  0.83050  0.85740  1.0000
  H   H175      1.0  0.40120  0.19390  0.39210  1.0000
  H   H176      1.0  0.90120  0.80610  0.89210  1.0000
  H   H177      1.0  0.43050  0.13920  0.37120  1.0000
  H   H178      1.0  0.93050  0.86080  0.87120  1.0000
  C   C293      1.0  0.06580  0.20890  0.25580  1.0000
  C   C294      1.0  0.56580  0.79110  0.75580  1.0000
  H   H179      1.0  0.05340  0.18470  0.23430  1.0000
  H   H180      1.0  0.55340  0.81530  0.73430  1.0000
  H   H181      1.0  0.05170  0.24870  0.24950  1.0000
  H   H182      1.0  0.55170  0.75130  0.74950  1.0000
  H   H183      1.0  0.03280  0.19590  0.27450  1.0000
  H   H184      1.0  0.53280  0.80410  0.77450  1.0000
  C   C295      1.0  0.15550  0.20470  0.26960  1.0000
  C   C296      1.0  0.65550  0.79530  0.76960  1.0000
  C   C297      1.0  0.29770  0.21500  0.26450  1.0000
  C   C298      1.0  0.79770  0.78500  0.76450  1.0000
  H   H185      1.0  0.30110  0.20560  0.29020  1.0000
  H   H186      1.0  0.80110  0.79440  0.79020  1.0000
  H   H187      1.0  0.32430  0.25220  0.26170  1.0000
  H   H188      1.0  0.82430  0.74780  0.76170  1.0000
  H   H189      1.0  0.32640  0.18550  0.25210  1.0000
  H   H190      1.0  0.82640  0.81450  0.75210  1.0000
  C   C299      1.0  0.19410  0.23930  0.21180  1.0000
  C   C300      1.0  0.69410  0.76070  0.71180  1.0000
  H   H191      1.0  0.19660  0.20760  0.19480  1.0000
  H   H192      1.0  0.69660  0.79240  0.69480  1.0000
  H   H193      1.0  0.23650  0.26790  0.20810  1.0000
  H   H194      1.0  0.73650  0.73210  0.70810  1.0000
  H   H195      1.0  0.13870  0.25700  0.20770  1.0000
  H   H196      1.0  0.63870  0.74300  0.70770  1.0000
