data_image0
_chemical_formula_structural       O48U16C12O48C96H48O16C96H48C48H48C96H48O16
_chemical_formula_sum              "O128 U16 C348 H192"
_cell_length_a       32.0941
_cell_length_b       32.0941
_cell_length_c       32.0941
_cell_angle_alpha    90
_cell_angle_beta     90
_cell_angle_gamma    90

_space_group_name_H-M_alt    "P 1"
_space_group_IT_number       1

loop_
  _space_group_symop_operation_xyz
  'x, y, z'

loop_
  _atom_site_type_symbol
  _atom_site_label
  _atom_site_symmetry_multiplicity
  _atom_site_fract_x
  _atom_site_fract_y
  _atom_site_fract_z
  _atom_site_occupancy
  O   O1        1.0  0.89650  0.51750  0.49620  1.0000
  O   O2        1.0  0.60350  0.48250  0.99620  1.0000
  O   O3        1.0  0.10350  0.01750  0.00380  1.0000
  O   O4        1.0  0.39650  0.98250  0.50380  1.0000
  O   O5        1.0  0.49620  0.89650  0.51750  1.0000
  O   O6        1.0  0.99620  0.60350  0.48250  1.0000
  O   O7        1.0  0.00380  0.10350  0.01750  1.0000
  O   O8        1.0  0.50380  0.39650  0.98250  1.0000
  O   O9        1.0  0.51750  0.49620  0.89650  1.0000
  O   O10       1.0  0.48250  0.99620  0.60350  1.0000
  O   O11       1.0  0.01750  0.00380  0.10350  1.0000
  O   O12       1.0  0.98250  0.50380  0.39650  1.0000
  O   O13       1.0  0.76750  0.14650  0.74620  1.0000
  O   O14       1.0  0.73250  0.85350  0.24620  1.0000
  O   O15       1.0  0.26750  0.35350  0.25380  1.0000
  O   O16       1.0  0.23250  0.64650  0.75380  1.0000
  O   O17       1.0  0.14650  0.74620  0.76750  1.0000
  O   O18       1.0  0.85350  0.24620  0.73250  1.0000
  O   O19       1.0  0.35350  0.25380  0.26750  1.0000
  O   O20       1.0  0.64650  0.75380  0.23250  1.0000
  O   O21       1.0  0.74620  0.76750  0.14650  1.0000
  O   O22       1.0  0.24620  0.73250  0.85350  1.0000
  O   O23       1.0  0.25380  0.26750  0.35350  1.0000
  O   O24       1.0  0.75380  0.23250  0.64650  1.0000
  O   O25       1.0  0.39650  0.01750  0.99620  1.0000
  O   O26       1.0  0.10350  0.98250  0.49620  1.0000
  O   O27       1.0  0.60350  0.51750  0.50380  1.0000
  O   O28       1.0  0.89650  0.48250  0.00380  1.0000
  O   O29       1.0  0.99620  0.39650  0.01750  1.0000
  O   O30       1.0  0.49620  0.10350  0.98250  1.0000
  O   O31       1.0  0.50380  0.60350  0.51750  1.0000
  O   O32       1.0  0.00380  0.89650  0.48250  1.0000
  O   O33       1.0  0.01750  0.99620  0.39650  1.0000
  O   O34       1.0  0.98250  0.49620  0.10350  1.0000
  O   O35       1.0  0.51750  0.50380  0.60350  1.0000
  O   O36       1.0  0.48250  0.00380  0.89650  1.0000
  O   O37       1.0  0.26750  0.64650  0.24620  1.0000
  O   O38       1.0  0.23250  0.35350  0.74620  1.0000
  O   O39       1.0  0.76750  0.85350  0.75380  1.0000
  O   O40       1.0  0.73250  0.14650  0.25380  1.0000
  O   O41       1.0  0.64650  0.24620  0.26750  1.0000
  O   O42       1.0  0.35350  0.74620  0.23250  1.0000
  O   O43       1.0  0.85350  0.75380  0.76750  1.0000
  O   O44       1.0  0.14650  0.25380  0.73250  1.0000
  O   O45       1.0  0.24620  0.26750  0.64650  1.0000
  O   O46       1.0  0.74620  0.23250  0.35350  1.0000
  O   O47       1.0  0.75380  0.76750  0.85350  1.0000
  O   O48       1.0  0.25380  0.73250  0.14650  1.0000
  U   U1        1.0  0.95755  0.54245  0.45755  1.0000
  U   U2        1.0  0.54245  0.45755  0.95755  1.0000
  U   U3        1.0  0.04245  0.04245  0.04245  1.0000
  U   U4        1.0  0.45755  0.95755  0.54245  1.0000
  U   U5        1.0  0.79245  0.20755  0.70755  1.0000
  U   U6        1.0  0.70755  0.79245  0.20755  1.0000
  U   U7        1.0  0.29245  0.29245  0.29245  1.0000
  U   U8        1.0  0.20755  0.70755  0.79245  1.0000
  U   U9        1.0  0.45755  0.04245  0.95755  1.0000
  U   U10       1.0  0.04245  0.95755  0.45755  1.0000
  U   U11       1.0  0.54245  0.54245  0.54245  1.0000
  U   U12       1.0  0.95755  0.45755  0.04245  1.0000
  U   U13       1.0  0.29245  0.70755  0.20755  1.0000
  U   U14       1.0  0.20755  0.29245  0.70755  1.0000
  U   U15       1.0  0.79245  0.79245  0.79245  1.0000
  U   U16       1.0  0.70755  0.20755  0.29245  1.0000
  C   C1        1.0  0.75000  0.37500  0.50000  1.0000
  C   C2        1.0  0.75000  0.62500  0.00000  1.0000
  C   C3        1.0  0.25000  0.87500  0.00000  1.0000
  C   C4        1.0  0.25000  0.12500  0.50000  1.0000
  C   C5        1.0  0.50000  0.75000  0.37500  1.0000
  C   C6        1.0  0.00000  0.75000  0.62500  1.0000
  C   C7        1.0  0.00000  0.25000  0.87500  1.0000
  C   C8        1.0  0.50000  0.25000  0.12500  1.0000
  C   C9        1.0  0.37500  0.50000  0.75000  1.0000
  C   C10       1.0  0.62500  0.00000  0.75000  1.0000
  C   C11       1.0  0.87500  0.00000  0.25000  1.0000
  C   C12       1.0  0.12500  0.50000  0.25000  1.0000
  O   O49       1.0  0.91371  0.48141  0.44098  1.0000
  O   O50       1.0  0.58629  0.51859  0.94098  1.0000
  O   O51       1.0  0.08629  0.98141  0.05902  1.0000
  O   O52       1.0  0.41371  0.01859  0.55902  1.0000
  O   O53       1.0  0.44098  0.91371  0.48141  1.0000
  O   O54       1.0  0.94098  0.58629  0.51859  1.0000
  O   O55       1.0  0.05902  0.08629  0.98141  1.0000
  O   O56       1.0  0.55902  0.41371  0.01859  1.0000
  O   O57       1.0  0.48141  0.44098  0.91371  1.0000
  O   O58       1.0  0.51859  0.94098  0.58629  1.0000
  O   O59       1.0  0.98141  0.05902  0.08629  1.0000
  O   O60       1.0  0.01859  0.55902  0.41371  1.0000
  O   O61       1.0  0.73141  0.16371  0.69098  1.0000
  O   O62       1.0  0.76859  0.83629  0.19098  1.0000
  O   O63       1.0  0.23141  0.33629  0.30902  1.0000
  O   O64       1.0  0.26859  0.66371  0.80902  1.0000
  O   O65       1.0  0.16371  0.69098  0.73141  1.0000
  O   O66       1.0  0.83629  0.19098  0.76859  1.0000
  O   O67       1.0  0.33629  0.30902  0.23141  1.0000
  O   O68       1.0  0.66371  0.80902  0.26859  1.0000
  O   O69       1.0  0.69098  0.73141  0.16371  1.0000
  O   O70       1.0  0.19098  0.76859  0.83629  1.0000
  O   O71       1.0  0.30902  0.23141  0.33629  1.0000
  O   O72       1.0  0.80902  0.26859  0.66371  1.0000
  O   O73       1.0  0.41371  0.98141  0.94098  1.0000
  O   O74       1.0  0.08629  0.01859  0.44098  1.0000
  O   O75       1.0  0.58629  0.48141  0.55902  1.0000
  O   O76       1.0  0.91371  0.51859  0.05902  1.0000
  O   O77       1.0  0.94098  0.41371  0.98141  1.0000
  O   O78       1.0  0.44098  0.08629  0.01859  1.0000
  O   O79       1.0  0.55902  0.58629  0.48141  1.0000
  O   O80       1.0  0.05902  0.91371  0.51859  1.0000
  O   O81       1.0  0.98141  0.94098  0.41371  1.0000
  O   O82       1.0  0.01859  0.44098  0.08629  1.0000
  O   O83       1.0  0.48141  0.55902  0.58629  1.0000
  O   O84       1.0  0.51859  0.05902  0.91371  1.0000
  O   O85       1.0  0.23141  0.66371  0.19098  1.0000
  O   O86       1.0  0.26859  0.33629  0.69098  1.0000
  O   O87       1.0  0.73141  0.83629  0.80902  1.0000
  O   O88       1.0  0.76859  0.16371  0.30902  1.0000
  O   O89       1.0  0.66371  0.19098  0.23141  1.0000
  O   O90       1.0  0.33629  0.69098  0.26859  1.0000
  O   O91       1.0  0.83629  0.80902  0.73141  1.0000
  O   O92       1.0  0.16371  0.30902  0.76859  1.0000
  O   O93       1.0  0.19098  0.23141  0.66371  1.0000
  O   O94       1.0  0.69098  0.26859  0.33629  1.0000
  O   O95       1.0  0.80902  0.73141  0.83629  1.0000
  O   O96       1.0  0.30902  0.76859  0.16371  1.0000
  C   C13       1.0  0.78760  0.40476  0.49090  1.0000
  C   C14       1.0  0.71240  0.59524  0.99090  1.0000
  C   C15       1.0  0.21240  0.90476  0.00910  1.0000
  C   C16       1.0  0.28760  0.09524  0.50910  1.0000
  C   C17       1.0  0.49090  0.78760  0.40476  1.0000
  C   C18       1.0  0.99090  0.71240  0.59524  1.0000
  C   C19       1.0  0.00910  0.21240  0.90476  1.0000
  C   C20       1.0  0.50910  0.28760  0.09524  1.0000
  C   C21       1.0  0.40476  0.49090  0.78760  1.0000
  C   C22       1.0  0.59524  0.99090  0.71240  1.0000
  C   C23       1.0  0.90476  0.00910  0.21240  1.0000
  C   C24       1.0  0.09524  0.50910  0.28760  1.0000
  C   C25       1.0  0.65476  0.03760  0.74090  1.0000
  C   C26       1.0  0.84524  0.96240  0.24090  1.0000
  C   C27       1.0  0.15476  0.46240  0.25910  1.0000
  C   C28       1.0  0.34524  0.53760  0.75910  1.0000
  C   C29       1.0  0.03760  0.74090  0.65476  1.0000
  C   C30       1.0  0.96240  0.24090  0.84524  1.0000
  C   C31       1.0  0.46240  0.25910  0.15476  1.0000
  C   C32       1.0  0.53760  0.75910  0.34524  1.0000
  C   C33       1.0  0.74090  0.65476  0.03760  1.0000
  C   C34       1.0  0.24090  0.84524  0.96240  1.0000
  C   C35       1.0  0.25910  0.15476  0.46240  1.0000
  C   C36       1.0  0.75910  0.34524  0.53760  1.0000
  C   C37       1.0  0.28760  0.90476  0.99090  1.0000
  C   C38       1.0  0.21240  0.09524  0.49090  1.0000
  C   C39       1.0  0.71240  0.40476  0.50910  1.0000
  C   C40       1.0  0.78760  0.59524  0.00910  1.0000
  C   C41       1.0  0.99090  0.28760  0.90476  1.0000
  C   C42       1.0  0.49090  0.21240  0.09524  1.0000
  C   C43       1.0  0.50910  0.71240  0.40476  1.0000
  C   C44       1.0  0.00910  0.78760  0.59524  1.0000
  C   C45       1.0  0.90476  0.99090  0.28760  1.0000
  C   C46       1.0  0.09524  0.49090  0.21240  1.0000
  C   C47       1.0  0.40476  0.50910  0.71240  1.0000
  C   C48       1.0  0.59524  0.00910  0.78760  1.0000
  C   C49       1.0  0.15476  0.53760  0.24090  1.0000
  C   C50       1.0  0.34524  0.46240  0.74090  1.0000
  C   C51       1.0  0.65476  0.96240  0.75910  1.0000
  C   C52       1.0  0.84524  0.03760  0.25910  1.0000
  C   C53       1.0  0.53760  0.24090  0.15476  1.0000
  C   C54       1.0  0.46240  0.74090  0.34524  1.0000
  C   C55       1.0  0.96240  0.75910  0.65476  1.0000
  C   C56       1.0  0.03760  0.25910  0.84524  1.0000
  C   C57       1.0  0.24090  0.15476  0.53760  1.0000
  C   C58       1.0  0.74090  0.34524  0.46240  1.0000
  C   C59       1.0  0.75910  0.65476  0.96240  1.0000
  C   C60       1.0  0.25910  0.84524  0.03760  1.0000
  C   C61       1.0  0.79640  0.43600  0.51940  1.0000
  C   C62       1.0  0.70360  0.56400  0.01940  1.0000
  C   C63       1.0  0.20360  0.93600  0.98060  1.0000
  C   C64       1.0  0.29640  0.06400  0.48060  1.0000
  C   C65       1.0  0.51940  0.79640  0.43600  1.0000
  C   C66       1.0  0.01940  0.70360  0.56400  1.0000
  C   C67       1.0  0.98060  0.20360  0.93600  1.0000
  C   C68       1.0  0.48060  0.29640  0.06400  1.0000
  C   C69       1.0  0.43600  0.51940  0.79640  1.0000
  C   C70       1.0  0.56400  0.01940  0.70360  1.0000
  C   C71       1.0  0.93600  0.98060  0.20360  1.0000
  C   C72       1.0  0.06400  0.48060  0.29640  1.0000
  C   C73       1.0  0.68600  0.04640  0.76940  1.0000
  C   C74       1.0  0.81400  0.95360  0.26940  1.0000
  C   C75       1.0  0.18600  0.45360  0.23060  1.0000
  C   C76       1.0  0.31400  0.54640  0.73060  1.0000
  C   C77       1.0  0.04640  0.76940  0.68600  1.0000
  C   C78       1.0  0.95360  0.26940  0.81400  1.0000
  C   C79       1.0  0.45360  0.23060  0.18600  1.0000
  C   C80       1.0  0.54640  0.73060  0.31400  1.0000
  C   C81       1.0  0.76940  0.68600  0.04640  1.0000
  C   C82       1.0  0.26940  0.81400  0.95360  1.0000
  C   C83       1.0  0.23060  0.18600  0.45360  1.0000
  C   C84       1.0  0.73060  0.31400  0.54640  1.0000
  C   C85       1.0  0.29640  0.93600  0.01940  1.0000
  C   C86       1.0  0.20360  0.06400  0.51940  1.0000
  C   C87       1.0  0.70360  0.43600  0.48060  1.0000
  C   C88       1.0  0.79640  0.56400  0.98060  1.0000
  C   C89       1.0  0.01940  0.29640  0.93600  1.0000
  C   C90       1.0  0.51940  0.20360  0.06400  1.0000
  C   C91       1.0  0.48060  0.70360  0.43600  1.0000
  C   C92       1.0  0.98060  0.79640  0.56400  1.0000
  C   C93       1.0  0.93600  0.01940  0.29640  1.0000
  C   C94       1.0  0.06400  0.51940  0.20360  1.0000
  C   C95       1.0  0.43600  0.48060  0.70360  1.0000
  C   C96       1.0  0.56400  0.98060  0.79640  1.0000
  C   C97       1.0  0.18600  0.54640  0.26940  1.0000
  C   C98       1.0  0.31400  0.45360  0.76940  1.0000
  C   C99       1.0  0.68600  0.95360  0.73060  1.0000
  C   C100      1.0  0.81400  0.04640  0.23060  1.0000
  C   C101      1.0  0.54640  0.26940  0.18600  1.0000
  C   C102      1.0  0.45360  0.76940  0.31400  1.0000
  C   C103      1.0  0.95360  0.73060  0.68600  1.0000
  C   C104      1.0  0.04640  0.23060  0.81400  1.0000
  C   C105      1.0  0.26940  0.18600  0.54640  1.0000
  C   C106      1.0  0.76940  0.31400  0.45360  1.0000
  C   C107      1.0  0.73060  0.68600  0.95360  1.0000
  C   C108      1.0  0.23060  0.81400  0.04640  1.0000
  H   H1        1.0  0.77980  0.43880  0.54370  1.0000
  H   H2        1.0  0.72020  0.56120  0.04370  1.0000
  H   H3        1.0  0.22020  0.93880  0.95630  1.0000
  H   H4        1.0  0.27980  0.06120  0.45630  1.0000
  H   H5        1.0  0.54370  0.77980  0.43880  1.0000
  H   H6        1.0  0.04370  0.72020  0.56120  1.0000
  H   H7        1.0  0.95630  0.22020  0.93880  1.0000
  H   H8        1.0  0.45630  0.27980  0.06120  1.0000
  H   H9        1.0  0.43880  0.54370  0.77980  1.0000
  H   H10       1.0  0.56120  0.04370  0.72020  1.0000
  H   H11       1.0  0.93880  0.95630  0.22020  1.0000
  H   H12       1.0  0.06120  0.45630  0.27980  1.0000
  H   H13       1.0  0.68880  0.02980  0.79370  1.0000
  H   H14       1.0  0.81120  0.97020  0.29370  1.0000
  H   H15       1.0  0.18880  0.47020  0.20630  1.0000
  H   H16       1.0  0.31120  0.52980  0.70630  1.0000
  H   H17       1.0  0.02980  0.79370  0.68880  1.0000
  H   H18       1.0  0.97020  0.29370  0.81120  1.0000
  H   H19       1.0  0.47020  0.20630  0.18880  1.0000
  H   H20       1.0  0.52980  0.70630  0.31120  1.0000
  H   H21       1.0  0.79370  0.68880  0.02980  1.0000
  H   H22       1.0  0.29370  0.81120  0.97020  1.0000
  H   H23       1.0  0.20630  0.18880  0.47020  1.0000
  H   H24       1.0  0.70630  0.31120  0.52980  1.0000
  H   H25       1.0  0.27980  0.93880  0.04370  1.0000
  H   H26       1.0  0.22020  0.06120  0.54370  1.0000
  H   H27       1.0  0.72020  0.43880  0.45630  1.0000
  H   H28       1.0  0.77980  0.56120  0.95630  1.0000
  H   H29       1.0  0.04370  0.27980  0.93880  1.0000
  H   H30       1.0  0.54370  0.22020  0.06120  1.0000
  H   H31       1.0  0.45630  0.72020  0.43880  1.0000
  H   H32       1.0  0.95630  0.77980  0.56120  1.0000
  H   H33       1.0  0.93880  0.04370  0.27980  1.0000
  H   H34       1.0  0.06120  0.54370  0.22020  1.0000
  H   H35       1.0  0.43880  0.45630  0.72020  1.0000
  H   H36       1.0  0.56120  0.95630  0.77980  1.0000
  H   H37       1.0  0.18880  0.52980  0.29370  1.0000
  H   H38       1.0  0.31120  0.47020  0.79370  1.0000
  H   H39       1.0  0.68880  0.97020  0.70630  1.0000
  H   H40       1.0  0.81120  0.02980  0.20630  1.0000
  H   H41       1.0  0.52980  0.29370  0.18880  1.0000
  H   H42       1.0  0.47020  0.79370  0.31120  1.0000
  H   H43       1.0  0.97020  0.70630  0.68880  1.0000
  H   H44       1.0  0.02980  0.20630  0.81120  1.0000
  H   H45       1.0  0.29370  0.18880  0.52980  1.0000
  H   H46       1.0  0.79370  0.31120  0.47020  1.0000
  H   H47       1.0  0.70630  0.68880  0.97020  1.0000
  H   H48       1.0  0.20630  0.81120  0.02980  1.0000
  O   O97       1.0  0.92711  0.57289  0.42711  1.0000
  O   O98       1.0  0.57289  0.42711  0.92711  1.0000
  O   O99       1.0  0.07289  0.07289  0.07289  1.0000
  O   O100      1.0  0.42711  0.92711  0.57289  1.0000
  O   O101      1.0  0.82289  0.17711  0.67711  1.0000
  O   O102      1.0  0.67711  0.82289  0.17711  1.0000
  O   O103      1.0  0.32289  0.32289  0.32289  1.0000
  O   O104      1.0  0.17711  0.67711  0.82289  1.0000
  O   O105      1.0  0.42711  0.07289  0.92711  1.0000
  O   O106      1.0  0.07289  0.92711  0.42711  1.0000
  O   O107      1.0  0.57289  0.57289  0.57289  1.0000
  O   O108      1.0  0.92711  0.42711  0.07289  1.0000
  O   O109      1.0  0.32289  0.67711  0.17711  1.0000
  O   O110      1.0  0.17711  0.32289  0.67711  1.0000
  O   O111      1.0  0.82289  0.82289  0.82289  1.0000
  O   O112      1.0  0.67711  0.17711  0.32289  1.0000
  C   C109      1.0  0.85480  0.45770  0.47850  1.0000
  C   C110      1.0  0.64520  0.54230  0.97850  1.0000
  C   C111      1.0  0.14520  0.95770  0.02150  1.0000
  C   C112      1.0  0.35480  0.04230  0.52150  1.0000
  C   C113      1.0  0.47850  0.85480  0.45770  1.0000
  C   C114      1.0  0.97850  0.64520  0.54230  1.0000
  C   C115      1.0  0.02150  0.14520  0.95770  1.0000
  C   C116      1.0  0.52150  0.35480  0.04230  1.0000
  C   C117      1.0  0.45770  0.47850  0.85480  1.0000
  C   C118      1.0  0.54230  0.97850  0.64520  1.0000
  C   C119      1.0  0.95770  0.02150  0.14520  1.0000
  C   C120      1.0  0.04230  0.52150  0.35480  1.0000
  C   C121      1.0  0.70770  0.10480  0.72850  1.0000
  C   C122      1.0  0.79230  0.89520  0.22850  1.0000
  C   C123      1.0  0.20770  0.39520  0.27150  1.0000
  C   C124      1.0  0.29230  0.60480  0.77150  1.0000
  C   C125      1.0  0.10480  0.72850  0.70770  1.0000
  C   C126      1.0  0.89520  0.22850  0.79230  1.0000
  C   C127      1.0  0.39520  0.27150  0.20770  1.0000
  C   C128      1.0  0.60480  0.77150  0.29230  1.0000
  C   C129      1.0  0.72850  0.70770  0.10480  1.0000
  C   C130      1.0  0.22850  0.79230  0.89520  1.0000
  C   C131      1.0  0.27150  0.20770  0.39520  1.0000
  C   C132      1.0  0.77150  0.29230  0.60480  1.0000
  C   C133      1.0  0.35480  0.95770  0.97850  1.0000
  C   C134      1.0  0.14520  0.04230  0.47850  1.0000
  C   C135      1.0  0.64520  0.45770  0.52150  1.0000
  C   C136      1.0  0.85480  0.54230  0.02150  1.0000
  C   C137      1.0  0.97850  0.35480  0.95770  1.0000
  C   C138      1.0  0.47850  0.14520  0.04230  1.0000
  C   C139      1.0  0.52150  0.64520  0.45770  1.0000
  C   C140      1.0  0.02150  0.85480  0.54230  1.0000
  C   C141      1.0  0.95770  0.97850  0.35480  1.0000
  C   C142      1.0  0.04230  0.47850  0.14520  1.0000
  C   C143      1.0  0.45770  0.52150  0.64520  1.0000
  C   C144      1.0  0.54230  0.02150  0.85480  1.0000
  C   C145      1.0  0.20770  0.60480  0.22850  1.0000
  C   C146      1.0  0.29230  0.39520  0.72850  1.0000
  C   C147      1.0  0.70770  0.89520  0.77150  1.0000
  C   C148      1.0  0.79230  0.10480  0.27150  1.0000
  C   C149      1.0  0.60480  0.22850  0.20770  1.0000
  C   C150      1.0  0.39520  0.72850  0.29230  1.0000
  C   C151      1.0  0.89520  0.77150  0.70770  1.0000
  C   C152      1.0  0.10480  0.27150  0.79230  1.0000
  C   C153      1.0  0.22850  0.20770  0.60480  1.0000
  C   C154      1.0  0.72850  0.29230  0.39520  1.0000
  C   C155      1.0  0.77150  0.70770  0.89520  1.0000
  C   C156      1.0  0.27150  0.79230  0.10480  1.0000
  C   C157      1.0  0.82870  0.46260  0.51280  1.0000
  C   C158      1.0  0.67130  0.53740  0.01280  1.0000
  C   C159      1.0  0.17130  0.96260  0.98720  1.0000
  C   C160      1.0  0.32870  0.03740  0.48720  1.0000
  C   C161      1.0  0.51280  0.82870  0.46260  1.0000
  C   C162      1.0  0.01280  0.67130  0.53740  1.0000
  C   C163      1.0  0.98720  0.17130  0.96260  1.0000
  C   C164      1.0  0.48720  0.32870  0.03740  1.0000
  C   C165      1.0  0.46260  0.51280  0.82870  1.0000
  C   C166      1.0  0.53740  0.01280  0.67130  1.0000
  C   C167      1.0  0.96260  0.98720  0.17130  1.0000
  C   C168      1.0  0.03740  0.48720  0.32870  1.0000
  C   C169      1.0  0.71260  0.07870  0.76280  1.0000
  C   C170      1.0  0.78740  0.92130  0.26280  1.0000
  C   C171      1.0  0.21260  0.42130  0.23720  1.0000
  C   C172      1.0  0.28740  0.57870  0.73720  1.0000
  C   C173      1.0  0.07870  0.76280  0.71260  1.0000
  C   C174      1.0  0.92130  0.26280  0.78740  1.0000
  C   C175      1.0  0.42130  0.23720  0.21260  1.0000
  C   C176      1.0  0.57870  0.73720  0.28740  1.0000
  C   C177      1.0  0.76280  0.71260  0.07870  1.0000
  C   C178      1.0  0.26280  0.78740  0.92130  1.0000
  C   C179      1.0  0.23720  0.21260  0.42130  1.0000
  C   C180      1.0  0.73720  0.28740  0.57870  1.0000
  C   C181      1.0  0.32870  0.96260  0.01280  1.0000
  C   C182      1.0  0.17130  0.03740  0.51280  1.0000
  C   C183      1.0  0.67130  0.46260  0.48720  1.0000
  C   C184      1.0  0.82870  0.53740  0.98720  1.0000
  C   C185      1.0  0.01280  0.32870  0.96260  1.0000
  C   C186      1.0  0.51280  0.17130  0.03740  1.0000
  C   C187      1.0  0.48720  0.67130  0.46260  1.0000
  C   C188      1.0  0.98720  0.82870  0.53740  1.0000
  C   C189      1.0  0.96260  0.01280  0.32870  1.0000
  C   C190      1.0  0.03740  0.51280  0.17130  1.0000
  C   C191      1.0  0.46260  0.48720  0.67130  1.0000
  C   C192      1.0  0.53740  0.98720  0.82870  1.0000
  C   C193      1.0  0.21260  0.57870  0.26280  1.0000
  C   C194      1.0  0.28740  0.42130  0.76280  1.0000
  C   C195      1.0  0.71260  0.92130  0.73720  1.0000
  C   C196      1.0  0.78740  0.07870  0.23720  1.0000
  C   C197      1.0  0.57870  0.26280  0.21260  1.0000
  C   C198      1.0  0.42130  0.76280  0.28740  1.0000
  C   C199      1.0  0.92130  0.73720  0.71260  1.0000
  C   C200      1.0  0.07870  0.23720  0.78740  1.0000
  C   C201      1.0  0.26280  0.21260  0.57870  1.0000
  C   C202      1.0  0.76280  0.28740  0.42130  1.0000
  C   C203      1.0  0.73720  0.71260  0.92130  1.0000
  C   C204      1.0  0.23720  0.78740  0.07870  1.0000
  H   H49       1.0  0.83340  0.48490  0.53170  1.0000
  H   H50       1.0  0.66660  0.51510  0.03170  1.0000
  H   H51       1.0  0.16660  0.98490  0.96830  1.0000
  H   H52       1.0  0.33340  0.01510  0.46830  1.0000
  H   H53       1.0  0.53170  0.83340  0.48490  1.0000
  H   H54       1.0  0.03170  0.66660  0.51510  1.0000
  H   H55       1.0  0.96830  0.16660  0.98490  1.0000
  H   H56       1.0  0.46830  0.33340  0.01510  1.0000
  H   H57       1.0  0.48490  0.53170  0.83340  1.0000
  H   H58       1.0  0.51510  0.03170  0.66660  1.0000
  H   H59       1.0  0.98490  0.96830  0.16660  1.0000
  H   H60       1.0  0.01510  0.46830  0.33340  1.0000
  H   H61       1.0  0.73490  0.08340  0.78170  1.0000
  H   H62       1.0  0.76510  0.91660  0.28170  1.0000
  H   H63       1.0  0.23490  0.41660  0.21830  1.0000
  H   H64       1.0  0.26510  0.58340  0.71830  1.0000
  H   H65       1.0  0.08340  0.78170  0.73490  1.0000
  H   H66       1.0  0.91660  0.28170  0.76510  1.0000
  H   H67       1.0  0.41660  0.21830  0.23490  1.0000
  H   H68       1.0  0.58340  0.71830  0.26510  1.0000
  H   H69       1.0  0.78170  0.73490  0.08340  1.0000
  H   H70       1.0  0.28170  0.76510  0.91660  1.0000
  H   H71       1.0  0.21830  0.23490  0.41660  1.0000
  H   H72       1.0  0.71830  0.26510  0.58340  1.0000
  H   H73       1.0  0.33340  0.98490  0.03170  1.0000
  H   H74       1.0  0.16660  0.01510  0.53170  1.0000
  H   H75       1.0  0.66660  0.48490  0.46830  1.0000
  H   H76       1.0  0.83340  0.51510  0.96830  1.0000
  H   H77       1.0  0.03170  0.33340  0.98490  1.0000
  H   H78       1.0  0.53170  0.16660  0.01510  1.0000
  H   H79       1.0  0.46830  0.66660  0.48490  1.0000
  H   H80       1.0  0.96830  0.83340  0.51510  1.0000
  H   H81       1.0  0.98490  0.03170  0.33340  1.0000
  H   H82       1.0  0.01510  0.53170  0.16660  1.0000
  H   H83       1.0  0.48490  0.46830  0.66660  1.0000
  H   H84       1.0  0.51510  0.96830  0.83340  1.0000
  H   H85       1.0  0.23490  0.58340  0.28170  1.0000
  H   H86       1.0  0.26510  0.41660  0.78170  1.0000
  H   H87       1.0  0.73490  0.91660  0.71830  1.0000
  H   H88       1.0  0.76510  0.08340  0.21830  1.0000
  H   H89       1.0  0.58340  0.28170  0.23490  1.0000
  H   H90       1.0  0.41660  0.78170  0.26510  1.0000
  H   H91       1.0  0.91660  0.71830  0.73490  1.0000
  H   H92       1.0  0.08340  0.21830  0.76510  1.0000
  H   H93       1.0  0.28170  0.23490  0.58340  1.0000
  H   H94       1.0  0.78170  0.26510  0.41660  1.0000
  H   H95       1.0  0.71830  0.73490  0.91660  1.0000
  H   H96       1.0  0.21830  0.76510  0.08340  1.0000
  C   C205      1.0  0.84460  0.42700  0.45100  1.0000
  C   C206      1.0  0.65540  0.57300  0.95100  1.0000
  C   C207      1.0  0.15540  0.92700  0.04900  1.0000
  C   C208      1.0  0.34460  0.07300  0.54900  1.0000
  C   C209      1.0  0.45100  0.84460  0.42700  1.0000
  C   C210      1.0  0.95100  0.65540  0.57300  1.0000
  C   C211      1.0  0.04900  0.15540  0.92700  1.0000
  C   C212      1.0  0.54900  0.34460  0.07300  1.0000
  C   C213      1.0  0.42700  0.45100  0.84460  1.0000
  C   C214      1.0  0.57300  0.95100  0.65540  1.0000
  C   C215      1.0  0.92700  0.04900  0.15540  1.0000
  C   C216      1.0  0.07300  0.54900  0.34460  1.0000
  C   C217      1.0  0.67700  0.09460  0.70100  1.0000
  C   C218      1.0  0.82300  0.90540  0.20100  1.0000
  C   C219      1.0  0.17700  0.40540  0.29900  1.0000
  C   C220      1.0  0.32300  0.59460  0.79900  1.0000
  C   C221      1.0  0.09460  0.70100  0.67700  1.0000
  C   C222      1.0  0.90540  0.20100  0.82300  1.0000
  C   C223      1.0  0.40540  0.29900  0.17700  1.0000
  C   C224      1.0  0.59460  0.79900  0.32300  1.0000
  C   C225      1.0  0.70100  0.67700  0.09460  1.0000
  C   C226      1.0  0.20100  0.82300  0.90540  1.0000
  C   C227      1.0  0.29900  0.17700  0.40540  1.0000
  C   C228      1.0  0.79900  0.32300  0.59460  1.0000
  C   C229      1.0  0.34460  0.92700  0.95100  1.0000
  C   C230      1.0  0.15540  0.07300  0.45100  1.0000
  C   C231      1.0  0.65540  0.42700  0.54900  1.0000
  C   C232      1.0  0.84460  0.57300  0.04900  1.0000
  C   C233      1.0  0.95100  0.34460  0.92700  1.0000
  C   C234      1.0  0.45100  0.15540  0.07300  1.0000
  C   C235      1.0  0.54900  0.65540  0.42700  1.0000
  C   C236      1.0  0.04900  0.84460  0.57300  1.0000
  C   C237      1.0  0.92700  0.95100  0.34460  1.0000
  C   C238      1.0  0.07300  0.45100  0.15540  1.0000
  C   C239      1.0  0.42700  0.54900  0.65540  1.0000
  C   C240      1.0  0.57300  0.04900  0.84460  1.0000
  C   C241      1.0  0.17700  0.59460  0.20100  1.0000
  C   C242      1.0  0.32300  0.40540  0.70100  1.0000
  C   C243      1.0  0.67700  0.90540  0.79900  1.0000
  C   C244      1.0  0.82300  0.09460  0.29900  1.0000
  C   C245      1.0  0.59460  0.20100  0.17700  1.0000
  C   C246      1.0  0.40540  0.70100  0.32300  1.0000
  C   C247      1.0  0.90540  0.79900  0.67700  1.0000
  C   C248      1.0  0.09460  0.29900  0.82300  1.0000
  C   C249      1.0  0.20100  0.17700  0.59460  1.0000
  C   C250      1.0  0.70100  0.32300  0.40540  1.0000
  C   C251      1.0  0.79900  0.67700  0.90540  1.0000
  C   C252      1.0  0.29900  0.82300  0.09460  1.0000
  H   H97       1.0  0.86040  0.42470  0.42610  1.0000
  H   H98       1.0  0.63960  0.57530  0.92610  1.0000
  H   H99       1.0  0.13960  0.92470  0.07390  1.0000
  H   H100      1.0  0.36040  0.07530  0.57390  1.0000
  H   H101      1.0  0.42610  0.86040  0.42470  1.0000
  H   H102      1.0  0.92610  0.63960  0.57530  1.0000
  H   H103      1.0  0.07390  0.13960  0.92470  1.0000
  H   H104      1.0  0.57390  0.36040  0.07530  1.0000
  H   H105      1.0  0.42470  0.42610  0.86040  1.0000
  H   H106      1.0  0.57530  0.92610  0.63960  1.0000
  H   H107      1.0  0.92470  0.07390  0.13960  1.0000
  H   H108      1.0  0.07530  0.57390  0.36040  1.0000
  H   H109      1.0  0.67470  0.11040  0.67610  1.0000
  H   H110      1.0  0.82530  0.88960  0.17610  1.0000
  H   H111      1.0  0.17470  0.38960  0.32390  1.0000
  H   H112      1.0  0.32530  0.61040  0.82390  1.0000
  H   H113      1.0  0.11040  0.67610  0.67470  1.0000
  H   H114      1.0  0.88960  0.17610  0.82530  1.0000
  H   H115      1.0  0.38960  0.32390  0.17470  1.0000
  H   H116      1.0  0.61040  0.82390  0.32530  1.0000
  H   H117      1.0  0.67610  0.67470  0.11040  1.0000
  H   H118      1.0  0.17610  0.82530  0.88960  1.0000
  H   H119      1.0  0.32390  0.17470  0.38960  1.0000
  H   H120      1.0  0.82390  0.32530  0.61040  1.0000
  H   H121      1.0  0.36040  0.92470  0.92610  1.0000
  H   H122      1.0  0.13960  0.07530  0.42610  1.0000
  H   H123      1.0  0.63960  0.42470  0.57390  1.0000
  H   H124      1.0  0.86040  0.57530  0.07390  1.0000
  H   H125      1.0  0.92610  0.36040  0.92470  1.0000
  H   H126      1.0  0.42610  0.13960  0.07530  1.0000
  H   H127      1.0  0.57390  0.63960  0.42470  1.0000
  H   H128      1.0  0.07390  0.86040  0.57530  1.0000
  H   H129      1.0  0.92470  0.92610  0.36040  1.0000
  H   H130      1.0  0.07530  0.42610  0.13960  1.0000
  H   H131      1.0  0.42470  0.57390  0.63960  1.0000
  H   H132      1.0  0.57530  0.07390  0.86040  1.0000
  H   H133      1.0  0.17470  0.61040  0.17610  1.0000
  H   H134      1.0  0.32530  0.38960  0.67610  1.0000
  H   H135      1.0  0.67470  0.88960  0.82390  1.0000
  H   H136      1.0  0.82530  0.11040  0.32390  1.0000
  H   H137      1.0  0.61040  0.17610  0.17470  1.0000
  H   H138      1.0  0.38960  0.67610  0.32530  1.0000
  H   H139      1.0  0.88960  0.82390  0.67470  1.0000
  H   H140      1.0  0.11040  0.32390  0.82530  1.0000
  H   H141      1.0  0.17610  0.17470  0.61040  1.0000
  H   H142      1.0  0.67610  0.32530  0.38960  1.0000
  H   H143      1.0  0.82390  0.67470  0.88960  1.0000
  H   H144      1.0  0.32390  0.82530  0.11040  1.0000
  C   C253      1.0  0.89170  0.48790  0.47090  1.0000
  C   C254      1.0  0.60830  0.51210  0.97090  1.0000
  C   C255      1.0  0.10830  0.98790  0.02910  1.0000
  C   C256      1.0  0.39170  0.01210  0.52910  1.0000
  C   C257      1.0  0.47090  0.89170  0.48790  1.0000
  C   C258      1.0  0.97090  0.60830  0.51210  1.0000
  C   C259      1.0  0.02910  0.10830  0.98790  1.0000
  C   C260      1.0  0.52910  0.39170  0.01210  1.0000
  C   C261      1.0  0.48790  0.47090  0.89170  1.0000
  C   C262      1.0  0.51210  0.97090  0.60830  1.0000
  C   C263      1.0  0.98790  0.02910  0.10830  1.0000
  C   C264      1.0  0.01210  0.52910  0.39170  1.0000
  C   C265      1.0  0.73790  0.14170  0.72090  1.0000
  C   C266      1.0  0.76210  0.85830  0.22090  1.0000
  C   C267      1.0  0.23790  0.35830  0.27910  1.0000
  C   C268      1.0  0.26210  0.64170  0.77910  1.0000
  C   C269      1.0  0.14170  0.72090  0.73790  1.0000
  C   C270      1.0  0.85830  0.22090  0.76210  1.0000
  C   C271      1.0  0.35830  0.27910  0.23790  1.0000
  C   C272      1.0  0.64170  0.77910  0.26210  1.0000
  C   C273      1.0  0.72090  0.73790  0.14170  1.0000
  C   C274      1.0  0.22090  0.76210  0.85830  1.0000
  C   C275      1.0  0.27910  0.23790  0.35830  1.0000
  C   C276      1.0  0.77910  0.26210  0.64170  1.0000
  C   C277      1.0  0.39170  0.98790  0.97090  1.0000
  C   C278      1.0  0.10830  0.01210  0.47090  1.0000
  C   C279      1.0  0.60830  0.48790  0.52910  1.0000
  C   C280      1.0  0.89170  0.51210  0.02910  1.0000
  C   C281      1.0  0.97090  0.39170  0.98790  1.0000
  C   C282      1.0  0.47090  0.10830  0.01210  1.0000
  C   C283      1.0  0.52910  0.60830  0.48790  1.0000
  C   C284      1.0  0.02910  0.89170  0.51210  1.0000
  C   C285      1.0  0.98790  0.97090  0.39170  1.0000
  C   C286      1.0  0.01210  0.47090  0.10830  1.0000
  C   C287      1.0  0.48790  0.52910  0.60830  1.0000
  C   C288      1.0  0.51210  0.02910  0.89170  1.0000
  C   C289      1.0  0.23790  0.64170  0.22090  1.0000
  C   C290      1.0  0.26210  0.35830  0.72090  1.0000
  C   C291      1.0  0.73790  0.85830  0.77910  1.0000
  C   C292      1.0  0.76210  0.14170  0.27910  1.0000
  C   C293      1.0  0.64170  0.22090  0.23790  1.0000
  C   C294      1.0  0.35830  0.72090  0.26210  1.0000
  C   C295      1.0  0.85830  0.77910  0.73790  1.0000
  C   C296      1.0  0.14170  0.27910  0.76210  1.0000
  C   C297      1.0  0.22090  0.23790  0.64170  1.0000
  C   C298      1.0  0.72090  0.26210  0.35830  1.0000
  C   C299      1.0  0.77910  0.73790  0.85830  1.0000
  C   C300      1.0  0.27910  0.76210  0.14170  1.0000
  C   C301      1.0  0.81350  0.39990  0.45720  1.0000
  C   C302      1.0  0.68650  0.60010  0.95720  1.0000
  C   C303      1.0  0.18650  0.89990  0.04280  1.0000
  C   C304      1.0  0.31350  0.10010  0.54280  1.0000
  C   C305      1.0  0.45720  0.81350  0.39990  1.0000
  C   C306      1.0  0.95720  0.68650  0.60010  1.0000
  C   C307      1.0  0.04280  0.18650  0.89990  1.0000
  C   C308      1.0  0.54280  0.31350  0.10010  1.0000
  C   C309      1.0  0.39990  0.45720  0.81350  1.0000
  C   C310      1.0  0.60010  0.95720  0.68650  1.0000
  C   C311      1.0  0.89990  0.04280  0.18650  1.0000
  C   C312      1.0  0.10010  0.54280  0.31350  1.0000
  C   C313      1.0  0.64990  0.06350  0.70720  1.0000
  C   C314      1.0  0.85010  0.93650  0.20720  1.0000
  C   C315      1.0  0.14990  0.43650  0.29280  1.0000
  C   C316      1.0  0.35010  0.56350  0.79280  1.0000
  C   C317      1.0  0.06350  0.70720  0.64990  1.0000
  C   C318      1.0  0.93650  0.20720  0.85010  1.0000
  C   C319      1.0  0.43650  0.29280  0.14990  1.0000
  C   C320      1.0  0.56350  0.79280  0.35010  1.0000
  C   C321      1.0  0.70720  0.64990  0.06350  1.0000
  C   C322      1.0  0.20720  0.85010  0.93650  1.0000
  C   C323      1.0  0.29280  0.14990  0.43650  1.0000
  C   C324      1.0  0.79280  0.35010  0.56350  1.0000
  C   C325      1.0  0.31350  0.89990  0.95720  1.0000
  C   C326      1.0  0.18650  0.10010  0.45720  1.0000
  C   C327      1.0  0.68650  0.39990  0.54280  1.0000
  C   C328      1.0  0.81350  0.60010  0.04280  1.0000
  C   C329      1.0  0.95720  0.31350  0.89990  1.0000
  C   C330      1.0  0.45720  0.18650  0.10010  1.0000
  C   C331      1.0  0.54280  0.68650  0.39990  1.0000
  C   C332      1.0  0.04280  0.81350  0.60010  1.0000
  C   C333      1.0  0.89990  0.95720  0.31350  1.0000
  C   C334      1.0  0.10010  0.45720  0.18650  1.0000
  C   C335      1.0  0.39990  0.54280  0.68650  1.0000
  C   C336      1.0  0.60010  0.04280  0.81350  1.0000
  C   C337      1.0  0.14990  0.56350  0.20720  1.0000
  C   C338      1.0  0.35010  0.43650  0.70720  1.0000
  C   C339      1.0  0.64990  0.93650  0.79280  1.0000
  C   C340      1.0  0.85010  0.06350  0.29280  1.0000
  C   C341      1.0  0.56350  0.20720  0.14990  1.0000
  C   C342      1.0  0.43650  0.70720  0.35010  1.0000
  C   C343      1.0  0.93650  0.79280  0.64990  1.0000
  C   C344      1.0  0.06350  0.29280  0.85010  1.0000
  C   C345      1.0  0.20720  0.14990  0.56350  1.0000
  C   C346      1.0  0.70720  0.35010  0.43650  1.0000
  C   C347      1.0  0.79280  0.64990  0.93650  1.0000
  C   C348      1.0  0.29280  0.85010  0.06350  1.0000
  H   H145      1.0  0.80940  0.37740  0.43830  1.0000
  H   H146      1.0  0.69060  0.62260  0.93830  1.0000
  H   H147      1.0  0.19060  0.87740  0.06170  1.0000
  H   H148      1.0  0.30940  0.12260  0.56170  1.0000
  H   H149      1.0  0.43830  0.80940  0.37740  1.0000
  H   H150      1.0  0.93830  0.69060  0.62260  1.0000
  H   H151      1.0  0.06170  0.19060  0.87740  1.0000
  H   H152      1.0  0.56170  0.30940  0.12260  1.0000
  H   H153      1.0  0.37740  0.43830  0.80940  1.0000
  H   H154      1.0  0.62260  0.93830  0.69060  1.0000
  H   H155      1.0  0.87740  0.06170  0.19060  1.0000
  H   H156      1.0  0.12260  0.56170  0.30940  1.0000
  H   H157      1.0  0.62740  0.05940  0.68830  1.0000
  H   H158      1.0  0.87260  0.94060  0.18830  1.0000
  H   H159      1.0  0.12740  0.44060  0.31170  1.0000
  H   H160      1.0  0.37260  0.55940  0.81170  1.0000
  H   H161      1.0  0.05940  0.68830  0.62740  1.0000
  H   H162      1.0  0.94060  0.18830  0.87260  1.0000
  H   H163      1.0  0.44060  0.31170  0.12740  1.0000
  H   H164      1.0  0.55940  0.81170  0.37260  1.0000
  H   H165      1.0  0.68830  0.62740  0.05940  1.0000
  H   H166      1.0  0.18830  0.87260  0.94060  1.0000
  H   H167      1.0  0.31170  0.12740  0.44060  1.0000
  H   H168      1.0  0.81170  0.37260  0.55940  1.0000
  H   H169      1.0  0.30940  0.87740  0.93830  1.0000
  H   H170      1.0  0.19060  0.12260  0.43830  1.0000
  H   H171      1.0  0.69060  0.37740  0.56170  1.0000
  H   H172      1.0  0.80940  0.62260  0.06170  1.0000
  H   H173      1.0  0.93830  0.30940  0.87740  1.0000
  H   H174      1.0  0.43830  0.19060  0.12260  1.0000
  H   H175      1.0  0.56170  0.69060  0.37740  1.0000
  H   H176      1.0  0.06170  0.80940  0.62260  1.0000
  H   H177      1.0  0.87740  0.93830  0.30940  1.0000
  H   H178      1.0  0.12260  0.43830  0.19060  1.0000
  H   H179      1.0  0.37740  0.56170  0.69060  1.0000
  H   H180      1.0  0.62260  0.06170  0.80940  1.0000
  H   H181      1.0  0.12740  0.55940  0.18830  1.0000
  H   H182      1.0  0.37260  0.44060  0.68830  1.0000
  H   H183      1.0  0.62740  0.94060  0.81170  1.0000
  H   H184      1.0  0.87260  0.05940  0.31170  1.0000
  H   H185      1.0  0.55940  0.18830  0.12740  1.0000
  H   H186      1.0  0.44060  0.68830  0.37260  1.0000
  H   H187      1.0  0.94060  0.81170  0.62740  1.0000
  H   H188      1.0  0.05940  0.31170  0.87260  1.0000
  H   H189      1.0  0.18830  0.12740  0.55940  1.0000
  H   H190      1.0  0.68830  0.37260  0.44060  1.0000
  H   H191      1.0  0.81170  0.62740  0.94060  1.0000
  H   H192      1.0  0.31170  0.87260  0.05940  1.0000
  O   O113      1.0  0.98837  0.51163  0.48837  1.0000
  O   O114      1.0  0.51163  0.48837  0.98837  1.0000
  O   O115      1.0  0.01163  0.01163  0.01163  1.0000
  O   O116      1.0  0.48837  0.98837  0.51163  1.0000
  O   O117      1.0  0.76163  0.23837  0.73837  1.0000
  O   O118      1.0  0.73837  0.76163  0.23837  1.0000
  O   O119      1.0  0.26163  0.26163  0.26163  1.0000
  O   O120      1.0  0.23837  0.73837  0.76163  1.0000
  O   O121      1.0  0.48837  0.01163  0.98837  1.0000
  O   O122      1.0  0.01163  0.98837  0.48837  1.0000
  O   O123      1.0  0.51163  0.51163  0.51163  1.0000
  O   O124      1.0  0.98837  0.48837  0.01163  1.0000
  O   O125      1.0  0.26163  0.73837  0.23837  1.0000
  O   O126      1.0  0.23837  0.26163  0.73837  1.0000
  O   O127      1.0  0.76163  0.76163  0.76163  1.0000
  O   O128      1.0  0.73837  0.23837  0.26163  1.0000
