data_image0
_chemical_formula_structural       Co2O16C12H8
_chemical_formula_sum              "Co2 O16 C12 H8"
_cell_length_a       7.778
_cell_length_b       8.289
_cell_length_c       9.451
_cell_angle_alpha    91.41
_cell_angle_beta     104.34
_cell_angle_gamma    97.86

_space_group_name_H-M_alt    "P 1"
_space_group_IT_number       1

loop_
  _space_group_symop_operation_xyz
  'x, y, z'

loop_
  _atom_site_type_symbol
  _atom_site_label
  _atom_site_symmetry_multiplicity
  _atom_site_fract_x
  _atom_site_fract_y
  _atom_site_fract_z
  _atom_site_occupancy
  Co  Co1       1.0  0.33278  0.50587  0.85675  1.0000
  Co  Co2       1.0  0.66722  0.49413  0.14325  1.0000
  O   O1        1.0  0.21060  0.27750  0.88410  1.0000
  O   O2        1.0  0.78940  0.72250  0.11590  1.0000
  O   O3        1.0  0.09530  0.59470  0.81930  1.0000
  O   O4        1.0  0.90470  0.40530  0.18070  1.0000
  O   O5        1.0  0.29050  0.44860  0.63390  1.0000
  O   O6        1.0  0.70950  0.55140  0.36610  1.0000
  O   O7        1.0  0.54850  0.26090  0.17660  1.0000
  O   O8        1.0  0.45150  0.73910  0.82340  1.0000
  O   O9        1.0  0.59340  0.42470  0.91270  1.0000
  O   O10       1.0  0.40660  0.57530  0.08730  1.0000
  O   O11       1.0  0.42160  0.87770  0.17980  1.0000
  O   O12       1.0  0.57840  0.12230  0.82020  1.0000
  O   O13       1.0  0.08590  0.89970  0.89480  1.0000
  O   O14       1.0  0.91410  0.10030  0.10520  1.0000
  O   O15       1.0  0.73020  0.54440  0.70720  1.0000
  O   O16       1.0  0.26980  0.45560  0.29280  1.0000
  C   C1        1.0  0.41640  0.16350  0.09890  1.0000
  C   C2        1.0  0.58360  0.83650  0.90110  1.0000
  C   C3        1.0  0.26880  0.17180  0.97290  1.0000
  C   C4        1.0  0.73120  0.82820  0.02710  1.0000
  C   C5        1.0  0.35920  0.98810  0.10360  1.0000
  C   C6        1.0  0.64080  0.01190  0.89640  1.0000
  C   C7        1.0  0.20890  0.99710  0.97460  1.0000
  C   C8        1.0  0.79110  0.00290  0.02540  1.0000
  C   C9        1.0  0.40650  0.47670  0.56380  1.0000
  C   C10       1.0  0.59350  0.52330  0.43620  1.0000
  C   C11       1.0  0.60330  0.52050  0.59450  1.0000
  C   C12       1.0  0.39670  0.47950  0.40550  1.0000
  H   H1        1.0  0.64040  0.46890  0.85450  1.0000
  H   H2        1.0  0.35960  0.53110  0.14550  1.0000
  H   H3        1.0  0.00820  0.55560  0.78930  1.0000
  H   H4        1.0  0.99180  0.44440  0.21070  1.0000
  H   H5        1.0  0.59200  0.30000  0.89190  1.0000
  H   H6        1.0  0.40800  0.70000  0.10810  1.0000
  H   H7        1.0  0.12100  0.67700  0.83600  1.0000
  H   H8        1.0  0.87900  0.32300  0.16400  1.0000
