data_image0
_chemical_formula_structural       U8O64C12H4C4H4C8H4C4H4C16H4C4H4C8H4C4H4C16H4C4H4C8H4C4H4C4
_chemical_formula_sum              "U8 O64 C96 H48"
_cell_length_a       14.9385
_cell_length_b       20.4922
_cell_length_c       15.9728
_cell_angle_alpha    90
_cell_angle_beta     100.124
_cell_angle_gamma    90

_space_group_name_H-M_alt    "P 1"
_space_group_IT_number       1

loop_
  _space_group_symop_operation_xyz
  'x, y, z'

loop_
  _atom_site_type_symbol
  _atom_site_label
  _atom_site_symmetry_multiplicity
  _atom_site_fract_x
  _atom_site_fract_y
  _atom_site_fract_z
  _atom_site_occupancy
  U   U1        1.0  0.46277  0.10198  0.25645  1.0000
  U   U2        1.0  0.46277  0.89802  0.75645  1.0000
  U   U3        1.0  0.96277  0.60198  0.25645  1.0000
  U   U4        1.0  0.96277  0.39802  0.75645  1.0000
  U   U5        1.0  0.85414  0.10461  0.94225  1.0000
  U   U6        1.0  0.85414  0.89539  0.44225  1.0000
  U   U7        1.0  0.35414  0.60461  0.94225  1.0000
  U   U8        1.0  0.35414  0.39539  0.44225  1.0000
  O   O1        1.0  0.35470  0.11030  0.28950  1.0000
  O   O2        1.0  0.35470  0.88970  0.78950  1.0000
  O   O3        1.0  0.85470  0.61030  0.28950  1.0000
  O   O4        1.0  0.85470  0.38970  0.78950  1.0000
  O   O5        1.0  0.56510  0.09640  0.22400  1.0000
  O   O6        1.0  0.56510  0.90360  0.72400  1.0000
  O   O7        1.0  0.06510  0.59640  0.22400  1.0000
  O   O8        1.0  0.06510  0.40360  0.72400  1.0000
  O   O9        1.0  0.53330  0.14620  0.39140  1.0000
  O   O10       1.0  0.53330  0.85380  0.89140  1.0000
  O   O11       1.0  0.03330  0.64620  0.39140  1.0000
  O   O12       1.0  0.03330  0.35380  0.89140  1.0000
  O   O13       1.0  0.52310  0.04130  0.39070  1.0000
  O   O14       1.0  0.52310  0.95870  0.89070  1.0000
  O   O15       1.0  0.02310  0.54130  0.39070  1.0000
  O   O16       1.0  0.02310  0.45870  0.89070  1.0000
  O   O17       1.0  0.77440  0.15010  0.80640  1.0000
  O   O18       1.0  0.77440  0.84990  0.30640  1.0000
  O   O19       1.0  0.27440  0.65010  0.80640  1.0000
  O   O20       1.0  0.27440  0.34990  0.30640  1.0000
  O   O21       1.0  0.78660  0.04430  0.80930  1.0000
  O   O22       1.0  0.78660  0.95570  0.30930  1.0000
  O   O23       1.0  0.28660  0.54430  0.80930  1.0000
  O   O24       1.0  0.28660  0.45570  0.30930  1.0000
  O   O25       1.0  0.74650  0.10140  0.97610  1.0000
  O   O26       1.0  0.74650  0.89860  0.47610  1.0000
  O   O27       1.0  0.24650  0.60140  0.97610  1.0000
  O   O28       1.0  0.24650  0.39860  0.47610  1.0000
  O   O29       1.0  0.95990  0.10900  0.91040  1.0000
  O   O30       1.0  0.95990  0.89100  0.41040  1.0000
  O   O31       1.0  0.45990  0.60900  0.91040  1.0000
  O   O32       1.0  0.45990  0.39100  0.41040  1.0000
  O   O33       1.0  0.83950  0.22410  0.93580  1.0000
  O   O34       1.0  0.83950  0.77590  0.43580  1.0000
  O   O35       1.0  0.33950  0.72410  0.93580  1.0000
  O   O36       1.0  0.33950  0.27590  0.43580  1.0000
  O   O37       1.0  0.91720  0.18370  0.05460  1.0000
  O   O38       1.0  0.91720  0.81630  0.55460  1.0000
  O   O39       1.0  0.41720  0.68370  0.05460  1.0000
  O   O40       1.0  0.41720  0.31630  0.55460  1.0000
  O   O41       1.0  0.89600  0.53890  0.12530  1.0000
  O   O42       1.0  0.89600  0.46110  0.62530  1.0000
  O   O43       1.0  0.39600  0.03890  0.12530  1.0000
  O   O44       1.0  0.39600  0.96110  0.62530  1.0000
  O   O45       1.0  0.94040  0.48720  0.24500  1.0000
  O   O46       1.0  0.94040  0.51280  0.74500  1.0000
  O   O47       1.0  0.44040  0.98720  0.24500  1.0000
  O   O48       1.0  0.44040  0.01280  0.74500  1.0000
  O   O49       1.0  0.87320  0.98990  0.95770  1.0000
  O   O50       1.0  0.87320  0.01010  0.45770  1.0000
  O   O51       1.0  0.37320  0.48990  0.95770  1.0000
  O   O52       1.0  0.37320  0.51010  0.45770  1.0000
  O   O53       1.0  0.91660  0.04190  0.07690  1.0000
  O   O54       1.0  0.91660  0.95810  0.57690  1.0000
  O   O55       1.0  0.41660  0.54190  0.07690  1.0000
  O   O56       1.0  0.41660  0.45810  0.57690  1.0000
  O   O57       1.0  0.98080  0.72270  0.25930  1.0000
  O   O58       1.0  0.98080  0.27730  0.75930  1.0000
  O   O59       1.0  0.48080  0.22270  0.25930  1.0000
  O   O60       1.0  0.48080  0.77730  0.75930  1.0000
  O   O61       1.0  0.91060  0.68230  0.14010  1.0000
  O   O62       1.0  0.91060  0.31770  0.64010  1.0000
  O   O63       1.0  0.41060  0.18230  0.14010  1.0000
  O   O64       1.0  0.41060  0.81770  0.64010  1.0000
  C   C1        1.0  0.55070  0.09220  0.42960  1.0000
  C   C2        1.0  0.55070  0.90780  0.92960  1.0000
  C   C3        1.0  0.05070  0.59220  0.42960  1.0000
  C   C4        1.0  0.05070  0.40780  0.92960  1.0000
  C   C5        1.0  0.60580  0.09150  0.51760  1.0000
  C   C6        1.0  0.60580  0.90850  0.01760  1.0000
  C   C7        1.0  0.10580  0.59150  0.51760  1.0000
  C   C8        1.0  0.10580  0.40850  0.01760  1.0000
  C   C9        1.0  0.63430  0.14860  0.55550  1.0000
  C   C10       1.0  0.63430  0.85140  0.05550  1.0000
  C   C11       1.0  0.13430  0.64860  0.55550  1.0000
  C   C12       1.0  0.13430  0.35140  0.05550  1.0000
  H   H1        1.0  0.62110  0.18730  0.52540  1.0000
  H   H2        1.0  0.62110  0.81270  0.02540  1.0000
  H   H3        1.0  0.12110  0.68730  0.52540  1.0000
  H   H4        1.0  0.12110  0.31270  0.02540  1.0000
  C   C13       1.0  0.68250  0.15110  0.63780  1.0000
  C   C14       1.0  0.68250  0.84890  0.13780  1.0000
  C   C15       1.0  0.18250  0.65110  0.63780  1.0000
  C   C16       1.0  0.18250  0.34890  0.13780  1.0000
  H   H5        1.0  0.70040  0.19100  0.66300  1.0000
  H   H6        1.0  0.70040  0.80900  0.16300  1.0000
  H   H7        1.0  0.20040  0.69100  0.66300  1.0000
  H   H8        1.0  0.20040  0.30900  0.16300  1.0000
  C   C17       1.0  0.70390  0.09300  0.68230  1.0000
  C   C18       1.0  0.70390  0.90700  0.18230  1.0000
  C   C19       1.0  0.20390  0.59300  0.68230  1.0000
  C   C20       1.0  0.20390  0.40700  0.18230  1.0000
  C   C21       1.0  0.67830  0.03410  0.64270  1.0000
  C   C22       1.0  0.67830  0.96590  0.14270  1.0000
  C   C23       1.0  0.17830  0.53410  0.64270  1.0000
  C   C24       1.0  0.17830  0.46590  0.14270  1.0000
  H   H9        1.0  0.69430  0.99500  0.67110  1.0000
  H   H10       1.0  0.69430  0.00500  0.17110  1.0000
  H   H11       1.0  0.19430  0.49500  0.67110  1.0000
  H   H12       1.0  0.19430  0.50500  0.17110  1.0000
  C   C25       1.0  0.62920  0.03330  0.56090  1.0000
  C   C26       1.0  0.62920  0.96670  0.06090  1.0000
  C   C27       1.0  0.12920  0.53330  0.56090  1.0000
  C   C28       1.0  0.12920  0.46670  0.06090  1.0000
  H   H13       1.0  0.61160  0.99370  0.53460  1.0000
  H   H14       1.0  0.61160  0.00630  0.03460  1.0000
  H   H15       1.0  0.11160  0.49370  0.53460  1.0000
  H   H16       1.0  0.11160  0.50630  0.03460  1.0000
  C   C29       1.0  0.75930  0.09570  0.76820  1.0000
  C   C30       1.0  0.75930  0.90430  0.26820  1.0000
  C   C31       1.0  0.25930  0.59570  0.76820  1.0000
  C   C32       1.0  0.25930  0.40430  0.26820  1.0000
  C   C33       1.0  0.88050  0.23260  0.01180  1.0000
  C   C34       1.0  0.88050  0.76740  0.51180  1.0000
  C   C35       1.0  0.38050  0.73260  0.01180  1.0000
  C   C36       1.0  0.38050  0.26740  0.51180  1.0000
  C   C37       1.0  0.88860  0.29810  0.04930  1.0000
  C   C38       1.0  0.88860  0.70190  0.54930  1.0000
  C   C39       1.0  0.38860  0.79810  0.04930  1.0000
  C   C40       1.0  0.38860  0.20190  0.54930  1.0000
  C   C41       1.0  0.86440  0.35280  0.00020  1.0000
  C   C42       1.0  0.86440  0.64720  0.50020  1.0000
  C   C43       1.0  0.36440  0.85280  0.00020  1.0000
  C   C44       1.0  0.36440  0.14720  0.50020  1.0000
  H   H17       1.0  0.84210  0.34800  0.94240  1.0000
  H   H18       1.0  0.84210  0.65200  0.44240  1.0000
  H   H19       1.0  0.34210  0.84800  0.94240  1.0000
  H   H20       1.0  0.34210  0.15200  0.44240  1.0000
  C   C45       1.0  0.87290  0.41510  0.03540  1.0000
  C   C46       1.0  0.87290  0.58490  0.53540  1.0000
  C   C47       1.0  0.37290  0.91510  0.03540  1.0000
  C   C48       1.0  0.37290  0.08490  0.53540  1.0000
  H   H21       1.0  0.86060  0.45170  0.00100  1.0000
  H   H22       1.0  0.86060  0.54830  0.50100  1.0000
  H   H23       1.0  0.36060  0.95170  0.00100  1.0000
  H   H24       1.0  0.36060  0.04830  0.50100  1.0000
  C   C49       1.0  0.89980  0.42170  0.12250  1.0000
  C   C50       1.0  0.89980  0.57830  0.62250  1.0000
  C   C51       1.0  0.39980  0.92170  0.12250  1.0000
  C   C52       1.0  0.39980  0.07830  0.62250  1.0000
  C   C53       1.0  0.92260  0.36660  0.17280  1.0000
  C   C54       1.0  0.92260  0.63340  0.67280  1.0000
  C   C55       1.0  0.42260  0.86660  0.17280  1.0000
  C   C56       1.0  0.42260  0.13340  0.67280  1.0000
  H   H25       1.0  0.94230  0.37100  0.23100  1.0000
  H   H26       1.0  0.94230  0.62900  0.73100  1.0000
  H   H27       1.0  0.44230  0.87100  0.23100  1.0000
  H   H28       1.0  0.44230  0.12900  0.73100  1.0000
  C   C57       1.0  0.91600  0.30550  0.13570  1.0000
  C   C58       1.0  0.91600  0.69450  0.63570  1.0000
  C   C59       1.0  0.41600  0.80550  0.13570  1.0000
  C   C60       1.0  0.41600  0.19450  0.63570  1.0000
  H   H29       1.0  0.93020  0.26880  0.16960  1.0000
  H   H30       1.0  0.93020  0.73120  0.66960  1.0000
  H   H31       1.0  0.43020  0.76880  0.16960  1.0000
  H   H32       1.0  0.43020  0.23120  0.66960  1.0000
  C   C61       1.0  0.91170  0.48690  0.16510  1.0000
  C   C62       1.0  0.91170  0.51310  0.66510  1.0000
  C   C63       1.0  0.41170  0.98690  0.16510  1.0000
  C   C64       1.0  0.41170  0.01310  0.66510  1.0000
  C   C65       1.0  0.89820  0.98890  0.03740  1.0000
  C   C66       1.0  0.89820  0.01110  0.53740  1.0000
  C   C67       1.0  0.39820  0.48890  0.03740  1.0000
  C   C68       1.0  0.39820  0.51110  0.53740  1.0000
  C   C69       1.0  0.91040  0.92410  0.07850  1.0000
  C   C70       1.0  0.91040  0.07590  0.57850  1.0000
  C   C71       1.0  0.41040  0.42410  0.07850  1.0000
  C   C72       1.0  0.41040  0.57590  0.57850  1.0000
  C   C73       1.0  0.93850  0.91570  0.16620  1.0000
  C   C74       1.0  0.93850  0.08430  0.66620  1.0000
  C   C75       1.0  0.43850  0.41570  0.16620  1.0000
  C   C76       1.0  0.43850  0.58430  0.66620  1.0000
  H   H33       1.0  0.95010  0.95190  0.20150  1.0000
  H   H34       1.0  0.95010  0.04810  0.70150  1.0000
  H   H35       1.0  0.45010  0.45190  0.20150  1.0000
  H   H36       1.0  0.45010  0.54810  0.70150  1.0000
  C   C77       1.0  0.94900  0.85320  0.20030  1.0000
  C   C78       1.0  0.94900  0.14680  0.70030  1.0000
  C   C79       1.0  0.44900  0.35320  0.20030  1.0000
  C   C80       1.0  0.44900  0.64680  0.70030  1.0000
  H   H37       1.0  0.97000  0.84800  0.25830  1.0000
  H   H38       1.0  0.97000  0.15200  0.75830  1.0000
  H   H39       1.0  0.47000  0.34800  0.25830  1.0000
  H   H40       1.0  0.47000  0.65200  0.75830  1.0000
  C   C81       1.0  0.92880  0.79880  0.14950  1.0000
  C   C82       1.0  0.92880  0.20120  0.64950  1.0000
  C   C83       1.0  0.42880  0.29880  0.14950  1.0000
  C   C84       1.0  0.42880  0.70120  0.64950  1.0000
  C   C85       1.0  0.90000  0.80750  0.06050  1.0000
  C   C86       1.0  0.90000  0.19250  0.56050  1.0000
  C   C87       1.0  0.40000  0.30750  0.06050  1.0000
  C   C88       1.0  0.40000  0.69250  0.56050  1.0000
  H   H41       1.0  0.88820  0.77160  0.02460  1.0000
  H   H42       1.0  0.88820  0.22840  0.52460  1.0000
  H   H43       1.0  0.38820  0.27160  0.02460  1.0000
  H   H44       1.0  0.38820  0.72840  0.52460  1.0000
  C   C89       1.0  0.88990  0.86910  0.02860  1.0000
  C   C90       1.0  0.88990  0.13090  0.52860  1.0000
  C   C91       1.0  0.38990  0.36910  0.02860  1.0000
  C   C92       1.0  0.38990  0.63090  0.52860  1.0000
  H   H45       1.0  0.86820  0.87450  0.97080  1.0000
  H   H46       1.0  0.86820  0.12550  0.47080  1.0000
  H   H47       1.0  0.36820  0.37450  0.97080  1.0000
  H   H48       1.0  0.36820  0.62550  0.47080  1.0000
  C   C93       1.0  0.94080  0.73120  0.18330  1.0000
  C   C94       1.0  0.94080  0.26880  0.68330  1.0000
  C   C95       1.0  0.44080  0.23120  0.18330  1.0000
  C   C96       1.0  0.44080  0.76880  0.68330  1.0000
