data_image0
_chemical_formula_structural       C4H4CoO8C2O4C4H6
_chemical_formula_sum              "C10 H10 Co1 O12"
_cell_length_a       6.8591
_cell_length_b       9.9691
_cell_length_c       10.9231
_cell_angle_alpha    93.021
_cell_angle_beta     104.883
_cell_angle_gamma    103.702

_space_group_name_H-M_alt    "P 1"
_space_group_IT_number       1

loop_
  _space_group_symop_operation_xyz
  'x, y, z'

loop_
  _atom_site_type_symbol
  _atom_site_label
  _atom_site_symmetry_multiplicity
  _atom_site_fract_x
  _atom_site_fract_y
  _atom_site_fract_z
  _atom_site_occupancy
  C   C1        1.0  0.39940  0.98930  0.74260  1.0000
  C   C2        1.0  0.60060  0.01070  0.25740  1.0000
  C   C3        1.0  0.45420  0.99170  0.61700  1.0000
  C   C4        1.0  0.54580  0.00830  0.38300  1.0000
  H   H1        1.0  0.79600  0.13900  0.09100  1.0000
  H   H2        1.0  0.20400  0.86100  0.90900  1.0000
  H   H3        1.0  0.70900  0.12800  0.96600  1.0000
  H   H4        1.0  0.29100  0.87200  0.03400  1.0000
  Co  Co1       1.0  0.00000  0.00000  0.00000  1.0000
  O   O1        1.0  0.47820  0.09730  0.82201  1.0000
  O   O2        1.0  0.52180  0.90270  0.17799  1.0000
  O   O3        1.0  0.84070  0.97863  0.80765  1.0000
  O   O4        1.0  0.15930  0.02137  0.19235  1.0000
  O   O5        1.0  0.82900  0.14190  0.02950  1.0000
  O   O6        1.0  0.17100  0.85810  0.97050  1.0000
  O   O7        1.0  0.76340  0.83100  0.02560  1.0000
  O   O8        1.0  0.23660  0.16900  0.97440  1.0000
  C   C5        1.0  0.83760  0.07230  0.73360  1.0000
  C   C6        1.0  0.16240  0.92770  0.26640  1.0000
  O   O9        1.0  0.27490  0.88270  0.75730  1.0000
  O   O10       1.0  0.72510  0.11730  0.24270  1.0000
  O   O11       1.0  0.96810  0.18670  0.75330  1.0000
  O   O12       1.0  0.03190  0.81330  0.24670  1.0000
  C   C7        1.0  0.66110  0.03820  0.61310  1.0000
  C   C8        1.0  0.33890  0.96180  0.38690  1.0000
  C   C9        1.0  0.29490  0.95270  0.50420  1.0000
  C   C10       1.0  0.70510  0.04730  0.49580  1.0000
  H   H5        1.0  0.16400  0.93300  0.51200  1.0000
  H   H6        1.0  0.83600  0.06700  0.48800  1.0000
  H   H7        1.0  0.68000  0.85300  0.04700  1.0000
  H   H8        1.0  0.32000  0.14700  0.95300  1.0000
  H   H9        1.0  0.82100  0.79600  0.08400  1.0000
  H   H10       1.0  0.17900  0.20400  0.91600  1.0000
