data_image0
_chemical_formula_structural       Y2C4H4C2H4C2H4C2H4C4H2C2H2C4H2C2H2C6H2C2H2C4H2C2H2C8H2C2H2C4H2C2H2C6H2C2H2C4H2C2H2O4H4O22
_chemical_formula_sum              "Y2 C66 H52 O26"
_cell_length_a       9.3193
_cell_length_b       11.8459
_cell_length_c       17.601
_cell_angle_alpha    82.597
_cell_angle_beta     82.102
_cell_angle_gamma    87.194

_space_group_name_H-M_alt    "P 1"
_space_group_IT_number       1

loop_
  _space_group_symop_operation_xyz
  'x, y, z'

loop_
  _atom_site_type_symbol
  _atom_site_label
  _atom_site_symmetry_multiplicity
  _atom_site_fract_x
  _atom_site_fract_y
  _atom_site_fract_z
  _atom_site_occupancy
  Y   Y1        1.0  0.32590  0.83531  0.51280  1.0000
  Y   Y2        1.0  0.67410  0.16469  0.48720  1.0000
  C   C1        1.0  0.73770  0.66390  0.01270  1.0000
  C   C2        1.0  0.26230  0.33610  0.98730  1.0000
  C   C3        1.0  0.69470  0.54950  0.06160  1.0000
  C   C4        1.0  0.30530  0.45050  0.93840  1.0000
  H   H1        1.0  0.70820  0.48930  0.02860  1.0000
  H   H2        1.0  0.29180  0.51070  0.97140  1.0000
  H   H3        1.0  0.75870  0.53210  0.10100  1.0000
  H   H4        1.0  0.24130  0.46790  0.89900  1.0000
  C   C5        1.0  0.72360  0.76320  0.06320  1.0000
  C   C6        1.0  0.27640  0.23680  0.93680  1.0000
  H   H5        1.0  0.74350  0.83500  0.03100  1.0000
  H   H6        1.0  0.25650  0.16500  0.96900  1.0000
  H   H7        1.0  0.62640  0.76800  0.09070  1.0000
  H   H8        1.0  0.37360  0.23200  0.90930  1.0000
  C   C7        1.0  0.64270  0.68720  0.94910  1.0000
  C   C8        1.0  0.35730  0.31280  0.05090  1.0000
  H   H9        1.0  0.65040  0.62420  0.91840  1.0000
  H   H10       1.0  0.34960  0.37580  0.08160  1.0000
  H   H11       1.0  0.54210  0.69730  0.97090  1.0000
  H   H12       1.0  0.45790  0.30270  0.02910  1.0000
  C   C9        1.0  0.89630  0.65420  0.97610  1.0000
  C   C10       1.0  0.10370  0.34580  0.02390  1.0000
  H   H13       1.0  0.92710  0.72650  0.94770  1.0000
  H   H14       1.0  0.07290  0.27350  0.05230  1.0000
  H   H15       1.0  0.95870  0.63270  0.01580  1.0000
  H   H16       1.0  0.04130  0.36730  0.98420  1.0000
  C   C11       1.0  0.51630  0.58840  0.16980  1.0000
  C   C12       1.0  0.48370  0.41160  0.83020  1.0000
  C   C13       1.0  0.60570  0.56840  0.22670  1.0000
  C   C14       1.0  0.39430  0.43160  0.77330  1.0000
  H   H17       1.0  0.69120  0.52520  0.21890  1.0000
  H   H18       1.0  0.30880  0.47480  0.78110  1.0000
  C   C15       1.0  0.56620  0.61370  0.29590  1.0000
  C   C16       1.0  0.43380  0.38630  0.70410  1.0000
  H   H19       1.0  0.62840  0.60300  0.33350  1.0000
  H   H20       1.0  0.37160  0.39700  0.66650  1.0000
  C   C17       1.0  0.43660  0.67430  0.31030  1.0000
  C   C18       1.0  0.56340  0.32570  0.68970  1.0000
  C   C19       1.0  0.34750  0.69030  0.25320  1.0000
  C   C20       1.0  0.65250  0.30970  0.74680  1.0000
  H   H21       1.0  0.25960  0.73020  0.26200  1.0000
  H   H22       1.0  0.74040  0.26980  0.73800  1.0000
  C   C21       1.0  0.38540  0.64870  0.18370  1.0000
  C   C22       1.0  0.61460  0.35130  0.81630  1.0000
  H   H23       1.0  0.32370  0.66080  0.14590  1.0000
  H   H24       1.0  0.67630  0.33920  0.85410  1.0000
  C   C23       1.0  0.39520  0.72380  0.38400  1.0000
  C   C24       1.0  0.60480  0.27620  0.61600  1.0000
  C   C25       1.0  0.82080  0.80890  0.17330  1.0000
  C   C26       1.0  0.17920  0.19110  0.82670  1.0000
  C   C27       1.0  0.94230  0.79850  0.21150  1.0000
  C   C28       1.0  0.05770  0.20150  0.78850  1.0000
  H   H25       1.0  0.01880  0.74920  0.19660  1.0000
  H   H26       1.0  0.98120  0.25080  0.80340  1.0000
  C   C29       1.0  0.94970  0.86080  0.27100  1.0000
  C   C30       1.0  0.05030  0.13920  0.72900  1.0000
  H   H27       1.0  0.03260  0.85450  0.29540  1.0000
  H   H28       1.0  0.96740  0.14550  0.70460  1.0000
  C   C31       1.0  0.83690  0.93250  0.29550  1.0000
  C   C32       1.0  0.16310  0.06750  0.70450  1.0000
  C   C33       1.0  0.71480  0.94200  0.25670  1.0000
  C   C34       1.0  0.28520  0.05800  0.74330  1.0000
  H   H29       1.0  0.63820  0.99130  0.27140  1.0000
  H   H30       1.0  0.36180  0.00870  0.72860  1.0000
  C   C35       1.0  0.70670  0.87830  0.19630  1.0000
  C   C36       1.0  0.29330  0.12170  0.80370  1.0000
  H   H31       1.0  0.62380  0.88310  0.17190  1.0000
  H   H32       1.0  0.37620  0.11690  0.82810  1.0000
  C   C37       1.0  0.84620  0.99740  0.36140  1.0000
  C   C38       1.0  0.15380  0.00260  0.63860  1.0000
  C   C39       1.0  0.17880  0.60970  0.61800  1.0000
  C   C40       1.0  0.82120  0.39030  0.38200  1.0000
  C   C41       1.0  0.10110  0.60570  0.69880  1.0000
  C   C42       1.0  0.89890  0.39430  0.30120  1.0000
  C   C43       1.0  0.01250  0.51810  0.72980  1.0000
  C   C44       1.0  0.98750  0.48190  0.27020  1.0000
  H   H33       1.0  0.99330  0.46390  0.69910  1.0000
  H   H34       1.0  0.00670  0.53610  0.30090  1.0000
  C   C45       1.0  0.95220  0.50960  0.80490  1.0000
  C   C46       1.0  0.04780  0.49040  0.19510  1.0000
  H   H35       1.0  0.89730  0.44680  0.82560  1.0000
  H   H36       1.0  0.10270  0.55320  0.17440  1.0000
  C   C47       1.0  0.96950  0.58830  0.84980  1.0000
  C   C48       1.0  0.03050  0.41170  0.15020  1.0000
  C   C49       1.0  0.05770  0.67900  0.82040  1.0000
  C   C50       1.0  0.94230  0.32100  0.17960  1.0000
  H   H37       1.0  0.07200  0.73440  0.85130  1.0000
  H   H38       1.0  0.92800  0.26560  0.14870  1.0000
  C   C51       1.0  0.12450  0.68640  0.74470  1.0000
  C   C52       1.0  0.87550  0.31360  0.25530  1.0000
  H   H39       1.0  0.18530  0.74620  0.72490  1.0000
  H   H40       1.0  0.81470  0.25380  0.27510  1.0000
  C   C53       1.0  0.59400  0.90480  0.59520  1.0000
  C   C54       1.0  0.40600  0.09520  0.40480  1.0000
  C   C55       1.0  0.61710  0.87090  0.67700  1.0000
  C   C56       1.0  0.38290  0.12910  0.32300  1.0000
  C   C57       1.0  0.54750  0.78090  0.71980  1.0000
  C   C58       1.0  0.45250  0.21910  0.28020  1.0000
  H   H41       1.0  0.48600  0.73940  0.69740  1.0000
  H   H42       1.0  0.51400  0.26060  0.30260  1.0000
  C   C59       1.0  0.56760  0.75060  0.79650  1.0000
  C   C60       1.0  0.43240  0.24940  0.20350  1.0000
  H   H43       1.0  0.51810  0.69000  0.82580  1.0000
  H   H44       1.0  0.48190  0.31000  0.17420  1.0000
  C   C61       1.0  0.66050  0.81040  0.82890  1.0000
  C   C62       1.0  0.33950  0.18960  0.17110  1.0000
  C   C63       1.0  0.72410  0.90420  0.78740  1.0000
  C   C64       1.0  0.27590  0.09580  0.21260  1.0000
  H   H45       1.0  0.78080  0.94810  0.81100  1.0000
  H   H46       1.0  0.21920  0.05190  0.18900  1.0000
  C   C65       1.0  0.70630  0.93490  0.71170  1.0000
  C   C66       1.0  0.29370  0.06510  0.28830  1.0000
  H   H47       1.0  0.75290  0.99760  0.68350  1.0000
  H   H48       1.0  0.24710  0.00240  0.31650  1.0000
  O   O1        1.0  0.54740  0.55110  0.09830  1.0000
  O   O2        1.0  0.45260  0.44890  0.90170  1.0000
  O   O3        1.0  0.08020  0.86450  0.51120  1.0000
  O   O4        1.0  0.91980  0.13550  0.48880  1.0000
  H   H49       1.0  0.04490  0.89930  0.54920  1.0000
  H   H50       1.0  0.95510  0.10070  0.45080  1.0000
  H   H51       1.0  0.06530  0.90460  0.46920  1.0000
  H   H52       1.0  0.93470  0.09540  0.53080  1.0000
  O   O5        1.0  0.82600  0.73980  0.11600  1.0000
  O   O6        1.0  0.17400  0.26020  0.88400  1.0000
  O   O7        1.0  0.69210  0.78760  0.90320  1.0000
  O   O8        1.0  0.30790  0.21240  0.09680  1.0000
  O   O9        1.0  0.90400  0.56730  0.92440  1.0000
  O   O10       1.0  0.09600  0.43270  0.07560  1.0000
  O   O11       1.0  0.27140  0.76900  0.39750  1.0000
  O   O12       1.0  0.72860  0.23100  0.60250  1.0000
  O   O13       1.0  0.48410  0.72060  0.43230  1.0000
  O   O14       1.0  0.51590  0.27940  0.56770  1.0000
  O   O15       1.0  0.73950  0.06090  0.38400  1.0000
  O   O16       1.0  0.26050  0.93910  0.61600  1.0000
  O   O17       1.0  0.96110  0.98690  0.39030  1.0000
  O   O18       1.0  0.03890  0.01310  0.60970  1.0000
  O   O19       1.0  0.63610  0.00200  0.56370  1.0000
  O   O20       1.0  0.36390  0.99800  0.43630  1.0000
  O   O21       1.0  0.53690  0.83700  0.56100  1.0000
  O   O22       1.0  0.46310  0.16300  0.43900  1.0000
  O   O23       1.0  0.26900  0.68190  0.59370  1.0000
  O   O24       1.0  0.73100  0.31810  0.40630  1.0000
  O   O25       1.0  0.14760  0.53490  0.58020  1.0000
  O   O26       1.0  0.85240  0.46510  0.41980  1.0000
