data_image0
_chemical_formula_structural       Zn54C36H36C72H36C144H36C36H36C198H18O324
_chemical_formula_sum              "Zn54 C486 H162 O324"
_cell_length_a       43.648
_cell_length_b       43.648
_cell_length_c       17.371
_cell_angle_alpha    90
_cell_angle_beta     90
_cell_angle_gamma    120

_space_group_name_H-M_alt    "P 1"
_space_group_IT_number       1

loop_
  _space_group_symop_operation_xyz
  'x, y, z'

loop_
  _atom_site_type_symbol
  _atom_site_label
  _atom_site_symmetry_multiplicity
  _atom_site_fract_x
  _atom_site_fract_y
  _atom_site_fract_z
  _atom_site_occupancy
  Zn  Zn1       1.0  0.84407  0.01801  0.15992  1.0000
  Zn  Zn2       1.0  0.98199  0.82606  0.15992  1.0000
  Zn  Zn3       1.0  0.17394  0.15593  0.15992  1.0000
  Zn  Zn4       1.0  0.82606  0.98199  0.34008  1.0000
  Zn  Zn5       1.0  0.15593  0.17394  0.34008  1.0000
  Zn  Zn6       1.0  0.01801  0.84407  0.34008  1.0000
  Zn  Zn7       1.0  0.51074  0.35135  0.49325  1.0000
  Zn  Zn8       1.0  0.64865  0.15939  0.49325  1.0000
  Zn  Zn9       1.0  0.84061  0.48926  0.49325  1.0000
  Zn  Zn10      1.0  0.49273  0.31532  0.67341  1.0000
  Zn  Zn11      1.0  0.82259  0.50727  0.67341  1.0000
  Zn  Zn12      1.0  0.68468  0.17741  0.67341  1.0000
  Zn  Zn13      1.0  0.17741  0.68468  0.82659  1.0000
  Zn  Zn14      1.0  0.31532  0.49273  0.82659  1.0000
  Zn  Zn15      1.0  0.50727  0.82259  0.82659  1.0000
  Zn  Zn16      1.0  0.15939  0.64865  0.00675  1.0000
  Zn  Zn17      1.0  0.48926  0.84061  0.00675  1.0000
  Zn  Zn18      1.0  0.35135  0.51074  0.00675  1.0000
  Zn  Zn19      1.0  0.15593  0.98199  0.84008  1.0000
  Zn  Zn20      1.0  0.01801  0.17394  0.84008  1.0000
  Zn  Zn21      1.0  0.82606  0.84407  0.84008  1.0000
  Zn  Zn22      1.0  0.17394  0.01801  0.65992  1.0000
  Zn  Zn23      1.0  0.84407  0.82606  0.65992  1.0000
  Zn  Zn24      1.0  0.98199  0.15593  0.65992  1.0000
  Zn  Zn25      1.0  0.48926  0.64865  0.50675  1.0000
  Zn  Zn26      1.0  0.35135  0.84061  0.50675  1.0000
  Zn  Zn27      1.0  0.15939  0.51074  0.50675  1.0000
  Zn  Zn28      1.0  0.50727  0.68468  0.32659  1.0000
  Zn  Zn29      1.0  0.17741  0.49273  0.32659  1.0000
  Zn  Zn30      1.0  0.31532  0.82259  0.32659  1.0000
  Zn  Zn31      1.0  0.82259  0.31532  0.17341  1.0000
  Zn  Zn32      1.0  0.68468  0.50727  0.17341  1.0000
  Zn  Zn33      1.0  0.49273  0.17741  0.17341  1.0000
  Zn  Zn34      1.0  0.84061  0.35135  0.99325  1.0000
  Zn  Zn35      1.0  0.51074  0.15939  0.99325  1.0000
  Zn  Zn36      1.0  0.64865  0.48926  0.99325  1.0000
  Zn  Zn37      1.0  0.59076  0.92410  0.41670  1.0000
  Zn  Zn38      1.0  0.07590  0.66666  0.41670  1.0000
  Zn  Zn39      1.0  0.33334  0.40924  0.41670  1.0000
  Zn  Zn40      1.0  0.66666  0.07590  0.08330  1.0000
  Zn  Zn41      1.0  0.40924  0.33334  0.08330  1.0000
  Zn  Zn42      1.0  0.92410  0.59076  0.08330  1.0000
  Zn  Zn43      1.0  0.25743  0.25743  0.75003  1.0000
  Zn  Zn44      1.0  0.74257  0.99999  0.75003  1.0000
  Zn  Zn45      1.0  0.00001  0.74257  0.75003  1.0000
  Zn  Zn46      1.0  0.40924  0.07590  0.58330  1.0000
  Zn  Zn47      1.0  0.92410  0.33334  0.58330  1.0000
  Zn  Zn48      1.0  0.66666  0.59076  0.58330  1.0000
  Zn  Zn49      1.0  0.33334  0.92410  0.91670  1.0000
  Zn  Zn50      1.0  0.59076  0.66666  0.91670  1.0000
  Zn  Zn51      1.0  0.07590  0.40924  0.91670  1.0000
  Zn  Zn52      1.0  0.74257  0.74257  0.24997  1.0000
  Zn  Zn53      1.0  0.25743  0.00001  0.24997  1.0000
  Zn  Zn54      1.0  0.99999  0.25743  0.24997  1.0000
  C   C1        1.0  0.53481  0.78678  0.45820  1.0000
  C   C2        1.0  0.21322  0.74803  0.45820  1.0000
  C   C3        1.0  0.25197  0.46519  0.45820  1.0000
  C   C4        1.0  0.74803  0.21322  0.04180  1.0000
  C   C5        1.0  0.46519  0.25197  0.04180  1.0000
  C   C6        1.0  0.78678  0.53481  0.04180  1.0000
  C   C7        1.0  0.20148  0.12011  0.79153  1.0000
  C   C8        1.0  0.87989  0.08136  0.79153  1.0000
  C   C9        1.0  0.91864  0.79852  0.79153  1.0000
  C   C10       1.0  0.41470  0.54655  0.37513  1.0000
  C   C11       1.0  0.13186  0.58530  0.37513  1.0000
  C   C12       1.0  0.45345  0.86814  0.37513  1.0000
  C   C13       1.0  0.86814  0.45345  0.12487  1.0000
  C   C14       1.0  0.54655  0.41470  0.12487  1.0000
  C   C15       1.0  0.58530  0.13186  0.12487  1.0000
  C   C16       1.0  0.08136  0.87989  0.70847  1.0000
  C   C17       1.0  0.79852  0.91864  0.70847  1.0000
  C   C18       1.0  0.12011  0.20148  0.70847  1.0000
  C   C19       1.0  0.46519  0.21322  0.54180  1.0000
  C   C20       1.0  0.78678  0.25197  0.54180  1.0000
  C   C21       1.0  0.74803  0.53481  0.54180  1.0000
  C   C22       1.0  0.25197  0.78678  0.95820  1.0000
  C   C23       1.0  0.53481  0.74803  0.95820  1.0000
  C   C24       1.0  0.21322  0.46519  0.95820  1.0000
  C   C25       1.0  0.79852  0.87989  0.20847  1.0000
  C   C26       1.0  0.12011  0.91864  0.20847  1.0000
  C   C27       1.0  0.08136  0.20148  0.20847  1.0000
  C   C28       1.0  0.58530  0.45345  0.62487  1.0000
  C   C29       1.0  0.86814  0.41470  0.62487  1.0000
  C   C30       1.0  0.54655  0.13186  0.62487  1.0000
  C   C31       1.0  0.13186  0.54655  0.87513  1.0000
  C   C32       1.0  0.45345  0.58530  0.87513  1.0000
  C   C33       1.0  0.41470  0.86814  0.87513  1.0000
  C   C34       1.0  0.91864  0.12011  0.29153  1.0000
  C   C35       1.0  0.20148  0.08136  0.29153  1.0000
  C   C36       1.0  0.87989  0.79852  0.29153  1.0000
  H   H1        1.0  0.53960  0.78510  0.40670  1.0000
  H   H2        1.0  0.21490  0.75450  0.40670  1.0000
  H   H3        1.0  0.24550  0.46040  0.40670  1.0000
  H   H4        1.0  0.75450  0.21490  0.09330  1.0000
  H   H5        1.0  0.46040  0.24550  0.09330  1.0000
  H   H6        1.0  0.78510  0.53960  0.09330  1.0000
  H   H7        1.0  0.20627  0.11843  0.74003  1.0000
  H   H8        1.0  0.88157  0.08783  0.74003  1.0000
  H   H9        1.0  0.91217  0.79373  0.74003  1.0000
  H   H10       1.0  0.42117  0.54823  0.42663  1.0000
  H   H11       1.0  0.12707  0.57883  0.42663  1.0000
  H   H12       1.0  0.45177  0.87293  0.42663  1.0000
  H   H13       1.0  0.87293  0.45177  0.07337  1.0000
  H   H14       1.0  0.54823  0.42117  0.07337  1.0000
  H   H15       1.0  0.57883  0.12707  0.07337  1.0000
  H   H16       1.0  0.08783  0.88157  0.75997  1.0000
  H   H17       1.0  0.79373  0.91217  0.75997  1.0000
  H   H18       1.0  0.11843  0.20627  0.75997  1.0000
  H   H19       1.0  0.46040  0.21490  0.59330  1.0000
  H   H20       1.0  0.78510  0.24550  0.59330  1.0000
  H   H21       1.0  0.75450  0.53960  0.59330  1.0000
  H   H22       1.0  0.24550  0.78510  0.90670  1.0000
  H   H23       1.0  0.53960  0.75450  0.90670  1.0000
  H   H24       1.0  0.21490  0.46040  0.90670  1.0000
  H   H25       1.0  0.79373  0.88157  0.25997  1.0000
  H   H26       1.0  0.11843  0.91217  0.25997  1.0000
  H   H27       1.0  0.08783  0.20627  0.25997  1.0000
  H   H28       1.0  0.57883  0.45177  0.57337  1.0000
  H   H29       1.0  0.87293  0.42117  0.57337  1.0000
  H   H30       1.0  0.54823  0.12707  0.57337  1.0000
  H   H31       1.0  0.12707  0.54823  0.92663  1.0000
  H   H32       1.0  0.45177  0.57883  0.92663  1.0000
  H   H33       1.0  0.42117  0.87293  0.92663  1.0000
  H   H34       1.0  0.91217  0.11843  0.24003  1.0000
  H   H35       1.0  0.20627  0.08783  0.24003  1.0000
  H   H36       1.0  0.88157  0.79373  0.24003  1.0000
  C   C37       1.0  0.51637  0.75625  0.50220  1.0000
  C   C38       1.0  0.24375  0.76012  0.50220  1.0000
  C   C39       1.0  0.23988  0.48363  0.50220  1.0000
  C   C40       1.0  0.76012  0.24375  0.99780  1.0000
  C   C41       1.0  0.48363  0.23988  0.99780  1.0000
  C   C42       1.0  0.75625  0.51637  0.99780  1.0000
  C   C43       1.0  0.18304  0.08958  0.83553  1.0000
  C   C44       1.0  0.91042  0.09345  0.83553  1.0000
  C   C45       1.0  0.90655  0.81696  0.83553  1.0000
  C   C46       1.0  0.42679  0.57708  0.33113  1.0000
  C   C47       1.0  0.15030  0.57321  0.33113  1.0000
  C   C48       1.0  0.42292  0.84970  0.33113  1.0000
  C   C49       1.0  0.84970  0.42292  0.16887  1.0000
  C   C50       1.0  0.57708  0.42679  0.16887  1.0000
  C   C51       1.0  0.57321  0.15030  0.16887  1.0000
  C   C52       1.0  0.09345  0.91042  0.66447  1.0000
  C   C53       1.0  0.81696  0.90655  0.66447  1.0000
  C   C54       1.0  0.08958  0.18304  0.66447  1.0000
  C   C55       1.0  0.48363  0.24375  0.49780  1.0000
  C   C56       1.0  0.75625  0.23988  0.49780  1.0000
  C   C57       1.0  0.76012  0.51637  0.49780  1.0000
  C   C58       1.0  0.23988  0.75625  0.00220  1.0000
  C   C59       1.0  0.51637  0.76012  0.00220  1.0000
  C   C60       1.0  0.24375  0.48363  0.00220  1.0000
  C   C61       1.0  0.81696  0.91042  0.16447  1.0000
  C   C62       1.0  0.08958  0.90655  0.16447  1.0000
  C   C63       1.0  0.09345  0.18304  0.16447  1.0000
  C   C64       1.0  0.57321  0.42292  0.66887  1.0000
  C   C65       1.0  0.84970  0.42679  0.66887  1.0000
  C   C66       1.0  0.57708  0.15030  0.66887  1.0000
  C   C67       1.0  0.15030  0.57708  0.83113  1.0000
  C   C68       1.0  0.42292  0.57321  0.83113  1.0000
  C   C69       1.0  0.42679  0.84970  0.83113  1.0000
  C   C70       1.0  0.90655  0.08958  0.33553  1.0000
  C   C71       1.0  0.18304  0.09345  0.33553  1.0000
  C   C72       1.0  0.91042  0.81696  0.33553  1.0000
  C   C73       1.0  0.71854  0.97831  0.30030  1.0000
  C   C74       1.0  0.02169  0.74023  0.30030  1.0000
  C   C75       1.0  0.25977  0.28146  0.30030  1.0000
  C   C76       1.0  0.74023  0.02169  0.19970  1.0000
  C   C77       1.0  0.28146  0.25977  0.19970  1.0000
  C   C78       1.0  0.97831  0.71854  0.19970  1.0000
  C   C79       1.0  0.38521  0.31164  0.63363  1.0000
  C   C80       1.0  0.68836  0.07356  0.63363  1.0000
  C   C81       1.0  0.92644  0.61479  0.63363  1.0000
  C   C82       1.0  0.40690  0.35502  0.53303  1.0000
  C   C83       1.0  0.94813  0.59310  0.53303  1.0000
  C   C84       1.0  0.64498  0.05187  0.53303  1.0000
  C   C85       1.0  0.05187  0.64498  0.96697  1.0000
  C   C86       1.0  0.35502  0.40690  0.96697  1.0000
  C   C87       1.0  0.59310  0.94813  0.96697  1.0000
  C   C88       1.0  0.07356  0.68836  0.86637  1.0000
  C   C89       1.0  0.61479  0.92644  0.86637  1.0000
  C   C90       1.0  0.31164  0.38521  0.86637  1.0000
  C   C91       1.0  0.28146  0.02169  0.69970  1.0000
  C   C92       1.0  0.97831  0.25977  0.69970  1.0000
  C   C93       1.0  0.74023  0.71854  0.69970  1.0000
  C   C94       1.0  0.25977  0.97831  0.80030  1.0000
  C   C95       1.0  0.71854  0.74023  0.80030  1.0000
  C   C96       1.0  0.02169  0.28146  0.80030  1.0000
  C   C97       1.0  0.61479  0.68836  0.36637  1.0000
  C   C98       1.0  0.31164  0.92644  0.36637  1.0000
  C   C99       1.0  0.07356  0.38521  0.36637  1.0000
  C   C100      1.0  0.59310  0.64498  0.46697  1.0000
  C   C101      1.0  0.05187  0.40690  0.46697  1.0000
  C   C102      1.0  0.35502  0.94813  0.46697  1.0000
  C   C103      1.0  0.94813  0.35502  0.03303  1.0000
  C   C104      1.0  0.64498  0.59310  0.03303  1.0000
  C   C105      1.0  0.40690  0.05187  0.03303  1.0000
  C   C106      1.0  0.92644  0.31164  0.13363  1.0000
  C   C107      1.0  0.38521  0.07356  0.13363  1.0000
  C   C108      1.0  0.68836  0.61479  0.13363  1.0000
  H   H37       1.0  0.72220  0.96430  0.33490  1.0000
  H   H38       1.0  0.03570  0.75790  0.33490  1.0000
  H   H39       1.0  0.24210  0.27780  0.33490  1.0000
  H   H40       1.0  0.75790  0.03570  0.16510  1.0000
  H   H41       1.0  0.27780  0.24210  0.16510  1.0000
  H   H42       1.0  0.96430  0.72220  0.16510  1.0000
  H   H43       1.0  0.38887  0.29763  0.66823  1.0000
  H   H44       1.0  0.70237  0.09123  0.66823  1.0000
  H   H45       1.0  0.90877  0.61113  0.66823  1.0000
  H   H46       1.0  0.42457  0.36903  0.49843  1.0000
  H   H47       1.0  0.94447  0.57543  0.49843  1.0000
  H   H48       1.0  0.63097  0.05553  0.49843  1.0000
  H   H49       1.0  0.05553  0.63097  0.00157  1.0000
  H   H50       1.0  0.36903  0.42457  0.00157  1.0000
  H   H51       1.0  0.57543  0.94447  0.00157  1.0000
  H   H52       1.0  0.09123  0.70237  0.83177  1.0000
  H   H53       1.0  0.61113  0.90877  0.83177  1.0000
  H   H54       1.0  0.29763  0.38887  0.83177  1.0000
  H   H55       1.0  0.27780  0.03570  0.66510  1.0000
  H   H56       1.0  0.96430  0.24210  0.66510  1.0000
  H   H57       1.0  0.75790  0.72220  0.66510  1.0000
  H   H58       1.0  0.24210  0.96430  0.83490  1.0000
  H   H59       1.0  0.72220  0.75790  0.83490  1.0000
  H   H60       1.0  0.03570  0.27780  0.83490  1.0000
  H   H61       1.0  0.61113  0.70237  0.33177  1.0000
  H   H62       1.0  0.29763  0.90877  0.33177  1.0000
  H   H63       1.0  0.09123  0.38887  0.33177  1.0000
  H   H64       1.0  0.57543  0.63097  0.50157  1.0000
  H   H65       1.0  0.05553  0.42457  0.50157  1.0000
  H   H66       1.0  0.36903  0.94447  0.50157  1.0000
  H   H67       1.0  0.94447  0.36903  0.99843  1.0000
  H   H68       1.0  0.63097  0.57543  0.99843  1.0000
  H   H69       1.0  0.42457  0.05553  0.99843  1.0000
  H   H70       1.0  0.90877  0.29763  0.16823  1.0000
  H   H71       1.0  0.38887  0.09123  0.16823  1.0000
  H   H72       1.0  0.70237  0.61113  0.16823  1.0000
  C   C109      1.0  0.56588  0.85250  0.44290  1.0000
  C   C110      1.0  0.14750  0.71338  0.44290  1.0000
  C   C111      1.0  0.28662  0.43412  0.44290  1.0000
  C   C112      1.0  0.71338  0.14750  0.05710  1.0000
  C   C113      1.0  0.43412  0.28662  0.05710  1.0000
  C   C114      1.0  0.85250  0.56588  0.05710  1.0000
  C   C115      1.0  0.23255  0.18583  0.77623  1.0000
  C   C116      1.0  0.81417  0.04671  0.77623  1.0000
  C   C117      1.0  0.95329  0.76745  0.77623  1.0000
  C   C118      1.0  0.38005  0.48083  0.39043  1.0000
  C   C119      1.0  0.10079  0.61995  0.39043  1.0000
  C   C120      1.0  0.51917  0.89921  0.39043  1.0000
  C   C121      1.0  0.89921  0.51917  0.10957  1.0000
  C   C122      1.0  0.48083  0.38005  0.10957  1.0000
  C   C123      1.0  0.61995  0.10079  0.10957  1.0000
  C   C124      1.0  0.04671  0.81417  0.72377  1.0000
  C   C125      1.0  0.76745  0.95329  0.72377  1.0000
  C   C126      1.0  0.18583  0.23255  0.72377  1.0000
  C   C127      1.0  0.43412  0.14750  0.55710  1.0000
  C   C128      1.0  0.85250  0.28662  0.55710  1.0000
  C   C129      1.0  0.71338  0.56588  0.55710  1.0000
  C   C130      1.0  0.28662  0.85250  0.94290  1.0000
  C   C131      1.0  0.56588  0.71338  0.94290  1.0000
  C   C132      1.0  0.14750  0.43412  0.94290  1.0000
  C   C133      1.0  0.76745  0.81417  0.22377  1.0000
  C   C134      1.0  0.18583  0.95329  0.22377  1.0000
  C   C135      1.0  0.04671  0.23255  0.22377  1.0000
  C   C136      1.0  0.61995  0.51917  0.60957  1.0000
  C   C137      1.0  0.89921  0.38005  0.60957  1.0000
  C   C138      1.0  0.48083  0.10079  0.60957  1.0000
  C   C139      1.0  0.10079  0.48083  0.89043  1.0000
  C   C140      1.0  0.51917  0.61995  0.89043  1.0000
  C   C141      1.0  0.38005  0.89921  0.89043  1.0000
  C   C142      1.0  0.95329  0.18583  0.27623  1.0000
  C   C143      1.0  0.23255  0.04671  0.27623  1.0000
  C   C144      1.0  0.81417  0.76745  0.27623  1.0000
  C   C145      1.0  0.51867  0.79197  0.61000  1.0000
  C   C146      1.0  0.20803  0.72670  0.61000  1.0000
  C   C147      1.0  0.27330  0.48133  0.61000  1.0000
  C   C148      1.0  0.72670  0.20803  0.89000  1.0000
  C   C149      1.0  0.48133  0.27330  0.89000  1.0000
  C   C150      1.0  0.79197  0.51867  0.89000  1.0000
  C   C151      1.0  0.18534  0.12530  0.94333  1.0000
  C   C152      1.0  0.87470  0.06003  0.94333  1.0000
  C   C153      1.0  0.93997  0.81466  0.94333  1.0000
  C   C154      1.0  0.39337  0.54136  0.22333  1.0000
  C   C155      1.0  0.14800  0.60663  0.22333  1.0000
  C   C156      1.0  0.45864  0.85200  0.22333  1.0000
  C   C157      1.0  0.85200  0.45864  0.27667  1.0000
  C   C158      1.0  0.54136  0.39337  0.27667  1.0000
  C   C159      1.0  0.60663  0.14800  0.27667  1.0000
  C   C160      1.0  0.06003  0.87470  0.55667  1.0000
  C   C161      1.0  0.81466  0.93997  0.55667  1.0000
  C   C162      1.0  0.12530  0.18534  0.55667  1.0000
  C   C163      1.0  0.48133  0.20803  0.39000  1.0000
  C   C164      1.0  0.79197  0.27330  0.39000  1.0000
  C   C165      1.0  0.72670  0.51867  0.39000  1.0000
  C   C166      1.0  0.27330  0.79197  0.11000  1.0000
  C   C167      1.0  0.51867  0.72670  0.11000  1.0000
  C   C168      1.0  0.20803  0.48133  0.11000  1.0000
  C   C169      1.0  0.81466  0.87470  0.05667  1.0000
  C   C170      1.0  0.12530  0.93997  0.05667  1.0000
  C   C171      1.0  0.06003  0.18534  0.05667  1.0000
  C   C172      1.0  0.60663  0.45864  0.77667  1.0000
  C   C173      1.0  0.85200  0.39337  0.77667  1.0000
  C   C174      1.0  0.54136  0.14800  0.77667  1.0000
  C   C175      1.0  0.14800  0.54136  0.72333  1.0000
  C   C176      1.0  0.45864  0.60663  0.72333  1.0000
  C   C177      1.0  0.39337  0.85200  0.72333  1.0000
  C   C178      1.0  0.93997  0.12530  0.44333  1.0000
  C   C179      1.0  0.18534  0.06003  0.44333  1.0000
  C   C180      1.0  0.87470  0.81466  0.44333  1.0000
  C   C181      1.0  0.68604  0.97732  0.29930  1.0000
  C   C182      1.0  0.02268  0.70872  0.29930  1.0000
  C   C183      1.0  0.29128  0.31396  0.29930  1.0000
  C   C184      1.0  0.70872  0.02268  0.20070  1.0000
  C   C185      1.0  0.31396  0.29128  0.20070  1.0000
  C   C186      1.0  0.97732  0.68604  0.20070  1.0000
  C   C187      1.0  0.35271  0.31065  0.63263  1.0000
  C   C188      1.0  0.68935  0.04205  0.63263  1.0000
  C   C189      1.0  0.95795  0.64729  0.63263  1.0000
  C   C190      1.0  0.37539  0.35601  0.53403  1.0000
  C   C191      1.0  0.98063  0.62461  0.53403  1.0000
  C   C192      1.0  0.64399  0.01937  0.53403  1.0000
  C   C193      1.0  0.01937  0.64399  0.96597  1.0000
  C   C194      1.0  0.35601  0.37539  0.96597  1.0000
  C   C195      1.0  0.62461  0.98063  0.96597  1.0000
  C   C196      1.0  0.04205  0.68935  0.86737  1.0000
  C   C197      1.0  0.64729  0.95795  0.86737  1.0000
  C   C198      1.0  0.31065  0.35271  0.86737  1.0000
  C   C199      1.0  0.31396  0.02268  0.70070  1.0000
  C   C200      1.0  0.97732  0.29128  0.70070  1.0000
  C   C201      1.0  0.70872  0.68604  0.70070  1.0000
  C   C202      1.0  0.29128  0.97732  0.79930  1.0000
  C   C203      1.0  0.68604  0.70872  0.79930  1.0000
  C   C204      1.0  0.02268  0.31396  0.79930  1.0000
  C   C205      1.0  0.64729  0.68935  0.36737  1.0000
  C   C206      1.0  0.31065  0.95795  0.36737  1.0000
  C   C207      1.0  0.04205  0.35271  0.36737  1.0000
  C   C208      1.0  0.62461  0.64399  0.46597  1.0000
  C   C209      1.0  0.01937  0.37539  0.46597  1.0000
  C   C210      1.0  0.35601  0.98063  0.46597  1.0000
  C   C211      1.0  0.98063  0.35601  0.03403  1.0000
  C   C212      1.0  0.64399  0.62461  0.03403  1.0000
  C   C213      1.0  0.37539  0.01937  0.03403  1.0000
  C   C214      1.0  0.95795  0.31065  0.13263  1.0000
  C   C215      1.0  0.35271  0.04205  0.13263  1.0000
  C   C216      1.0  0.68935  0.64729  0.13263  1.0000
  C   C217      1.0  0.50793  0.75888  0.57820  1.0000
  C   C218      1.0  0.24112  0.74905  0.57820  1.0000
  C   C219      1.0  0.25095  0.49207  0.57820  1.0000
  C   C220      1.0  0.74905  0.24112  0.92180  1.0000
  C   C221      1.0  0.49207  0.25095  0.92180  1.0000
  C   C222      1.0  0.75888  0.50793  0.92180  1.0000
  C   C223      1.0  0.17460  0.09221  0.91153  1.0000
  C   C224      1.0  0.90779  0.08238  0.91153  1.0000
  C   C225      1.0  0.91762  0.82540  0.91153  1.0000
  C   C226      1.0  0.41572  0.57445  0.25513  1.0000
  C   C227      1.0  0.15874  0.58428  0.25513  1.0000
  C   C228      1.0  0.42555  0.84126  0.25513  1.0000
  C   C229      1.0  0.84126  0.42555  0.24487  1.0000
  C   C230      1.0  0.57445  0.41572  0.24487  1.0000
  C   C231      1.0  0.58428  0.15874  0.24487  1.0000
  C   C232      1.0  0.08238  0.90779  0.58847  1.0000
  C   C233      1.0  0.82540  0.91762  0.58847  1.0000
  C   C234      1.0  0.09221  0.17460  0.58847  1.0000
  C   C235      1.0  0.49207  0.24112  0.42180  1.0000
  C   C236      1.0  0.75888  0.25095  0.42180  1.0000
  C   C237      1.0  0.74905  0.50793  0.42180  1.0000
  C   C238      1.0  0.25095  0.75888  0.07820  1.0000
  C   C239      1.0  0.50793  0.74905  0.07820  1.0000
  C   C240      1.0  0.24112  0.49207  0.07820  1.0000
  C   C241      1.0  0.82540  0.90779  0.08847  1.0000
  C   C242      1.0  0.09221  0.91762  0.08847  1.0000
  C   C243      1.0  0.08238  0.17460  0.08847  1.0000
  C   C244      1.0  0.58428  0.42555  0.74487  1.0000
  C   C245      1.0  0.84126  0.41572  0.74487  1.0000
  C   C246      1.0  0.57445  0.15874  0.74487  1.0000
  C   C247      1.0  0.15874  0.57445  0.75513  1.0000
  C   C248      1.0  0.42555  0.58428  0.75513  1.0000
  C   C249      1.0  0.41572  0.84126  0.75513  1.0000
  C   C250      1.0  0.91762  0.09221  0.41153  1.0000
  C   C251      1.0  0.17460  0.08238  0.41153  1.0000
  C   C252      1.0  0.90779  0.82540  0.41153  1.0000
  H   H73       1.0  0.49510  0.73860  0.60770  1.0000
  H   H74       1.0  0.26140  0.75650  0.60770  1.0000
  H   H75       1.0  0.24350  0.50490  0.60770  1.0000
  H   H76       1.0  0.75650  0.26140  0.89230  1.0000
  H   H77       1.0  0.50490  0.24350  0.89230  1.0000
  H   H78       1.0  0.73860  0.49510  0.89230  1.0000
  H   H79       1.0  0.16177  0.07193  0.94103  1.0000
  H   H80       1.0  0.92807  0.08983  0.94103  1.0000
  H   H81       1.0  0.91017  0.83823  0.94103  1.0000
  H   H82       1.0  0.42317  0.59473  0.22563  1.0000
  H   H83       1.0  0.17157  0.57683  0.22563  1.0000
  H   H84       1.0  0.40527  0.82843  0.22563  1.0000
  H   H85       1.0  0.82843  0.40527  0.27437  1.0000
  H   H86       1.0  0.59473  0.42317  0.27437  1.0000
  H   H87       1.0  0.57683  0.17157  0.27437  1.0000
  H   H88       1.0  0.08983  0.92807  0.55897  1.0000
  H   H89       1.0  0.83823  0.91017  0.55897  1.0000
  H   H90       1.0  0.07193  0.16177  0.55897  1.0000
  H   H91       1.0  0.50490  0.26140  0.39230  1.0000
  H   H92       1.0  0.73860  0.24350  0.39230  1.0000
  H   H93       1.0  0.75650  0.49510  0.39230  1.0000
  H   H94       1.0  0.24350  0.73860  0.10770  1.0000
  H   H95       1.0  0.49510  0.75650  0.10770  1.0000
  H   H96       1.0  0.26140  0.50490  0.10770  1.0000
  H   H97       1.0  0.83823  0.92807  0.05897  1.0000
  H   H98       1.0  0.07193  0.91017  0.05897  1.0000
  H   H99       1.0  0.08983  0.16177  0.05897  1.0000
  H   H100      1.0  0.57683  0.40527  0.77437  1.0000
  H   H101      1.0  0.82843  0.42317  0.77437  1.0000
  H   H102      1.0  0.59473  0.17157  0.77437  1.0000
  H   H103      1.0  0.17157  0.59473  0.72563  1.0000
  H   H104      1.0  0.40527  0.57683  0.72563  1.0000
  H   H105      1.0  0.42317  0.82843  0.72563  1.0000
  H   H106      1.0  0.91017  0.07193  0.44103  1.0000
  H   H107      1.0  0.16177  0.08983  0.44103  1.0000
  H   H108      1.0  0.92807  0.83823  0.44103  1.0000
  C   C253      1.0  0.53802  0.82168  0.56670  1.0000
  C   C254      1.0  0.17832  0.71634  0.56670  1.0000
  C   C255      1.0  0.28366  0.46198  0.56670  1.0000
  C   C256      1.0  0.71634  0.17832  0.93330  1.0000
  C   C257      1.0  0.46198  0.28366  0.93330  1.0000
  C   C258      1.0  0.82168  0.53802  0.93330  1.0000
  C   C259      1.0  0.20469  0.15501  0.90003  1.0000
  C   C260      1.0  0.84499  0.04967  0.90003  1.0000
  C   C261      1.0  0.95033  0.79531  0.90003  1.0000
  C   C262      1.0  0.38301  0.51165  0.26663  1.0000
  C   C263      1.0  0.12865  0.61699  0.26663  1.0000
  C   C264      1.0  0.48835  0.87135  0.26663  1.0000
  C   C265      1.0  0.87135  0.48835  0.23337  1.0000
  C   C266      1.0  0.51165  0.38301  0.23337  1.0000
  C   C267      1.0  0.61699  0.12865  0.23337  1.0000
  C   C268      1.0  0.04967  0.84499  0.59997  1.0000
  C   C269      1.0  0.79531  0.95033  0.59997  1.0000
  C   C270      1.0  0.15501  0.20469  0.59997  1.0000
  C   C271      1.0  0.46198  0.17832  0.43330  1.0000
  C   C272      1.0  0.82168  0.28366  0.43330  1.0000
  C   C273      1.0  0.71634  0.53802  0.43330  1.0000
  C   C274      1.0  0.28366  0.82168  0.06670  1.0000
  C   C275      1.0  0.53802  0.71634  0.06670  1.0000
  C   C276      1.0  0.17832  0.46198  0.06670  1.0000
  C   C277      1.0  0.79531  0.84499  0.09997  1.0000
  C   C278      1.0  0.15501  0.95033  0.09997  1.0000
  C   C279      1.0  0.04967  0.20469  0.09997  1.0000
  C   C280      1.0  0.61699  0.48835  0.73337  1.0000
  C   C281      1.0  0.87135  0.38301  0.73337  1.0000
  C   C282      1.0  0.51165  0.12865  0.73337  1.0000
  C   C283      1.0  0.12865  0.51165  0.76663  1.0000
  C   C284      1.0  0.48835  0.61699  0.76663  1.0000
  C   C285      1.0  0.38301  0.87135  0.76663  1.0000
  C   C286      1.0  0.95033  0.15501  0.40003  1.0000
  C   C287      1.0  0.20469  0.04967  0.40003  1.0000
  C   C288      1.0  0.84499  0.79531  0.40003  1.0000
  H   H109      1.0  0.54590  0.84380  0.58900  1.0000
  H   H110      1.0  0.15620  0.70210  0.58900  1.0000
  H   H111      1.0  0.29790  0.45410  0.58900  1.0000
  H   H112      1.0  0.70210  0.15620  0.91100  1.0000
  H   H113      1.0  0.45410  0.29790  0.91100  1.0000
  H   H114      1.0  0.84380  0.54590  0.91100  1.0000
  H   H115      1.0  0.21257  0.17713  0.92233  1.0000
  H   H116      1.0  0.82287  0.03543  0.92233  1.0000
  H   H117      1.0  0.96457  0.78743  0.92233  1.0000
  H   H118      1.0  0.36877  0.48953  0.24433  1.0000
  H   H119      1.0  0.12077  0.63123  0.24433  1.0000
  H   H120      1.0  0.51047  0.87923  0.24433  1.0000
  H   H121      1.0  0.87923  0.51047  0.25567  1.0000
  H   H122      1.0  0.48953  0.36877  0.25567  1.0000
  H   H123      1.0  0.63123  0.12077  0.25567  1.0000
  H   H124      1.0  0.03543  0.82287  0.57767  1.0000
  H   H125      1.0  0.78743  0.96457  0.57767  1.0000
  H   H126      1.0  0.17713  0.21257  0.57767  1.0000
  H   H127      1.0  0.45410  0.15620  0.41100  1.0000
  H   H128      1.0  0.84380  0.29790  0.41100  1.0000
  H   H129      1.0  0.70210  0.54590  0.41100  1.0000
  H   H130      1.0  0.29790  0.84380  0.08900  1.0000
  H   H131      1.0  0.54590  0.70210  0.08900  1.0000
  H   H132      1.0  0.15620  0.45410  0.08900  1.0000
  H   H133      1.0  0.78743  0.82287  0.07767  1.0000
  H   H134      1.0  0.17713  0.96457  0.07767  1.0000
  H   H135      1.0  0.03543  0.21257  0.07767  1.0000
  H   H136      1.0  0.63123  0.51047  0.75567  1.0000
  H   H137      1.0  0.87923  0.36877  0.75567  1.0000
  H   H138      1.0  0.48953  0.12077  0.75567  1.0000
  H   H139      1.0  0.12077  0.48953  0.74433  1.0000
  H   H140      1.0  0.51047  0.63123  0.74433  1.0000
  H   H141      1.0  0.36877  0.87923  0.74433  1.0000
  H   H142      1.0  0.96457  0.17713  0.42233  1.0000
  H   H143      1.0  0.21257  0.03543  0.42233  1.0000
  H   H144      1.0  0.82287  0.78743  0.42233  1.0000
  C   C289      1.0  0.54615  0.81972  0.49050  1.0000
  C   C290      1.0  0.18028  0.72643  0.49050  1.0000
  C   C291      1.0  0.27357  0.45385  0.49050  1.0000
  C   C292      1.0  0.72643  0.18028  0.00950  1.0000
  C   C293      1.0  0.45385  0.27357  0.00950  1.0000
  C   C294      1.0  0.81972  0.54615  0.00950  1.0000
  C   C295      1.0  0.21282  0.15305  0.82383  1.0000
  C   C296      1.0  0.84695  0.05976  0.82383  1.0000
  C   C297      1.0  0.94024  0.78718  0.82383  1.0000
  C   C298      1.0  0.39310  0.51361  0.34283  1.0000
  C   C299      1.0  0.12052  0.60690  0.34283  1.0000
  C   C300      1.0  0.48639  0.87948  0.34283  1.0000
  C   C301      1.0  0.87948  0.48639  0.15717  1.0000
  C   C302      1.0  0.51361  0.39310  0.15717  1.0000
  C   C303      1.0  0.60690  0.12052  0.15717  1.0000
  C   C304      1.0  0.05976  0.84695  0.67617  1.0000
  C   C305      1.0  0.78718  0.94024  0.67617  1.0000
  C   C306      1.0  0.15305  0.21282  0.67617  1.0000
  C   C307      1.0  0.45385  0.18028  0.50950  1.0000
  C   C308      1.0  0.81972  0.27357  0.50950  1.0000
  C   C309      1.0  0.72643  0.54615  0.50950  1.0000
  C   C310      1.0  0.27357  0.81972  0.99050  1.0000
  C   C311      1.0  0.54615  0.72643  0.99050  1.0000
  C   C312      1.0  0.18028  0.45385  0.99050  1.0000
  C   C313      1.0  0.78718  0.84695  0.17617  1.0000
  C   C314      1.0  0.15305  0.94024  0.17617  1.0000
  C   C315      1.0  0.05976  0.21282  0.17617  1.0000
  C   C316      1.0  0.60690  0.48639  0.65717  1.0000
  C   C317      1.0  0.87948  0.39310  0.65717  1.0000
  C   C318      1.0  0.51361  0.12052  0.65717  1.0000
  C   C319      1.0  0.12052  0.51361  0.84283  1.0000
  C   C320      1.0  0.48639  0.60690  0.84283  1.0000
  C   C321      1.0  0.39310  0.87948  0.84283  1.0000
  C   C322      1.0  0.94024  0.15305  0.32383  1.0000
  C   C323      1.0  0.21282  0.05976  0.32383  1.0000
  C   C324      1.0  0.84695  0.78718  0.32383  1.0000
  C   C325      1.0  0.77920  0.99997  0.25000  1.0000
  C   C326      1.0  0.00003  0.77923  0.25000  1.0000
  C   C327      1.0  0.22077  0.22080  0.25000  1.0000
  C   C328      1.0  0.44587  0.33330  0.58333  1.0000
  C   C329      1.0  0.66670  0.11256  0.58333  1.0000
  C   C330      1.0  0.88744  0.55413  0.58333  1.0000
  C   C331      1.0  0.11253  0.66664  0.91667  1.0000
  C   C332      1.0  0.33336  0.44590  0.91667  1.0000
  C   C333      1.0  0.55410  0.88747  0.91667  1.0000
  C   C334      1.0  0.22080  0.00003  0.75000  1.0000
  C   C335      1.0  0.99997  0.22077  0.75000  1.0000
  C   C336      1.0  0.77923  0.77920  0.75000  1.0000
  C   C337      1.0  0.55413  0.66670  0.41667  1.0000
  C   C338      1.0  0.33330  0.88744  0.41667  1.0000
  C   C339      1.0  0.11256  0.44587  0.41667  1.0000
  C   C340      1.0  0.88747  0.33336  0.08333  1.0000
  C   C341      1.0  0.66664  0.55410  0.08333  1.0000
  C   C342      1.0  0.44590  0.11253  0.08333  1.0000
  C   C343      1.0  0.74510  0.99997  0.25000  1.0000
  C   C344      1.0  0.00003  0.74513  0.25000  1.0000
  C   C345      1.0  0.25487  0.25490  0.25000  1.0000
  C   C346      1.0  0.41177  0.33330  0.58333  1.0000
  C   C347      1.0  0.66670  0.07846  0.58333  1.0000
  C   C348      1.0  0.92154  0.58823  0.58333  1.0000
  C   C349      1.0  0.07843  0.66664  0.91667  1.0000
  C   C350      1.0  0.33336  0.41180  0.91667  1.0000
  C   C351      1.0  0.58820  0.92157  0.91667  1.0000
  C   C352      1.0  0.25490  0.00003  0.75000  1.0000
  C   C353      1.0  0.99997  0.25487  0.75000  1.0000
  C   C354      1.0  0.74513  0.74510  0.75000  1.0000
  C   C355      1.0  0.58823  0.66670  0.41667  1.0000
  C   C356      1.0  0.33330  0.92154  0.41667  1.0000
  C   C357      1.0  0.07846  0.41177  0.41667  1.0000
  C   C358      1.0  0.92157  0.33336  0.08333  1.0000
  C   C359      1.0  0.66664  0.58820  0.08333  1.0000
  C   C360      1.0  0.41180  0.07843  0.08333  1.0000
  C   C361      1.0  0.50599  0.72116  0.46800  1.0000
  C   C362      1.0  0.27884  0.78483  0.46800  1.0000
  C   C363      1.0  0.21517  0.49401  0.46800  1.0000
  C   C364      1.0  0.78483  0.27884  0.03200  1.0000
  C   C365      1.0  0.49401  0.21517  0.03200  1.0000
  C   C366      1.0  0.72116  0.50599  0.03200  1.0000
  C   C367      1.0  0.17266  0.05449  0.80133  1.0000
  C   C368      1.0  0.94551  0.11816  0.80133  1.0000
  C   C369      1.0  0.88184  0.82734  0.80133  1.0000
  C   C370      1.0  0.45150  0.61217  0.36533  1.0000
  C   C371      1.0  0.16068  0.54850  0.36533  1.0000
  C   C372      1.0  0.38783  0.83932  0.36533  1.0000
  C   C373      1.0  0.83932  0.38783  0.13467  1.0000
  C   C374      1.0  0.61217  0.45150  0.13467  1.0000
  C   C375      1.0  0.54850  0.16068  0.13467  1.0000
  C   C376      1.0  0.11816  0.94551  0.69867  1.0000
  C   C377      1.0  0.82734  0.88184  0.69867  1.0000
  C   C378      1.0  0.05449  0.17266  0.69867  1.0000
  C   C379      1.0  0.49401  0.27884  0.53200  1.0000
  C   C380      1.0  0.72116  0.21517  0.53200  1.0000
  C   C381      1.0  0.78483  0.50599  0.53200  1.0000
  C   C382      1.0  0.21517  0.72116  0.96800  1.0000
  C   C383      1.0  0.50599  0.78483  0.96800  1.0000
  C   C384      1.0  0.27884  0.49401  0.96800  1.0000
  C   C385      1.0  0.82734  0.94551  0.19867  1.0000
  C   C386      1.0  0.05449  0.88184  0.19867  1.0000
  C   C387      1.0  0.11816  0.17266  0.19867  1.0000
  C   C388      1.0  0.54850  0.38783  0.63467  1.0000
  C   C389      1.0  0.83932  0.45150  0.63467  1.0000
  C   C390      1.0  0.61217  0.16068  0.63467  1.0000
  C   C391      1.0  0.16068  0.61217  0.86533  1.0000
  C   C392      1.0  0.38783  0.54850  0.86533  1.0000
  C   C393      1.0  0.45150  0.83932  0.86533  1.0000
  C   C394      1.0  0.88184  0.05449  0.30133  1.0000
  C   C395      1.0  0.17266  0.11816  0.30133  1.0000
  C   C396      1.0  0.94551  0.82734  0.30133  1.0000
  C   C397      1.0  0.65700  0.95280  0.35210  1.0000
  C   C398      1.0  0.04720  0.70420  0.35210  1.0000
  C   C399      1.0  0.29580  0.34300  0.35210  1.0000
  C   C400      1.0  0.70420  0.04720  0.14790  1.0000
  C   C401      1.0  0.34300  0.29580  0.14790  1.0000
  C   C402      1.0  0.95280  0.65700  0.14790  1.0000
  C   C403      1.0  0.32367  0.28613  0.68543  1.0000
  C   C404      1.0  0.71387  0.03753  0.68543  1.0000
  C   C405      1.0  0.96247  0.67633  0.68543  1.0000
  C   C406      1.0  0.37087  0.38053  0.48123  1.0000
  C   C407      1.0  0.00967  0.62913  0.48123  1.0000
  C   C408      1.0  0.61947  0.99033  0.48123  1.0000
  C   C409      1.0  0.99033  0.61947  0.01877  1.0000
  C   C410      1.0  0.38053  0.37087  0.01877  1.0000
  C   C411      1.0  0.62913  0.00967  0.01877  1.0000
  C   C412      1.0  0.03753  0.71387  0.81457  1.0000
  C   C413      1.0  0.67633  0.96247  0.81457  1.0000
  C   C414      1.0  0.28613  0.32367  0.81457  1.0000
  C   C415      1.0  0.34300  0.04720  0.64790  1.0000
  C   C416      1.0  0.95280  0.29580  0.64790  1.0000
  C   C417      1.0  0.70420  0.65700  0.64790  1.0000
  C   C418      1.0  0.29580  0.95280  0.85210  1.0000
  C   C419      1.0  0.65700  0.70420  0.85210  1.0000
  C   C420      1.0  0.04720  0.34300  0.85210  1.0000
  C   C421      1.0  0.67633  0.71387  0.31457  1.0000
  C   C422      1.0  0.28613  0.96247  0.31457  1.0000
  C   C423      1.0  0.03753  0.32367  0.31457  1.0000
  C   C424      1.0  0.62913  0.61947  0.51877  1.0000
  C   C425      1.0  0.99033  0.37087  0.51877  1.0000
  C   C426      1.0  0.38053  0.00967  0.51877  1.0000
  C   C427      1.0  0.00967  0.38053  0.98123  1.0000
  C   C428      1.0  0.61947  0.62913  0.98123  1.0000
  C   C429      1.0  0.37087  0.99033  0.98123  1.0000
  C   C430      1.0  0.96247  0.28613  0.18543  1.0000
  C   C431      1.0  0.32367  0.03753  0.18543  1.0000
  C   C432      1.0  0.71387  0.67633  0.18543  1.0000
  C   C433      1.0  0.50830  0.79440  0.69180  1.0000
  C   C434      1.0  0.20560  0.71390  0.69180  1.0000
  C   C435      1.0  0.28610  0.49170  0.69180  1.0000
  C   C436      1.0  0.71390  0.20560  0.80820  1.0000
  C   C437      1.0  0.49170  0.28610  0.80820  1.0000
  C   C438      1.0  0.79440  0.50830  0.80820  1.0000
  C   C439      1.0  0.17497  0.12773  0.02513  1.0000
  C   C440      1.0  0.87227  0.04723  0.02513  1.0000
  C   C441      1.0  0.95277  0.82503  0.02513  1.0000
  C   C442      1.0  0.38057  0.53893  0.14153  1.0000
  C   C443      1.0  0.15837  0.61943  0.14153  1.0000
  C   C444      1.0  0.46107  0.84163  0.14153  1.0000
  C   C445      1.0  0.84163  0.46107  0.35847  1.0000
  C   C446      1.0  0.53893  0.38057  0.35847  1.0000
  C   C447      1.0  0.61943  0.15837  0.35847  1.0000
  C   C448      1.0  0.04723  0.87227  0.47487  1.0000
  C   C449      1.0  0.82503  0.95277  0.47487  1.0000
  C   C450      1.0  0.12773  0.17497  0.47487  1.0000
  C   C451      1.0  0.49170  0.20560  0.30820  1.0000
  C   C452      1.0  0.79440  0.28610  0.30820  1.0000
  C   C453      1.0  0.71390  0.50830  0.30820  1.0000
  C   C454      1.0  0.28610  0.79440  0.19180  1.0000
  C   C455      1.0  0.50830  0.71390  0.19180  1.0000
  C   C456      1.0  0.20560  0.49170  0.19180  1.0000
  C   C457      1.0  0.82503  0.87227  0.97487  1.0000
  C   C458      1.0  0.12773  0.95277  0.97487  1.0000
  C   C459      1.0  0.04723  0.17497  0.97487  1.0000
  C   C460      1.0  0.61943  0.46107  0.85847  1.0000
  C   C461      1.0  0.84163  0.38057  0.85847  1.0000
  C   C462      1.0  0.53893  0.15837  0.85847  1.0000
  C   C463      1.0  0.15837  0.53893  0.64153  1.0000
  C   C464      1.0  0.46107  0.61943  0.64153  1.0000
  C   C465      1.0  0.38057  0.84163  0.64153  1.0000
  C   C466      1.0  0.95277  0.12773  0.52513  1.0000
  C   C467      1.0  0.17497  0.04723  0.52513  1.0000
  C   C468      1.0  0.87227  0.82503  0.52513  1.0000
  C   C469      1.0  0.68140  0.00000  0.25000  1.0000
  C   C470      1.0  0.00000  0.68140  0.25000  1.0000
  C   C471      1.0  0.31860  0.31860  0.25000  1.0000
  C   C472      1.0  0.34807  0.33333  0.58333  1.0000
  C   C473      1.0  0.66667  0.01473  0.58333  1.0000
  C   C474      1.0  0.98527  0.65193  0.58333  1.0000
  C   C475      1.0  0.01473  0.66667  0.91667  1.0000
  C   C476      1.0  0.33333  0.34807  0.91667  1.0000
  C   C477      1.0  0.65193  0.98527  0.91667  1.0000
  C   C478      1.0  0.31860  0.00000  0.75000  1.0000
  C   C479      1.0  0.00000  0.31860  0.75000  1.0000
  C   C480      1.0  0.68140  0.68140  0.75000  1.0000
  C   C481      1.0  0.65193  0.66667  0.41667  1.0000
  C   C482      1.0  0.33333  0.98527  0.41667  1.0000
  C   C483      1.0  0.01473  0.34807  0.41667  1.0000
  C   C484      1.0  0.98527  0.33333  0.08333  1.0000
  C   C485      1.0  0.66667  0.65193  0.08333  1.0000
  C   C486      1.0  0.34807  0.01473  0.08333  1.0000
  H   H145      1.0  0.66010  0.00000  0.25000  1.0000
  H   H146      1.0  0.00000  0.66010  0.25000  1.0000
  H   H147      1.0  0.33990  0.33990  0.25000  1.0000
  H   H148      1.0  0.32677  0.33333  0.58333  1.0000
  H   H149      1.0  0.66667  0.99343  0.58333  1.0000
  H   H150      1.0  0.00657  0.67323  0.58333  1.0000
  H   H151      1.0  0.99343  0.66667  0.91667  1.0000
  H   H152      1.0  0.33333  0.32677  0.91667  1.0000
  H   H153      1.0  0.67323  0.00657  0.91667  1.0000
  H   H154      1.0  0.33990  0.00000  0.75000  1.0000
  H   H155      1.0  0.00000  0.33990  0.75000  1.0000
  H   H156      1.0  0.66010  0.66010  0.75000  1.0000
  H   H157      1.0  0.67323  0.66667  0.41667  1.0000
  H   H158      1.0  0.33333  0.00657  0.41667  1.0000
  H   H159      1.0  0.99343  0.32677  0.41667  1.0000
  H   H160      1.0  0.00657  0.33333  0.08333  1.0000
  H   H161      1.0  0.66667  0.67323  0.08333  1.0000
  H   H162      1.0  0.32677  0.99343  0.08333  1.0000
  O   O1        1.0  0.66440  0.94070  0.40790  1.0000
  O   O2        1.0  0.05930  0.72370  0.40790  1.0000
  O   O3        1.0  0.27630  0.33560  0.40790  1.0000
  O   O4        1.0  0.72370  0.05930  0.09210  1.0000
  O   O5        1.0  0.33560  0.27630  0.09210  1.0000
  O   O6        1.0  0.94070  0.66440  0.09210  1.0000
  O   O7        1.0  0.33107  0.27403  0.74123  1.0000
  O   O8        1.0  0.72597  0.05703  0.74123  1.0000
  O   O9        1.0  0.94297  0.66893  0.74123  1.0000
  O   O10       1.0  0.39037  0.39263  0.42543  1.0000
  O   O11       1.0  0.00227  0.60963  0.42543  1.0000
  O   O12       1.0  0.60737  0.99773  0.42543  1.0000
  O   O13       1.0  0.99773  0.60737  0.07457  1.0000
  O   O14       1.0  0.39263  0.39037  0.07457  1.0000
  O   O15       1.0  0.60963  0.00227  0.07457  1.0000
  O   O16       1.0  0.05703  0.72597  0.75877  1.0000
  O   O17       1.0  0.66893  0.94297  0.75877  1.0000
  O   O18       1.0  0.27403  0.33107  0.75877  1.0000
  O   O19       1.0  0.33560  0.05930  0.59210  1.0000
  O   O20       1.0  0.94070  0.27630  0.59210  1.0000
  O   O21       1.0  0.72370  0.66440  0.59210  1.0000
  O   O22       1.0  0.27630  0.94070  0.90790  1.0000
  O   O23       1.0  0.66440  0.72370  0.90790  1.0000
  O   O24       1.0  0.05930  0.33560  0.90790  1.0000
  O   O25       1.0  0.66893  0.72597  0.25877  1.0000
  O   O26       1.0  0.27403  0.94297  0.25877  1.0000
  O   O27       1.0  0.05703  0.33107  0.25877  1.0000
  O   O28       1.0  0.60963  0.60737  0.57457  1.0000
  O   O29       1.0  0.99773  0.39037  0.57457  1.0000
  O   O30       1.0  0.39263  0.00227  0.57457  1.0000
  O   O31       1.0  0.00227  0.39263  0.92543  1.0000
  O   O32       1.0  0.60737  0.60963  0.92543  1.0000
  O   O33       1.0  0.39037  0.99773  0.92543  1.0000
  O   O34       1.0  0.94297  0.27403  0.24123  1.0000
  O   O35       1.0  0.33107  0.05703  0.24123  1.0000
  O   O36       1.0  0.72597  0.66893  0.24123  1.0000
  O   O37       1.0  0.62624  0.94503  0.33430  1.0000
  O   O38       1.0  0.05497  0.68121  0.33430  1.0000
  O   O39       1.0  0.31879  0.37376  0.33430  1.0000
  O   O40       1.0  0.68121  0.05497  0.16570  1.0000
  O   O41       1.0  0.37376  0.31879  0.16570  1.0000
  O   O42       1.0  0.94503  0.62624  0.16570  1.0000
  O   O43       1.0  0.29291  0.27836  0.66763  1.0000
  O   O44       1.0  0.72164  0.01454  0.66763  1.0000
  O   O45       1.0  0.98546  0.70709  0.66763  1.0000
  O   O46       1.0  0.34788  0.38830  0.49903  1.0000
  O   O47       1.0  0.04043  0.65212  0.49903  1.0000
  O   O48       1.0  0.61170  0.95957  0.49903  1.0000
  O   O49       1.0  0.95957  0.61170  0.00097  1.0000
  O   O50       1.0  0.38830  0.34788  0.00097  1.0000
  O   O51       1.0  0.65212  0.04043  0.00097  1.0000
  O   O52       1.0  0.01454  0.72164  0.83237  1.0000
  O   O53       1.0  0.70709  0.98546  0.83237  1.0000
  O   O54       1.0  0.27836  0.29291  0.83237  1.0000
  O   O55       1.0  0.37376  0.05497  0.66570  1.0000
  O   O56       1.0  0.94503  0.31879  0.66570  1.0000
  O   O57       1.0  0.68121  0.62624  0.66570  1.0000
  O   O58       1.0  0.31879  0.94503  0.83430  1.0000
  O   O59       1.0  0.62624  0.68121  0.83430  1.0000
  O   O60       1.0  0.05497  0.37376  0.83430  1.0000
  O   O61       1.0  0.70709  0.72164  0.33237  1.0000
  O   O62       1.0  0.27836  0.98546  0.33237  1.0000
  O   O63       1.0  0.01454  0.29291  0.33237  1.0000
  O   O64       1.0  0.65212  0.61170  0.50097  1.0000
  O   O65       1.0  0.95957  0.34788  0.50097  1.0000
  O   O66       1.0  0.38830  0.04043  0.50097  1.0000
  O   O67       1.0  0.04043  0.38830  0.99903  1.0000
  O   O68       1.0  0.61170  0.65212  0.99903  1.0000
  O   O69       1.0  0.34788  0.95957  0.99903  1.0000
  O   O70       1.0  0.98546  0.27836  0.16763  1.0000
  O   O71       1.0  0.29291  0.01454  0.16763  1.0000
  O   O72       1.0  0.72164  0.70709  0.16763  1.0000
  O   O73       1.0  0.79763  0.01090  0.19120  1.0000
  O   O74       1.0  0.98910  0.78673  0.19120  1.0000
  O   O75       1.0  0.21327  0.20237  0.19120  1.0000
  O   O76       1.0  0.78673  0.98910  0.30880  1.0000
  O   O77       1.0  0.20237  0.21327  0.30880  1.0000
  O   O78       1.0  0.01090  0.79763  0.30880  1.0000
  O   O79       1.0  0.46430  0.34423  0.52453  1.0000
  O   O80       1.0  0.65577  0.12006  0.52453  1.0000
  O   O81       1.0  0.87994  0.53570  0.52453  1.0000
  O   O82       1.0  0.45340  0.32243  0.64213  1.0000
  O   O83       1.0  0.86904  0.54660  0.64213  1.0000
  O   O84       1.0  0.67757  0.13096  0.64213  1.0000
  O   O85       1.0  0.13096  0.67757  0.85787  1.0000
  O   O86       1.0  0.32243  0.45340  0.85787  1.0000
  O   O87       1.0  0.54660  0.86904  0.85787  1.0000
  O   O88       1.0  0.12006  0.65577  0.97547  1.0000
  O   O89       1.0  0.53570  0.87994  0.97547  1.0000
  O   O90       1.0  0.34423  0.46430  0.97547  1.0000
  O   O91       1.0  0.20237  0.98910  0.80880  1.0000
  O   O92       1.0  0.01090  0.21327  0.80880  1.0000
  O   O93       1.0  0.78673  0.79763  0.80880  1.0000
  O   O94       1.0  0.21327  0.01090  0.69120  1.0000
  O   O95       1.0  0.79763  0.78673  0.69120  1.0000
  O   O96       1.0  0.98910  0.20237  0.69120  1.0000
  O   O97       1.0  0.53570  0.65577  0.47547  1.0000
  O   O98       1.0  0.34423  0.87994  0.47547  1.0000
  O   O99       1.0  0.12006  0.46430  0.47547  1.0000
  O   O100      1.0  0.54660  0.67757  0.35787  1.0000
  O   O101      1.0  0.13096  0.45340  0.35787  1.0000
  O   O102      1.0  0.32243  0.86904  0.35787  1.0000
  O   O103      1.0  0.86904  0.32243  0.14213  1.0000
  O   O104      1.0  0.67757  0.54660  0.14213  1.0000
  O   O105      1.0  0.45340  0.13096  0.14213  1.0000
  O   O106      1.0  0.87994  0.34423  0.02453  1.0000
  O   O107      1.0  0.46430  0.12006  0.02453  1.0000
  O   O108      1.0  0.65577  0.53570  0.02453  1.0000
  O   O109      1.0  0.57815  0.88173  0.47750  1.0000
  O   O110      1.0  0.11827  0.69642  0.47750  1.0000
  O   O111      1.0  0.30358  0.42185  0.47750  1.0000
  O   O112      1.0  0.69642  0.11827  0.02250  1.0000
  O   O113      1.0  0.42185  0.30358  0.02250  1.0000
  O   O114      1.0  0.88173  0.57815  0.02250  1.0000
  O   O115      1.0  0.24482  0.21506  0.81083  1.0000
  O   O116      1.0  0.78494  0.02975  0.81083  1.0000
  O   O117      1.0  0.97025  0.75518  0.81083  1.0000
  O   O118      1.0  0.36309  0.45160  0.35583  1.0000
  O   O119      1.0  0.08852  0.63691  0.35583  1.0000
  O   O120      1.0  0.54840  0.91148  0.35583  1.0000
  O   O121      1.0  0.91148  0.54840  0.14417  1.0000
  O   O122      1.0  0.45160  0.36309  0.14417  1.0000
  O   O123      1.0  0.63691  0.08852  0.14417  1.0000
  O   O124      1.0  0.02975  0.78494  0.68917  1.0000
  O   O125      1.0  0.75518  0.97025  0.68917  1.0000
  O   O126      1.0  0.21506  0.24482  0.68917  1.0000
  O   O127      1.0  0.42185  0.11827  0.52250  1.0000
  O   O128      1.0  0.88173  0.30358  0.52250  1.0000
  O   O129      1.0  0.69642  0.57815  0.52250  1.0000
  O   O130      1.0  0.30358  0.88173  0.97750  1.0000
  O   O131      1.0  0.57815  0.69642  0.97750  1.0000
  O   O132      1.0  0.11827  0.42185  0.97750  1.0000
  O   O133      1.0  0.75518  0.78494  0.18917  1.0000
  O   O134      1.0  0.21506  0.97025  0.18917  1.0000
  O   O135      1.0  0.02975  0.24482  0.18917  1.0000
  O   O136      1.0  0.63691  0.54840  0.64417  1.0000
  O   O137      1.0  0.91148  0.36309  0.64417  1.0000
  O   O138      1.0  0.45160  0.08852  0.64417  1.0000
  O   O139      1.0  0.08852  0.45160  0.85583  1.0000
  O   O140      1.0  0.54840  0.63691  0.85583  1.0000
  O   O141      1.0  0.36309  0.91148  0.85583  1.0000
  O   O142      1.0  0.97025  0.21506  0.31083  1.0000
  O   O143      1.0  0.24482  0.02975  0.31083  1.0000
  O   O144      1.0  0.78494  0.75518  0.31083  1.0000
  O   O145      1.0  0.56890  0.84990  0.37320  1.0000
  O   O146      1.0  0.15010  0.71900  0.37320  1.0000
  O   O147      1.0  0.28100  0.43110  0.37320  1.0000
  O   O148      1.0  0.71900  0.15010  0.12680  1.0000
  O   O149      1.0  0.43110  0.28100  0.12680  1.0000
  O   O150      1.0  0.84990  0.56890  0.12680  1.0000
  O   O151      1.0  0.23557  0.18323  0.70653  1.0000
  O   O152      1.0  0.81677  0.05233  0.70653  1.0000
  O   O153      1.0  0.94767  0.76443  0.70653  1.0000
  O   O154      1.0  0.38567  0.48343  0.46013  1.0000
  O   O155      1.0  0.09777  0.61433  0.46013  1.0000
  O   O156      1.0  0.51657  0.90223  0.46013  1.0000
  O   O157      1.0  0.90223  0.51657  0.03987  1.0000
  O   O158      1.0  0.48343  0.38567  0.03987  1.0000
  O   O159      1.0  0.61433  0.09777  0.03987  1.0000
  O   O160      1.0  0.05233  0.81677  0.79347  1.0000
  O   O161      1.0  0.76443  0.94767  0.79347  1.0000
  O   O162      1.0  0.18323  0.23557  0.79347  1.0000
  O   O163      1.0  0.43110  0.15010  0.62680  1.0000
  O   O164      1.0  0.84990  0.28100  0.62680  1.0000
  O   O165      1.0  0.71900  0.56890  0.62680  1.0000
  O   O166      1.0  0.28100  0.84990  0.87320  1.0000
  O   O167      1.0  0.56890  0.71900  0.87320  1.0000
  O   O168      1.0  0.15010  0.43110  0.87320  1.0000
  O   O169      1.0  0.76443  0.81677  0.29347  1.0000
  O   O170      1.0  0.18323  0.94767  0.29347  1.0000
  O   O171      1.0  0.05233  0.23557  0.29347  1.0000
  O   O172      1.0  0.61433  0.51657  0.53987  1.0000
  O   O173      1.0  0.90223  0.38567  0.53987  1.0000
  O   O174      1.0  0.48343  0.09777  0.53987  1.0000
  O   O175      1.0  0.09777  0.48343  0.96013  1.0000
  O   O176      1.0  0.51657  0.61433  0.96013  1.0000
  O   O177      1.0  0.38567  0.90223  0.96013  1.0000
  O   O178      1.0  0.94767  0.18323  0.20653  1.0000
  O   O179      1.0  0.23557  0.05233  0.20653  1.0000
  O   O180      1.0  0.81677  0.76443  0.20653  1.0000
  O   O181      1.0  0.52331  0.82344  0.72260  1.0000
  O   O182      1.0  0.17656  0.69987  0.72260  1.0000
  O   O183      1.0  0.30013  0.47669  0.72260  1.0000
  O   O184      1.0  0.69987  0.17656  0.77740  1.0000
  O   O185      1.0  0.47669  0.30013  0.77740  1.0000
  O   O186      1.0  0.82344  0.52331  0.77740  1.0000
  O   O187      1.0  0.18998  0.15677  0.05593  1.0000
  O   O188      1.0  0.84323  0.03320  0.05593  1.0000
  O   O189      1.0  0.96680  0.81002  0.05593  1.0000
  O   O190      1.0  0.36654  0.50989  0.11073  1.0000
  O   O191      1.0  0.14336  0.63346  0.11073  1.0000
  O   O192      1.0  0.49011  0.85664  0.11073  1.0000
  O   O193      1.0  0.85664  0.49011  0.38927  1.0000
  O   O194      1.0  0.50989  0.36654  0.38927  1.0000
  O   O195      1.0  0.63346  0.14336  0.38927  1.0000
  O   O196      1.0  0.03320  0.84323  0.44407  1.0000
  O   O197      1.0  0.81002  0.96680  0.44407  1.0000
  O   O198      1.0  0.15677  0.18998  0.44407  1.0000
  O   O199      1.0  0.47669  0.17656  0.27740  1.0000
  O   O200      1.0  0.82344  0.30013  0.27740  1.0000
  O   O201      1.0  0.69987  0.52331  0.27740  1.0000
  O   O202      1.0  0.30013  0.82344  0.22260  1.0000
  O   O203      1.0  0.52331  0.69987  0.22260  1.0000
  O   O204      1.0  0.17656  0.47669  0.22260  1.0000
  O   O205      1.0  0.81002  0.84323  0.94407  1.0000
  O   O206      1.0  0.15677  0.96680  0.94407  1.0000
  O   O207      1.0  0.03320  0.18998  0.94407  1.0000
  O   O208      1.0  0.63346  0.49011  0.88927  1.0000
  O   O209      1.0  0.85664  0.36654  0.88927  1.0000
  O   O210      1.0  0.50989  0.14336  0.88927  1.0000
  O   O211      1.0  0.14336  0.50989  0.61073  1.0000
  O   O212      1.0  0.49011  0.63346  0.61073  1.0000
  O   O213      1.0  0.36654  0.85664  0.61073  1.0000
  O   O214      1.0  0.96680  0.15677  0.55593  1.0000
  O   O215      1.0  0.18998  0.03320  0.55593  1.0000
  O   O216      1.0  0.84323  0.81002  0.55593  1.0000
  O   O217      1.0  0.48570  0.76890  0.72550  1.0000
  O   O218      1.0  0.23110  0.71680  0.72550  1.0000
  O   O219      1.0  0.28320  0.51430  0.72550  1.0000
  O   O220      1.0  0.71680  0.23110  0.77450  1.0000
  O   O221      1.0  0.51430  0.28320  0.77450  1.0000
  O   O222      1.0  0.76890  0.48570  0.77450  1.0000
  O   O223      1.0  0.15237  0.10223  0.05883  1.0000
  O   O224      1.0  0.89777  0.05013  0.05883  1.0000
  O   O225      1.0  0.94987  0.84763  0.05883  1.0000
  O   O226      1.0  0.38347  0.56443  0.10783  1.0000
  O   O227      1.0  0.18097  0.61653  0.10783  1.0000
  O   O228      1.0  0.43557  0.81903  0.10783  1.0000
  O   O229      1.0  0.81903  0.43557  0.39217  1.0000
  O   O230      1.0  0.56443  0.38347  0.39217  1.0000
  O   O231      1.0  0.61653  0.18097  0.39217  1.0000
  O   O232      1.0  0.05013  0.89777  0.44117  1.0000
  O   O233      1.0  0.84763  0.94987  0.44117  1.0000
  O   O234      1.0  0.10223  0.15237  0.44117  1.0000
  O   O235      1.0  0.51430  0.23110  0.27450  1.0000
  O   O236      1.0  0.76890  0.28320  0.27450  1.0000
  O   O237      1.0  0.71680  0.48570  0.27450  1.0000
  O   O238      1.0  0.28320  0.76890  0.22550  1.0000
  O   O239      1.0  0.48570  0.71680  0.22550  1.0000
  O   O240      1.0  0.23110  0.51430  0.22550  1.0000
  O   O241      1.0  0.84763  0.89777  0.94117  1.0000
  O   O242      1.0  0.10223  0.94987  0.94117  1.0000
  O   O243      1.0  0.05013  0.15237  0.94117  1.0000
  O   O244      1.0  0.61653  0.43557  0.89217  1.0000
  O   O245      1.0  0.81903  0.38347  0.89217  1.0000
  O   O246      1.0  0.56443  0.18097  0.89217  1.0000
  O   O247      1.0  0.18097  0.56443  0.60783  1.0000
  O   O248      1.0  0.43557  0.61653  0.60783  1.0000
  O   O249      1.0  0.38347  0.81903  0.60783  1.0000
  O   O250      1.0  0.94987  0.10223  0.55883  1.0000
  O   O251      1.0  0.15237  0.05013  0.55883  1.0000
  O   O252      1.0  0.89777  0.84763  0.55883  1.0000
  O   O253      1.0  0.49348  0.69492  0.51220  1.0000
  O   O254      1.0  0.30508  0.79856  0.51220  1.0000
  O   O255      1.0  0.20144  0.50652  0.51220  1.0000
  O   O256      1.0  0.79856  0.30508  0.98780  1.0000
  O   O257      1.0  0.50652  0.20144  0.98780  1.0000
  O   O258      1.0  0.69492  0.49348  0.98780  1.0000
  O   O259      1.0  0.16015  0.02825  0.84553  1.0000
  O   O260      1.0  0.97175  0.13189  0.84553  1.0000
  O   O261      1.0  0.86811  0.83985  0.84553  1.0000
  O   O262      1.0  0.46523  0.63841  0.32113  1.0000
  O   O263      1.0  0.17319  0.53477  0.32113  1.0000
  O   O264      1.0  0.36159  0.82681  0.32113  1.0000
  O   O265      1.0  0.82681  0.36159  0.17887  1.0000
  O   O266      1.0  0.63841  0.46523  0.17887  1.0000
  O   O267      1.0  0.53477  0.17319  0.17887  1.0000
  O   O268      1.0  0.13189  0.97175  0.65447  1.0000
  O   O269      1.0  0.83985  0.86811  0.65447  1.0000
  O   O270      1.0  0.02825  0.16015  0.65447  1.0000
  O   O271      1.0  0.50652  0.30508  0.48780  1.0000
  O   O272      1.0  0.69492  0.20144  0.48780  1.0000
  O   O273      1.0  0.79856  0.49348  0.48780  1.0000
  O   O274      1.0  0.20144  0.69492  0.01220  1.0000
  O   O275      1.0  0.49348  0.79856  0.01220  1.0000
  O   O276      1.0  0.30508  0.50652  0.01220  1.0000
  O   O277      1.0  0.83985  0.97175  0.15447  1.0000
  O   O278      1.0  0.02825  0.86811  0.15447  1.0000
  O   O279      1.0  0.13189  0.16015  0.15447  1.0000
  O   O280      1.0  0.53477  0.36159  0.67887  1.0000
  O   O281      1.0  0.82681  0.46523  0.67887  1.0000
  O   O282      1.0  0.63841  0.17319  0.67887  1.0000
  O   O283      1.0  0.17319  0.63841  0.82113  1.0000
  O   O284      1.0  0.36159  0.53477  0.82113  1.0000
  O   O285      1.0  0.46523  0.82681  0.82113  1.0000
  O   O286      1.0  0.86811  0.02825  0.34553  1.0000
  O   O287      1.0  0.16015  0.13189  0.34553  1.0000
  O   O288      1.0  0.97175  0.83985  0.34553  1.0000
  O   O289      1.0  0.51027  0.72004  0.39730  1.0000
  O   O290      1.0  0.27996  0.79023  0.39730  1.0000
  O   O291      1.0  0.20977  0.48973  0.39730  1.0000
  O   O292      1.0  0.79023  0.27996  0.10270  1.0000
  O   O293      1.0  0.48973  0.20977  0.10270  1.0000
  O   O294      1.0  0.72004  0.51027  0.10270  1.0000
  O   O295      1.0  0.17694  0.05337  0.73063  1.0000
  O   O296      1.0  0.94663  0.12356  0.73063  1.0000
  O   O297      1.0  0.87644  0.82306  0.73063  1.0000
  O   O298      1.0  0.45690  0.61329  0.43603  1.0000
  O   O299      1.0  0.15640  0.54310  0.43603  1.0000
  O   O300      1.0  0.38671  0.84360  0.43603  1.0000
  O   O301      1.0  0.84360  0.38671  0.06397  1.0000
  O   O302      1.0  0.61329  0.45690  0.06397  1.0000
  O   O303      1.0  0.54310  0.15640  0.06397  1.0000
  O   O304      1.0  0.12356  0.94663  0.76937  1.0000
  O   O305      1.0  0.82306  0.87644  0.76937  1.0000
  O   O306      1.0  0.05337  0.17694  0.76937  1.0000
  O   O307      1.0  0.48973  0.27996  0.60270  1.0000
  O   O308      1.0  0.72004  0.20977  0.60270  1.0000
  O   O309      1.0  0.79023  0.51027  0.60270  1.0000
  O   O310      1.0  0.20977  0.72004  0.89730  1.0000
  O   O311      1.0  0.51027  0.79023  0.89730  1.0000
  O   O312      1.0  0.27996  0.48973  0.89730  1.0000
  O   O313      1.0  0.82306  0.94663  0.26937  1.0000
  O   O314      1.0  0.05337  0.87644  0.26937  1.0000
  O   O315      1.0  0.12356  0.17694  0.26937  1.0000
  O   O316      1.0  0.54310  0.38671  0.56397  1.0000
  O   O317      1.0  0.84360  0.45690  0.56397  1.0000
  O   O318      1.0  0.61329  0.15640  0.56397  1.0000
  O   O319      1.0  0.15640  0.61329  0.93603  1.0000
  O   O320      1.0  0.38671  0.54310  0.93603  1.0000
  O   O321      1.0  0.45690  0.84360  0.93603  1.0000
  O   O322      1.0  0.87644  0.05337  0.23063  1.0000
  O   O323      1.0  0.17694  0.12356  0.23063  1.0000
  O   O324      1.0  0.94663  0.82306  0.23063  1.0000
