data_image0
_chemical_formula_structural       Ni12C16H8C16H8C16H8C24O48C8H24C8O16
_chemical_formula_sum              "Ni12 C88 H48 O64"
_cell_length_a       14.0636
_cell_length_b       15.9152
_cell_length_c       16.5858
_cell_angle_alpha    90
_cell_angle_beta     90
_cell_angle_gamma    90

_space_group_name_H-M_alt    "P 1"
_space_group_IT_number       1

loop_
  _space_group_symop_operation_xyz
  'x, y, z'

loop_
  _atom_site_type_symbol
  _atom_site_label
  _atom_site_symmetry_multiplicity
  _atom_site_fract_x
  _atom_site_fract_y
  _atom_site_fract_z
  _atom_site_occupancy
  Ni  Ni1       1.0  0.47904  0.81749  0.39336  1.0000
  Ni  Ni2       1.0  0.02096  0.18251  0.89336  1.0000
  Ni  Ni3       1.0  0.52096  0.31749  0.10664  1.0000
  Ni  Ni4       1.0  0.97904  0.68251  0.60664  1.0000
  Ni  Ni5       1.0  0.52096  0.18251  0.60664  1.0000
  Ni  Ni6       1.0  0.97904  0.81749  0.10664  1.0000
  Ni  Ni7       1.0  0.47904  0.68251  0.89336  1.0000
  Ni  Ni8       1.0  0.02096  0.31749  0.39336  1.0000
  Ni  Ni9       1.0  0.50000  0.00000  0.50000  1.0000
  Ni  Ni10      1.0  0.00000  0.00000  0.00000  1.0000
  Ni  Ni11      1.0  0.50000  0.50000  0.00000  1.0000
  Ni  Ni12      1.0  0.00000  0.50000  0.50000  1.0000
  C   C1        1.0  0.25700  0.99550  0.34118  1.0000
  C   C2        1.0  0.24300  0.00450  0.84118  1.0000
  C   C3        1.0  0.74300  0.49550  0.15882  1.0000
  C   C4        1.0  0.75700  0.50450  0.65882  1.0000
  C   C5        1.0  0.74300  0.00450  0.65882  1.0000
  C   C6        1.0  0.75700  0.99550  0.15882  1.0000
  C   C7        1.0  0.25700  0.50450  0.84118  1.0000
  C   C8        1.0  0.24300  0.49550  0.34118  1.0000
  C   C9        1.0  0.22100  0.07275  0.36604  1.0000
  C   C10       1.0  0.27900  0.92725  0.86604  1.0000
  C   C11       1.0  0.77900  0.57275  0.13396  1.0000
  C   C12       1.0  0.72100  0.42725  0.63396  1.0000
  C   C13       1.0  0.77900  0.92725  0.63396  1.0000
  C   C14       1.0  0.72100  0.07275  0.13396  1.0000
  C   C15       1.0  0.22100  0.42725  0.86604  1.0000
  C   C16       1.0  0.27900  0.57275  0.36604  1.0000
  H   H1        1.0  0.24590  0.09860  0.41310  1.0000
  H   H2        1.0  0.25410  0.90140  0.91310  1.0000
  H   H3        1.0  0.75410  0.59860  0.08690  1.0000
  H   H4        1.0  0.74590  0.40140  0.58690  1.0000
  H   H5        1.0  0.75410  0.90140  0.58690  1.0000
  H   H6        1.0  0.74590  0.09860  0.08690  1.0000
  H   H7        1.0  0.24590  0.40140  0.91310  1.0000
  H   H8        1.0  0.25410  0.59860  0.41310  1.0000
  C   C17       1.0  0.14900  0.11270  0.32273  1.0000
  C   C18       1.0  0.35100  0.88730  0.82273  1.0000
  C   C19       1.0  0.85100  0.61270  0.17727  1.0000
  C   C20       1.0  0.64900  0.38730  0.67727  1.0000
  C   C21       1.0  0.85100  0.88730  0.67727  1.0000
  C   C22       1.0  0.64900  0.11270  0.17727  1.0000
  C   C23       1.0  0.14900  0.38730  0.82273  1.0000
  C   C24       1.0  0.35100  0.61270  0.32273  1.0000
  C   C25       1.0  0.11380  0.07383  0.25408  1.0000
  C   C26       1.0  0.38620  0.92617  0.75408  1.0000
  C   C27       1.0  0.88620  0.57383  0.24592  1.0000
  C   C28       1.0  0.61380  0.42617  0.74592  1.0000
  C   C29       1.0  0.88620  0.92617  0.74592  1.0000
  C   C30       1.0  0.61380  0.07383  0.24592  1.0000
  C   C31       1.0  0.11380  0.42617  0.75408  1.0000
  C   C32       1.0  0.38620  0.57383  0.25408  1.0000
  H   H9        1.0  0.06820  0.10230  0.22180  1.0000
  H   H10       1.0  0.43180  0.89770  0.72180  1.0000
  H   H11       1.0  0.93180  0.60230  0.27820  1.0000
  H   H12       1.0  0.56820  0.39770  0.77820  1.0000
  H   H13       1.0  0.93180  0.89770  0.77820  1.0000
  H   H14       1.0  0.56820  0.10230  0.27820  1.0000
  H   H15       1.0  0.06820  0.39770  0.72180  1.0000
  H   H16       1.0  0.43180  0.60230  0.22180  1.0000
  C   C33       1.0  0.14400  0.99350  0.23144  1.0000
  C   C34       1.0  0.35600  0.00650  0.73144  1.0000
  C   C35       1.0  0.85600  0.49350  0.26856  1.0000
  C   C36       1.0  0.64400  0.50650  0.76856  1.0000
  C   C37       1.0  0.85600  0.00650  0.76856  1.0000
  C   C38       1.0  0.64400  0.99350  0.26856  1.0000
  C   C39       1.0  0.14400  0.50650  0.73144  1.0000
  C   C40       1.0  0.35600  0.49350  0.23144  1.0000
  C   C41       1.0  0.21600  0.95491  0.27540  1.0000
  C   C42       1.0  0.28400  0.04509  0.77540  1.0000
  C   C43       1.0  0.78400  0.45491  0.22460  1.0000
  C   C44       1.0  0.71600  0.54509  0.72460  1.0000
  C   C45       1.0  0.78400  0.04509  0.72460  1.0000
  C   C46       1.0  0.71600  0.95491  0.22460  1.0000
  C   C47       1.0  0.21600  0.54509  0.77540  1.0000
  C   C48       1.0  0.28400  0.45491  0.27540  1.0000
  H   H17       1.0  0.23740  0.90050  0.26040  1.0000
  H   H18       1.0  0.26260  0.09950  0.76040  1.0000
  H   H19       1.0  0.76260  0.40050  0.23960  1.0000
  H   H20       1.0  0.73740  0.59950  0.73960  1.0000
  H   H21       1.0  0.76260  0.09950  0.73960  1.0000
  H   H22       1.0  0.73740  0.90050  0.23960  1.0000
  H   H23       1.0  0.23740  0.59950  0.76040  1.0000
  H   H24       1.0  0.26260  0.40050  0.26040  1.0000
  C   C49       1.0  0.34340  0.95928  0.38255  1.0000
  C   C50       1.0  0.15660  0.04072  0.88255  1.0000
  C   C51       1.0  0.65660  0.45928  0.11745  1.0000
  C   C52       1.0  0.84340  0.54072  0.61745  1.0000
  C   C53       1.0  0.65660  0.04072  0.61745  1.0000
  C   C54       1.0  0.84340  0.95928  0.11745  1.0000
  C   C55       1.0  0.34340  0.54072  0.88255  1.0000
  C   C56       1.0  0.15660  0.45928  0.38255  1.0000
  C   C57       1.0  0.10730  0.19382  0.34970  1.0000
  C   C58       1.0  0.39270  0.80618  0.84970  1.0000
  C   C59       1.0  0.89270  0.69382  0.15030  1.0000
  C   C60       1.0  0.60730  0.30618  0.65030  1.0000
  C   C61       1.0  0.89270  0.80618  0.65030  1.0000
  C   C62       1.0  0.60730  0.19382  0.15030  1.0000
  C   C63       1.0  0.10730  0.30618  0.84970  1.0000
  C   C64       1.0  0.39270  0.69382  0.34970  1.0000
  C   C65       1.0  0.09620  0.95317  0.15954  1.0000
  C   C66       1.0  0.40380  0.04683  0.65954  1.0000
  C   C67       1.0  0.90380  0.45317  0.34046  1.0000
  C   C68       1.0  0.59620  0.54683  0.84046  1.0000
  C   C69       1.0  0.90380  0.04683  0.84046  1.0000
  C   C70       1.0  0.59620  0.95317  0.34046  1.0000
  C   C71       1.0  0.09620  0.54683  0.65954  1.0000
  C   C72       1.0  0.40380  0.45317  0.15954  1.0000
  O   O1        1.0  0.36893  0.99442  0.44679  1.0000
  O   O2        1.0  0.13107  0.00558  0.94679  1.0000
  O   O3        1.0  0.63107  0.49442  0.05321  1.0000
  O   O4        1.0  0.86893  0.50558  0.55321  1.0000
  O   O5        1.0  0.63107  0.00558  0.55321  1.0000
  O   O6        1.0  0.86893  0.99442  0.05321  1.0000
  O   O7        1.0  0.36893  0.50558  0.94679  1.0000
  O   O8        1.0  0.13107  0.49442  0.44679  1.0000
  O   O9        1.0  0.38201  0.89734  0.34818  1.0000
  O   O10       1.0  0.11799  0.10266  0.84818  1.0000
  O   O11       1.0  0.61799  0.39734  0.15182  1.0000
  O   O12       1.0  0.88201  0.60266  0.65182  1.0000
  O   O13       1.0  0.61799  0.10266  0.65182  1.0000
  O   O14       1.0  0.88201  0.89734  0.15182  1.0000
  O   O15       1.0  0.38201  0.60266  0.84818  1.0000
  O   O16       1.0  0.11799  0.39734  0.34818  1.0000
  O   O17       1.0  0.13047  0.22470  0.41659  1.0000
  O   O18       1.0  0.36953  0.77530  0.91659  1.0000
  O   O19       1.0  0.86953  0.72470  0.08341  1.0000
  O   O20       1.0  0.63047  0.27530  0.58341  1.0000
  O   O21       1.0  0.86953  0.77530  0.58341  1.0000
  O   O22       1.0  0.63047  0.22470  0.08341  1.0000
  O   O23       1.0  0.13047  0.27530  0.91659  1.0000
  O   O24       1.0  0.36953  0.72470  0.41659  1.0000
  O   O25       1.0  0.04497  0.22877  0.30538  1.0000
  O   O26       1.0  0.45503  0.77123  0.80538  1.0000
  O   O27       1.0  0.95503  0.72877  0.19462  1.0000
  O   O28       1.0  0.54497  0.27123  0.69462  1.0000
  O   O29       1.0  0.95503  0.77123  0.69462  1.0000
  O   O30       1.0  0.54497  0.22877  0.19462  1.0000
  O   O31       1.0  0.04497  0.27123  0.80538  1.0000
  O   O32       1.0  0.45503  0.72877  0.30538  1.0000
  O   O33       1.0  0.06409  0.00261  0.10890  1.0000
  O   O34       1.0  0.43591  0.99739  0.60890  1.0000
  O   O35       1.0  0.93591  0.50261  0.39110  1.0000
  O   O36       1.0  0.56409  0.49739  0.89110  1.0000
  O   O37       1.0  0.93591  0.99739  0.89110  1.0000
  O   O38       1.0  0.56409  0.00261  0.39110  1.0000
  O   O39       1.0  0.06409  0.49739  0.60890  1.0000
  O   O40       1.0  0.43591  0.50261  0.10890  1.0000
  O   O41       1.0  0.09141  0.87368  0.15982  1.0000
  O   O42       1.0  0.40859  0.12632  0.65982  1.0000
  O   O43       1.0  0.90859  0.37368  0.34018  1.0000
  O   O44       1.0  0.59141  0.62632  0.84018  1.0000
  O   O45       1.0  0.90859  0.12632  0.84018  1.0000
  O   O46       1.0  0.59141  0.87368  0.34018  1.0000
  O   O47       1.0  0.09141  0.62632  0.65982  1.0000
  O   O48       1.0  0.40859  0.37368  0.15982  1.0000
  C   C73       1.0  0.58150  0.80240  0.61450  1.0000
  C   C74       1.0  0.91850  0.19760  0.11450  1.0000
  C   C75       1.0  0.41850  0.30240  0.88550  1.0000
  C   C76       1.0  0.08150  0.69760  0.38550  1.0000
  C   C77       1.0  0.41850  0.19760  0.38550  1.0000
  C   C78       1.0  0.08150  0.80240  0.88550  1.0000
  C   C79       1.0  0.58150  0.69760  0.11450  1.0000
  C   C80       1.0  0.91850  0.30240  0.61450  1.0000
  H   H25       1.0  0.64940  0.78870  0.61650  1.0000
  H   H26       1.0  0.85060  0.21130  0.11650  1.0000
  H   H27       1.0  0.35060  0.28870  0.88350  1.0000
  H   H28       1.0  0.14940  0.71130  0.38350  1.0000
  H   H29       1.0  0.35060  0.21130  0.38350  1.0000
  H   H30       1.0  0.14940  0.78870  0.88350  1.0000
  H   H31       1.0  0.64940  0.71130  0.11650  1.0000
  H   H32       1.0  0.85060  0.28870  0.61650  1.0000
  H   H33       1.0  0.54520  0.75880  0.64250  1.0000
  H   H34       1.0  0.95480  0.24120  0.14250  1.0000
  H   H35       1.0  0.45480  0.25880  0.85750  1.0000
  H   H36       1.0  0.04520  0.74120  0.35750  1.0000
  H   H37       1.0  0.45480  0.24120  0.35750  1.0000
  H   H38       1.0  0.04520  0.75880  0.85750  1.0000
  H   H39       1.0  0.54520  0.74120  0.14250  1.0000
  H   H40       1.0  0.95480  0.25880  0.64250  1.0000
  H   H41       1.0  0.57060  0.85670  0.64070  1.0000
  H   H42       1.0  0.92940  0.14330  0.14070  1.0000
  H   H43       1.0  0.42940  0.35670  0.85930  1.0000
  H   H44       1.0  0.07060  0.64330  0.35930  1.0000
  H   H45       1.0  0.42940  0.14330  0.35930  1.0000
  H   H46       1.0  0.07060  0.85670  0.85930  1.0000
  H   H47       1.0  0.57060  0.64330  0.14070  1.0000
  H   H48       1.0  0.92940  0.35670  0.64070  1.0000
  C   C81       1.0  0.54990  0.80715  0.52810  1.0000
  C   C82       1.0  0.95010  0.19285  0.02810  1.0000
  C   C83       1.0  0.45010  0.30715  0.97190  1.0000
  C   C84       1.0  0.04990  0.69285  0.47190  1.0000
  C   C85       1.0  0.45010  0.19285  0.47190  1.0000
  C   C86       1.0  0.04990  0.80715  0.97190  1.0000
  C   C87       1.0  0.54990  0.69285  0.02810  1.0000
  C   C88       1.0  0.95010  0.30715  0.52810  1.0000
  O   O49       1.0  0.56826  0.75021  0.47981  1.0000
  O   O50       1.0  0.93174  0.24979  0.97981  1.0000
  O   O51       1.0  0.43174  0.25021  0.02019  1.0000
  O   O52       1.0  0.06826  0.74979  0.52019  1.0000
  O   O53       1.0  0.43174  0.24979  0.52019  1.0000
  O   O54       1.0  0.06826  0.75021  0.02019  1.0000
  O   O55       1.0  0.56826  0.74979  0.97981  1.0000
  O   O56       1.0  0.93174  0.25021  0.47981  1.0000
  O   O57       1.0  0.49763  0.86860  0.50511  1.0000
  O   O58       1.0  0.00237  0.13140  0.00511  1.0000
  O   O59       1.0  0.50237  0.36860  0.99489  1.0000
  O   O60       1.0  0.99763  0.63140  0.49489  1.0000
  O   O61       1.0  0.50237  0.13140  0.49489  1.0000
  O   O62       1.0  0.99763  0.86860  0.99489  1.0000
  O   O63       1.0  0.49763  0.63140  0.00511  1.0000
  O   O64       1.0  0.00237  0.36860  0.50511  1.0000
