data_image0
_chemical_formula_structural       Ni12C16H8C16H8C16H8C40H24O64
_chemical_formula_sum              "Ni12 C88 H48 O64"
_cell_length_a       13.9666
_cell_length_b       15.9302
_cell_length_c       16.6479
_cell_angle_alpha    90
_cell_angle_beta     90
_cell_angle_gamma    90

_space_group_name_H-M_alt    "P 1"
_space_group_IT_number       1

loop_
  _space_group_symop_operation_xyz
  'x, y, z'

loop_
  _atom_site_type_symbol
  _atom_site_label
  _atom_site_symmetry_multiplicity
  _atom_site_fract_x
  _atom_site_fract_y
  _atom_site_fract_z
  _atom_site_occupancy
  Ni  Ni1       1.0  0.52002  0.68241  0.89366  1.0000
  Ni  Ni2       1.0  0.97998  0.31759  0.39366  1.0000
  Ni  Ni3       1.0  0.47998  0.18241  0.60634  1.0000
  Ni  Ni4       1.0  0.02002  0.81759  0.10634  1.0000
  Ni  Ni5       1.0  0.47998  0.31759  0.10634  1.0000
  Ni  Ni6       1.0  0.02002  0.68241  0.60634  1.0000
  Ni  Ni7       1.0  0.52002  0.81759  0.39366  1.0000
  Ni  Ni8       1.0  0.97998  0.18241  0.89366  1.0000
  Ni  Ni9       1.0  0.50000  0.50000  0.00000  1.0000
  Ni  Ni10      1.0  0.00000  0.50000  0.50000  1.0000
  Ni  Ni11      1.0  0.50000  0.00000  0.50000  1.0000
  Ni  Ni12      1.0  0.00000  0.00000  0.00000  1.0000
  C   C1        1.0  0.74270  0.50364  0.84052  1.0000
  C   C2        1.0  0.75730  0.49636  0.34052  1.0000
  C   C3        1.0  0.25730  0.00364  0.65948  1.0000
  C   C4        1.0  0.24270  0.99636  0.15948  1.0000
  C   C5        1.0  0.25730  0.49636  0.15948  1.0000
  C   C6        1.0  0.24270  0.50364  0.65948  1.0000
  C   C7        1.0  0.74270  0.99636  0.34052  1.0000
  C   C8        1.0  0.75730  0.00364  0.84052  1.0000
  C   C9        1.0  0.78420  0.54460  0.77493  1.0000
  C   C10       1.0  0.71580  0.45540  0.27493  1.0000
  C   C11       1.0  0.21580  0.04460  0.72507  1.0000
  C   C12       1.0  0.28420  0.95540  0.22507  1.0000
  C   C13       1.0  0.21580  0.45540  0.22507  1.0000
  C   C14       1.0  0.28420  0.54460  0.72507  1.0000
  C   C15       1.0  0.78420  0.95540  0.27493  1.0000
  C   C16       1.0  0.71580  0.04460  0.77493  1.0000
  H   H1        1.0  0.76340  0.59930  0.76050  1.0000
  H   H2        1.0  0.73660  0.40070  0.26050  1.0000
  H   H3        1.0  0.23660  0.09930  0.73950  1.0000
  H   H4        1.0  0.26340  0.90070  0.23950  1.0000
  H   H5        1.0  0.23660  0.40070  0.23950  1.0000
  H   H6        1.0  0.26340  0.59930  0.73950  1.0000
  H   H7        1.0  0.76340  0.90070  0.26050  1.0000
  H   H8        1.0  0.73660  0.09930  0.76050  1.0000
  C   C17       1.0  0.85560  0.50540  0.73091  1.0000
  C   C18       1.0  0.64440  0.49460  0.23091  1.0000
  C   C19       1.0  0.14440  0.00540  0.76909  1.0000
  C   C20       1.0  0.35560  0.99460  0.26909  1.0000
  C   C21       1.0  0.14440  0.49460  0.26909  1.0000
  C   C22       1.0  0.35560  0.50540  0.76909  1.0000
  C   C23       1.0  0.85560  0.99460  0.23091  1.0000
  C   C24       1.0  0.64440  0.00540  0.73091  1.0000
  C   C25       1.0  0.88670  0.42561  0.75304  1.0000
  C   C26       1.0  0.61330  0.57439  0.25304  1.0000
  C   C27       1.0  0.11330  0.92561  0.74696  1.0000
  C   C28       1.0  0.38670  0.07439  0.24696  1.0000
  C   C29       1.0  0.11330  0.57439  0.24696  1.0000
  C   C30       1.0  0.38670  0.42561  0.74696  1.0000
  C   C31       1.0  0.88670  0.07439  0.25304  1.0000
  C   C32       1.0  0.61330  0.92561  0.75304  1.0000
  H   H9        1.0  0.93240  0.39720  0.72070  1.0000
  H   H10       1.0  0.56760  0.60280  0.22070  1.0000
  H   H11       1.0  0.06760  0.89720  0.77930  1.0000
  H   H12       1.0  0.43240  0.10280  0.27930  1.0000
  H   H13       1.0  0.06760  0.60280  0.27930  1.0000
  H   H14       1.0  0.43240  0.39720  0.77930  1.0000
  H   H15       1.0  0.93240  0.10280  0.22070  1.0000
  H   H16       1.0  0.56760  0.89720  0.72070  1.0000
  C   C33       1.0  0.85140  0.38720  0.82192  1.0000
  C   C34       1.0  0.64860  0.61280  0.32192  1.0000
  C   C35       1.0  0.14860  0.88720  0.67808  1.0000
  C   C36       1.0  0.35140  0.11280  0.17808  1.0000
  C   C37       1.0  0.14860  0.61280  0.17808  1.0000
  C   C38       1.0  0.35140  0.38720  0.67808  1.0000
  C   C39       1.0  0.85140  0.11280  0.32192  1.0000
  C   C40       1.0  0.64860  0.88720  0.82192  1.0000
  C   C41       1.0  0.77910  0.42668  0.86568  1.0000
  C   C42       1.0  0.72090  0.57332  0.36568  1.0000
  C   C43       1.0  0.22090  0.92668  0.63432  1.0000
  C   C44       1.0  0.27910  0.07332  0.13432  1.0000
  C   C45       1.0  0.22090  0.57332  0.13432  1.0000
  C   C46       1.0  0.27910  0.42668  0.63432  1.0000
  C   C47       1.0  0.77910  0.07332  0.36568  1.0000
  C   C48       1.0  0.72090  0.92668  0.86568  1.0000
  H   H17       1.0  0.75460  0.40090  0.91290  1.0000
  H   H18       1.0  0.74540  0.59910  0.41290  1.0000
  H   H19       1.0  0.24540  0.90090  0.58710  1.0000
  H   H20       1.0  0.25460  0.09910  0.08710  1.0000
  H   H21       1.0  0.24540  0.59910  0.08710  1.0000
  H   H22       1.0  0.25460  0.40090  0.58710  1.0000
  H   H23       1.0  0.75460  0.09910  0.41290  1.0000
  H   H24       1.0  0.74540  0.90090  0.91290  1.0000
  C   C49       1.0  0.65680  0.54060  0.88260  1.0000
  C   C50       1.0  0.84320  0.45940  0.38260  1.0000
  C   C51       1.0  0.34320  0.04060  0.61740  1.0000
  C   C52       1.0  0.15680  0.95940  0.11740  1.0000
  C   C53       1.0  0.34320  0.45940  0.11740  1.0000
  C   C54       1.0  0.15680  0.54060  0.61740  1.0000
  C   C55       1.0  0.65680  0.95940  0.38260  1.0000
  C   C56       1.0  0.84320  0.04060  0.88260  1.0000
  C   C57       1.0  0.90250  0.54632  0.65949  1.0000
  C   C58       1.0  0.59750  0.45368  0.15949  1.0000
  C   C59       1.0  0.09750  0.04632  0.84051  1.0000
  C   C60       1.0  0.40250  0.95368  0.34051  1.0000
  C   C61       1.0  0.09750  0.45368  0.34051  1.0000
  C   C62       1.0  0.40250  0.54632  0.84051  1.0000
  C   C63       1.0  0.90250  0.95368  0.15949  1.0000
  C   C64       1.0  0.59750  0.04632  0.65949  1.0000
  C   C65       1.0  0.89370  0.30550  0.84950  1.0000
  C   C66       1.0  0.60630  0.69450  0.34950  1.0000
  C   C67       1.0  0.10630  0.80550  0.65050  1.0000
  C   C68       1.0  0.39370  0.19450  0.15050  1.0000
  C   C69       1.0  0.10630  0.69450  0.15050  1.0000
  C   C70       1.0  0.39370  0.30550  0.65050  1.0000
  C   C71       1.0  0.89370  0.19450  0.34950  1.0000
  C   C72       1.0  0.60630  0.80550  0.84950  1.0000
  C   C73       1.0  0.44970  0.69320  0.02830  1.0000
  C   C74       1.0  0.05030  0.30680  0.52830  1.0000
  C   C75       1.0  0.55030  0.19320  0.47170  1.0000
  C   C76       1.0  0.94970  0.80680  0.97170  1.0000
  C   C77       1.0  0.55030  0.30680  0.97170  1.0000
  C   C78       1.0  0.94970  0.69320  0.47170  1.0000
  C   C79       1.0  0.44970  0.80680  0.52830  1.0000
  C   C80       1.0  0.05030  0.19320  0.02830  1.0000
  C   C81       1.0  0.41860  0.69760  0.11490  1.0000
  C   C82       1.0  0.08140  0.30240  0.61490  1.0000
  C   C83       1.0  0.58140  0.19760  0.38510  1.0000
  C   C84       1.0  0.91860  0.80240  0.88510  1.0000
  C   C85       1.0  0.58140  0.30240  0.88510  1.0000
  C   C86       1.0  0.91860  0.69760  0.38510  1.0000
  C   C87       1.0  0.41860  0.80240  0.61490  1.0000
  C   C88       1.0  0.08140  0.19760  0.11490  1.0000
  H   H25       1.0  0.35020  0.71070  0.11750  1.0000
  H   H26       1.0  0.14980  0.28930  0.61750  1.0000
  H   H27       1.0  0.64980  0.21070  0.38250  1.0000
  H   H28       1.0  0.85020  0.78930  0.88250  1.0000
  H   H29       1.0  0.64980  0.28930  0.88250  1.0000
  H   H30       1.0  0.85020  0.71070  0.38250  1.0000
  H   H31       1.0  0.35020  0.78930  0.61750  1.0000
  H   H32       1.0  0.14980  0.21070  0.11750  1.0000
  H   H33       1.0  0.45510  0.74150  0.14260  1.0000
  H   H34       1.0  0.04490  0.25850  0.64260  1.0000
  H   H35       1.0  0.54490  0.24150  0.35740  1.0000
  H   H36       1.0  0.95510  0.75850  0.85740  1.0000
  H   H37       1.0  0.54490  0.25850  0.85740  1.0000
  H   H38       1.0  0.95510  0.74150  0.35740  1.0000
  H   H39       1.0  0.45510  0.75850  0.64260  1.0000
  H   H40       1.0  0.04490  0.24150  0.14260  1.0000
  H   H41       1.0  0.43050  0.64340  0.14090  1.0000
  H   H42       1.0  0.06950  0.35660  0.64090  1.0000
  H   H43       1.0  0.56950  0.14340  0.35910  1.0000
  H   H44       1.0  0.93050  0.85660  0.85910  1.0000
  H   H45       1.0  0.56950  0.35660  0.85910  1.0000
  H   H46       1.0  0.93050  0.64340  0.35910  1.0000
  H   H47       1.0  0.43050  0.85660  0.64090  1.0000
  H   H48       1.0  0.06950  0.14340  0.14090  1.0000
  O   O1        1.0  0.63181  0.50584  0.94717  1.0000
  O   O2        1.0  0.86819  0.49416  0.44717  1.0000
  O   O3        1.0  0.36819  0.00584  0.55283  1.0000
  O   O4        1.0  0.13181  0.99416  0.05283  1.0000
  O   O5        1.0  0.36819  0.49416  0.05283  1.0000
  O   O6        1.0  0.13181  0.50584  0.55283  1.0000
  O   O7        1.0  0.63181  0.99416  0.44717  1.0000
  O   O8        1.0  0.86819  0.00584  0.94717  1.0000
  O   O9        1.0  0.61705  0.60206  0.84815  1.0000
  O   O10       1.0  0.88295  0.39794  0.34815  1.0000
  O   O11       1.0  0.38295  0.10206  0.65185  1.0000
  O   O12       1.0  0.11705  0.89794  0.15185  1.0000
  O   O13       1.0  0.38295  0.39794  0.15185  1.0000
  O   O14       1.0  0.11705  0.60206  0.65185  1.0000
  O   O15       1.0  0.61705  0.89794  0.34815  1.0000
  O   O16       1.0  0.88295  0.10206  0.84815  1.0000
  O   O17       1.0  0.90642  0.62584  0.65864  1.0000
  O   O18       1.0  0.59358  0.37416  0.15864  1.0000
  O   O19       1.0  0.09358  0.12584  0.84136  1.0000
  O   O20       1.0  0.40642  0.87416  0.34136  1.0000
  O   O21       1.0  0.09358  0.37416  0.34136  1.0000
  O   O22       1.0  0.40642  0.62584  0.84136  1.0000
  O   O23       1.0  0.90642  0.87416  0.15864  1.0000
  O   O24       1.0  0.59358  0.12584  0.65864  1.0000
  O   O25       1.0  0.93622  0.49663  0.60851  1.0000
  O   O26       1.0  0.56378  0.50337  0.10851  1.0000
  O   O27       1.0  0.06378  0.99663  0.89149  1.0000
  O   O28       1.0  0.43622  0.00337  0.39149  1.0000
  O   O29       1.0  0.06378  0.50337  0.39149  1.0000
  O   O30       1.0  0.43622  0.49663  0.89149  1.0000
  O   O31       1.0  0.93622  0.00337  0.10851  1.0000
  O   O32       1.0  0.56378  0.99663  0.60851  1.0000
  O   O33       1.0  0.95606  0.27044  0.80548  1.0000
  O   O34       1.0  0.54394  0.72956  0.30548  1.0000
  O   O35       1.0  0.04394  0.77044  0.69452  1.0000
  O   O36       1.0  0.45606  0.22956  0.19452  1.0000
  O   O37       1.0  0.04394  0.72956  0.19452  1.0000
  O   O38       1.0  0.45606  0.27044  0.69452  1.0000
  O   O39       1.0  0.95606  0.22956  0.30548  1.0000
  O   O40       1.0  0.54394  0.77044  0.80548  1.0000
  O   O41       1.0  0.86994  0.27449  0.91583  1.0000
  O   O42       1.0  0.63006  0.72551  0.41583  1.0000
  O   O43       1.0  0.13006  0.77449  0.58417  1.0000
  O   O44       1.0  0.36994  0.22551  0.08417  1.0000
  O   O45       1.0  0.13006  0.72551  0.08417  1.0000
  O   O46       1.0  0.36994  0.27449  0.58417  1.0000
  O   O47       1.0  0.86994  0.22551  0.41583  1.0000
  O   O48       1.0  0.63006  0.77449  0.91583  1.0000
  O   O49       1.0  0.50215  0.63133  0.00461  1.0000
  O   O50       1.0  0.99785  0.36867  0.50461  1.0000
  O   O51       1.0  0.49785  0.13133  0.49539  1.0000
  O   O52       1.0  0.00215  0.86867  0.99539  1.0000
  O   O53       1.0  0.49785  0.36867  0.99539  1.0000
  O   O54       1.0  0.00215  0.63133  0.49539  1.0000
  O   O55       1.0  0.50215  0.86867  0.50461  1.0000
  O   O56       1.0  0.99785  0.13133  0.00461  1.0000
  O   O57       1.0  0.43062  0.74991  0.97981  1.0000
  O   O58       1.0  0.06938  0.25009  0.47981  1.0000
  O   O59       1.0  0.56938  0.24991  0.52019  1.0000
  O   O60       1.0  0.93062  0.75009  0.02019  1.0000
  O   O61       1.0  0.56938  0.25009  0.02019  1.0000
  O   O62       1.0  0.93062  0.74991  0.52019  1.0000
  O   O63       1.0  0.43062  0.75009  0.47981  1.0000
  O   O64       1.0  0.06938  0.24991  0.97981  1.0000
