data_image0
_chemical_formula_structural       Co12C16H8C16H8C16H8C40H24O64
_chemical_formula_sum              "Co12 C88 H48 O64"
_cell_length_a       14.2616
_cell_length_b       16.1525
_cell_length_c       16.4867
_cell_angle_alpha    90
_cell_angle_beta     90
_cell_angle_gamma    90

_space_group_name_H-M_alt    "P 1"
_space_group_IT_number       1

loop_
  _space_group_symop_operation_xyz
  'x, y, z'

loop_
  _atom_site_type_symbol
  _atom_site_label
  _atom_site_symmetry_multiplicity
  _atom_site_fract_x
  _atom_site_fract_y
  _atom_site_fract_z
  _atom_site_occupancy
  Co  Co1       1.0  0.50000  0.00000  0.50000  1.0000
  Co  Co2       1.0  0.00000  0.00000  0.00000  1.0000
  Co  Co3       1.0  0.50000  0.50000  0.00000  1.0000
  Co  Co4       1.0  0.00000  0.50000  0.50000  1.0000
  Co  Co5       1.0  0.47802  0.18058  0.60932  1.0000
  Co  Co6       1.0  0.02198  0.81942  0.10932  1.0000
  Co  Co7       1.0  0.52198  0.68058  0.89068  1.0000
  Co  Co8       1.0  0.97802  0.31942  0.39068  1.0000
  Co  Co9       1.0  0.52198  0.81942  0.39068  1.0000
  Co  Co10      1.0  0.97802  0.18058  0.89068  1.0000
  Co  Co11      1.0  0.47802  0.31942  0.10932  1.0000
  Co  Co12      1.0  0.02198  0.68058  0.60932  1.0000
  C   C1        1.0  0.25588  0.00323  0.65704  1.0000
  C   C2        1.0  0.24412  0.99677  0.15704  1.0000
  C   C3        1.0  0.74412  0.50323  0.84296  1.0000
  C   C4        1.0  0.75588  0.49677  0.34296  1.0000
  C   C5        1.0  0.74412  0.99677  0.34296  1.0000
  C   C6        1.0  0.75588  0.00323  0.84296  1.0000
  C   C7        1.0  0.25588  0.49677  0.15704  1.0000
  C   C8        1.0  0.24412  0.50323  0.65704  1.0000
  C   C9        1.0  0.21356  0.04475  0.72163  1.0000
  C   C10       1.0  0.28644  0.95525  0.22163  1.0000
  C   C11       1.0  0.78644  0.54475  0.77837  1.0000
  C   C12       1.0  0.71356  0.45525  0.27837  1.0000
  C   C13       1.0  0.78644  0.95525  0.27837  1.0000
  C   C14       1.0  0.71356  0.04475  0.77837  1.0000
  C   C15       1.0  0.21356  0.45525  0.22163  1.0000
  C   C16       1.0  0.28644  0.54475  0.72163  1.0000
  H   H1        1.0  0.23360  0.09880  0.73620  1.0000
  H   H2        1.0  0.26640  0.90120  0.23620  1.0000
  H   H3        1.0  0.76640  0.59880  0.76380  1.0000
  H   H4        1.0  0.73360  0.40120  0.26380  1.0000
  H   H5        1.0  0.76640  0.90120  0.26380  1.0000
  H   H6        1.0  0.73360  0.09880  0.76380  1.0000
  H   H7        1.0  0.23360  0.40120  0.23620  1.0000
  H   H8        1.0  0.26640  0.59880  0.73620  1.0000
  C   C17       1.0  0.14173  0.00622  0.76461  1.0000
  C   C18       1.0  0.35827  0.99378  0.26461  1.0000
  C   C19       1.0  0.85827  0.50622  0.73539  1.0000
  C   C20       1.0  0.64173  0.49378  0.23539  1.0000
  C   C21       1.0  0.85827  0.99378  0.23539  1.0000
  C   C22       1.0  0.64173  0.00622  0.73539  1.0000
  C   C23       1.0  0.14173  0.49378  0.26461  1.0000
  C   C24       1.0  0.35827  0.50622  0.76461  1.0000
  C   C25       1.0  0.11188  0.92728  0.74271  1.0000
  C   C26       1.0  0.38812  0.07272  0.24271  1.0000
  C   C27       1.0  0.88812  0.42728  0.75729  1.0000
  C   C28       1.0  0.61188  0.57272  0.25729  1.0000
  C   C29       1.0  0.88812  0.07272  0.25729  1.0000
  C   C30       1.0  0.61188  0.92728  0.75729  1.0000
  C   C31       1.0  0.11188  0.57272  0.24271  1.0000
  C   C32       1.0  0.38812  0.42728  0.74271  1.0000
  H   H9        1.0  0.06580  0.89980  0.77450  1.0000
  H   H10       1.0  0.43420  0.10020  0.27450  1.0000
  H   H11       1.0  0.93420  0.39980  0.72550  1.0000
  H   H12       1.0  0.56580  0.60020  0.22550  1.0000
  H   H13       1.0  0.93420  0.10020  0.22550  1.0000
  H   H14       1.0  0.56580  0.89980  0.72550  1.0000
  H   H15       1.0  0.06580  0.60020  0.27450  1.0000
  H   H16       1.0  0.43420  0.39980  0.77450  1.0000
  C   C33       1.0  0.14889  0.88835  0.67482  1.0000
  C   C34       1.0  0.35111  0.11165  0.17482  1.0000
  C   C35       1.0  0.85111  0.38835  0.82518  1.0000
  C   C36       1.0  0.64889  0.61165  0.32518  1.0000
  C   C37       1.0  0.85111  0.11165  0.32518  1.0000
  C   C38       1.0  0.64889  0.88835  0.82518  1.0000
  C   C39       1.0  0.14889  0.61165  0.17482  1.0000
  C   C40       1.0  0.35111  0.38835  0.67482  1.0000
  C   C41       1.0  0.22175  0.92671  0.63189  1.0000
  C   C42       1.0  0.27825  0.07329  0.13189  1.0000
  C   C43       1.0  0.77825  0.42671  0.86811  1.0000
  C   C44       1.0  0.72175  0.57329  0.36811  1.0000
  C   C45       1.0  0.77825  0.07329  0.36811  1.0000
  C   C46       1.0  0.72175  0.92671  0.86811  1.0000
  C   C47       1.0  0.22175  0.57329  0.13189  1.0000
  C   C48       1.0  0.27825  0.42671  0.63189  1.0000
  H   H17       1.0  0.24790  0.90040  0.58560  1.0000
  H   H18       1.0  0.25210  0.09960  0.08560  1.0000
  H   H19       1.0  0.75210  0.40040  0.91440  1.0000
  H   H20       1.0  0.74790  0.59960  0.41440  1.0000
  H   H21       1.0  0.75210  0.09960  0.41440  1.0000
  H   H22       1.0  0.74790  0.90040  0.91440  1.0000
  H   H23       1.0  0.24790  0.59960  0.08560  1.0000
  H   H24       1.0  0.25210  0.40040  0.58560  1.0000
  C   C49       1.0  0.34072  0.03968  0.61636  1.0000
  C   C50       1.0  0.15928  0.96032  0.11636  1.0000
  C   C51       1.0  0.65928  0.53968  0.88364  1.0000
  C   C52       1.0  0.84072  0.46032  0.38364  1.0000
  C   C53       1.0  0.65928  0.96032  0.38364  1.0000
  C   C54       1.0  0.84072  0.03968  0.88364  1.0000
  C   C55       1.0  0.34072  0.46032  0.11636  1.0000
  C   C56       1.0  0.15928  0.53968  0.61636  1.0000
  C   C57       1.0  0.09400  0.04751  0.83540  1.0000
  C   C58       1.0  0.40600  0.95249  0.33540  1.0000
  C   C59       1.0  0.90600  0.54751  0.66460  1.0000
  C   C60       1.0  0.59400  0.45249  0.16460  1.0000
  C   C61       1.0  0.90600  0.95249  0.16460  1.0000
  C   C62       1.0  0.59400  0.04751  0.66460  1.0000
  C   C63       1.0  0.09400  0.45249  0.33540  1.0000
  C   C64       1.0  0.40600  0.54751  0.83540  1.0000
  C   C65       1.0  0.10902  0.80743  0.64687  1.0000
  C   C66       1.0  0.39098  0.19257  0.14687  1.0000
  C   C67       1.0  0.89098  0.30743  0.85313  1.0000
  C   C68       1.0  0.60902  0.69257  0.35313  1.0000
  C   C69       1.0  0.89098  0.19257  0.35313  1.0000
  C   C70       1.0  0.60902  0.80743  0.85313  1.0000
  C   C71       1.0  0.10902  0.69257  0.14687  1.0000
  C   C72       1.0  0.39098  0.30743  0.64687  1.0000
  C   C73       1.0  0.54800  0.19182  0.46913  1.0000
  C   C74       1.0  0.95200  0.80818  0.96913  1.0000
  C   C75       1.0  0.45200  0.69182  0.03087  1.0000
  C   C76       1.0  0.04800  0.30818  0.53087  1.0000
  C   C77       1.0  0.45200  0.80818  0.53087  1.0000
  C   C78       1.0  0.04800  0.19182  0.03087  1.0000
  C   C79       1.0  0.54800  0.30818  0.96913  1.0000
  C   C80       1.0  0.95200  0.69182  0.46913  1.0000
  C   C81       1.0  0.57907  0.19411  0.38223  1.0000
  C   C82       1.0  0.92093  0.80589  0.88223  1.0000
  C   C83       1.0  0.42093  0.69411  0.11777  1.0000
  C   C84       1.0  0.07907  0.30589  0.61777  1.0000
  C   C85       1.0  0.42093  0.80589  0.61777  1.0000
  C   C86       1.0  0.07907  0.19411  0.11777  1.0000
  C   C87       1.0  0.57907  0.30589  0.88223  1.0000
  C   C88       1.0  0.92093  0.69411  0.38223  1.0000
  H   H25       1.0  0.61760  0.24350  0.37300  1.0000
  H   H26       1.0  0.88240  0.75650  0.87300  1.0000
  H   H27       1.0  0.38240  0.74350  0.12700  1.0000
  H   H28       1.0  0.11760  0.25650  0.62700  1.0000
  H   H29       1.0  0.38240  0.75650  0.62700  1.0000
  H   H30       1.0  0.11760  0.24350  0.12700  1.0000
  H   H31       1.0  0.61760  0.25650  0.87300  1.0000
  H   H32       1.0  0.88240  0.74350  0.37300  1.0000
  H   H33       1.0  0.52390  0.19590  0.34680  1.0000
  H   H34       1.0  0.97610  0.80410  0.84680  1.0000
  H   H35       1.0  0.47610  0.69590  0.15320  1.0000
  H   H36       1.0  0.02390  0.30410  0.65320  1.0000
  H   H37       1.0  0.47610  0.80410  0.65320  1.0000
  H   H38       1.0  0.02390  0.19590  0.15320  1.0000
  H   H39       1.0  0.52390  0.30410  0.84680  1.0000
  H   H40       1.0  0.97610  0.69590  0.34680  1.0000
  H   H41       1.0  0.61600  0.14440  0.37010  1.0000
  H   H42       1.0  0.88400  0.85560  0.87010  1.0000
  H   H43       1.0  0.38400  0.64440  0.12990  1.0000
  H   H44       1.0  0.11600  0.35560  0.62990  1.0000
  H   H45       1.0  0.38400  0.85560  0.62990  1.0000
  H   H46       1.0  0.11600  0.14440  0.12990  1.0000
  H   H47       1.0  0.61600  0.35560  0.87010  1.0000
  H   H48       1.0  0.88400  0.64440  0.37010  1.0000
  O   O1        1.0  0.36775  0.00469  0.55185  1.0000
  O   O2        1.0  0.13225  0.99531  0.05185  1.0000
  O   O3        1.0  0.63225  0.50469  0.94815  1.0000
  O   O4        1.0  0.86775  0.49531  0.44815  1.0000
  O   O5        1.0  0.63225  0.99531  0.44815  1.0000
  O   O6        1.0  0.86775  0.00469  0.94815  1.0000
  O   O7        1.0  0.36775  0.49531  0.05185  1.0000
  O   O8        1.0  0.13225  0.50469  0.55185  1.0000
  O   O9        1.0  0.37804  0.10134  0.65041  1.0000
  O   O10       1.0  0.12196  0.89866  0.15041  1.0000
  O   O11       1.0  0.62196  0.60134  0.84959  1.0000
  O   O12       1.0  0.87804  0.39866  0.34959  1.0000
  O   O13       1.0  0.62196  0.89866  0.34959  1.0000
  O   O14       1.0  0.87804  0.10134  0.84959  1.0000
  O   O15       1.0  0.37804  0.39866  0.15041  1.0000
  O   O16       1.0  0.12196  0.60134  0.65041  1.0000
  O   O17       1.0  0.09043  0.12568  0.83581  1.0000
  O   O18       1.0  0.40957  0.87432  0.33581  1.0000
  O   O19       1.0  0.90957  0.62568  0.66419  1.0000
  O   O20       1.0  0.59043  0.37432  0.16419  1.0000
  O   O21       1.0  0.90957  0.87432  0.16419  1.0000
  O   O22       1.0  0.59043  0.12568  0.66419  1.0000
  O   O23       1.0  0.09043  0.37432  0.33581  1.0000
  O   O24       1.0  0.40957  0.62568  0.83581  1.0000
  O   O25       1.0  0.06050  0.99951  0.88762  1.0000
  O   O26       1.0  0.43950  0.00049  0.38762  1.0000
  O   O27       1.0  0.93950  0.49951  0.61238  1.0000
  O   O28       1.0  0.56050  0.50049  0.11238  1.0000
  O   O29       1.0  0.93950  0.00049  0.11238  1.0000
  O   O30       1.0  0.56050  0.99951  0.61238  1.0000
  O   O31       1.0  0.06050  0.50049  0.38762  1.0000
  O   O32       1.0  0.43950  0.49951  0.88762  1.0000
  O   O33       1.0  0.04423  0.77520  0.68949  1.0000
  O   O34       1.0  0.45577  0.22480  0.18949  1.0000
  O   O35       1.0  0.95577  0.27520  0.81051  1.0000
  O   O36       1.0  0.54423  0.72480  0.31051  1.0000
  O   O37       1.0  0.95577  0.22480  0.31051  1.0000
  O   O38       1.0  0.54423  0.77520  0.81051  1.0000
  O   O39       1.0  0.04423  0.72480  0.18949  1.0000
  O   O40       1.0  0.45577  0.27520  0.68949  1.0000
  O   O41       1.0  0.13716  0.77461  0.58271  1.0000
  O   O42       1.0  0.36284  0.22539  0.08271  1.0000
  O   O43       1.0  0.86284  0.27461  0.91729  1.0000
  O   O44       1.0  0.63716  0.72539  0.41729  1.0000
  O   O45       1.0  0.86284  0.22539  0.41729  1.0000
  O   O46       1.0  0.63716  0.77461  0.91729  1.0000
  O   O47       1.0  0.13716  0.72539  0.08271  1.0000
  O   O48       1.0  0.36284  0.27461  0.58271  1.0000
  O   O49       1.0  0.49656  0.13162  0.49365  1.0000
  O   O50       1.0  0.00344  0.86838  0.99365  1.0000
  O   O51       1.0  0.50344  0.63162  0.00635  1.0000
  O   O52       1.0  0.99656  0.36838  0.50635  1.0000
  O   O53       1.0  0.50344  0.86838  0.50635  1.0000
  O   O54       1.0  0.99656  0.13162  0.00635  1.0000
  O   O55       1.0  0.49656  0.36838  0.99365  1.0000
  O   O56       1.0  0.00344  0.63162  0.49365  1.0000
  O   O57       1.0  0.56694  0.24871  0.51732  1.0000
  O   O58       1.0  0.93306  0.75129  0.01732  1.0000
  O   O59       1.0  0.43306  0.74871  0.98268  1.0000
  O   O60       1.0  0.06694  0.25129  0.48268  1.0000
  O   O61       1.0  0.43306  0.75129  0.48268  1.0000
  O   O62       1.0  0.06694  0.24871  0.98268  1.0000
  O   O63       1.0  0.56694  0.25129  0.01732  1.0000
  O   O64       1.0  0.93306  0.74871  0.51732  1.0000
