data_image0
_chemical_formula_structural       Ni4C4H4C4H4C4H4O24
_chemical_formula_sum              "Ni4 C12 H12 O24"
_cell_length_a       7.6225
_cell_length_b       7.7814
_cell_length_c       12.728
_cell_angle_alpha    90
_cell_angle_beta     90
_cell_angle_gamma    90

_space_group_name_H-M_alt    "P 1"
_space_group_IT_number       1

loop_
  _space_group_symop_operation_xyz
  'x, y, z'

loop_
  _atom_site_type_symbol
  _atom_site_label
  _atom_site_symmetry_multiplicity
  _atom_site_fract_x
  _atom_site_fract_y
  _atom_site_fract_z
  _atom_site_occupancy
  Ni  Ni1       1.0  0.54104  0.49249  0.08105  1.0000
  Ni  Ni2       1.0  0.95896  0.50751  0.58105  1.0000
  Ni  Ni3       1.0  0.45896  0.99249  0.41895  1.0000
  Ni  Ni4       1.0  0.04104  0.00751  0.91895  1.0000
  C   C1        1.0  0.44650  0.23540  0.24310  1.0000
  C   C2        1.0  0.05350  0.76460  0.74310  1.0000
  C   C3        1.0  0.55350  0.73540  0.25690  1.0000
  C   C4        1.0  0.94650  0.26460  0.75690  1.0000
  H   H1        1.0  0.56040  0.19640  0.23240  1.0000
  H   H2        1.0  0.93960  0.80360  0.73240  1.0000
  H   H3        1.0  0.43960  0.69640  0.26760  1.0000
  H   H4        1.0  0.06040  0.30360  0.76760  1.0000
  C   C5        1.0  0.27950  0.76980  0.02330  1.0000
  C   C6        1.0  0.22050  0.23020  0.52330  1.0000
  C   C7        1.0  0.72050  0.26980  0.47670  1.0000
  C   C8        1.0  0.77950  0.73020  0.97670  1.0000
  H   H5        1.0  0.35570  0.79950  0.96920  1.0000
  H   H6        1.0  0.14430  0.20050  0.46920  1.0000
  H   H7        1.0  0.64430  0.29950  0.53080  1.0000
  H   H8        1.0  0.85570  0.70050  0.03080  1.0000
  C   C9        1.0  0.31710  0.25780  0.96450  1.0000
  C   C10       1.0  0.18290  0.74220  0.46450  1.0000
  C   C11       1.0  0.68290  0.75780  0.53550  1.0000
  C   C12       1.0  0.81710  0.24220  0.03550  1.0000
  H   H9        1.0  0.24440  0.27870  0.02180  1.0000
  H   H10       1.0  0.25560  0.72130  0.52180  1.0000
  H   H11       1.0  0.75560  0.77870  0.47820  1.0000
  H   H12       1.0  0.74440  0.22130  0.97820  1.0000
  O   O1        1.0  0.39470  0.36050  0.19037  1.0000
  O   O2        1.0  0.10530  0.63950  0.69037  1.0000
  O   O3        1.0  0.60530  0.86050  0.30963  1.0000
  O   O4        1.0  0.89470  0.13950  0.80963  1.0000
  O   O5        1.0  0.35300  0.15870  0.30999  1.0000
  O   O6        1.0  0.14700  0.84130  0.80999  1.0000
  O   O7        1.0  0.64700  0.65870  0.19001  1.0000
  O   O8        1.0  0.85300  0.34130  0.69001  1.0000
  O   O9        1.0  0.31450  0.63820  0.07638  1.0000
  O   O10       1.0  0.18550  0.36180  0.57638  1.0000
  O   O11       1.0  0.68550  0.13820  0.42362  1.0000
  O   O12       1.0  0.81450  0.86180  0.92362  1.0000
  O   O13       1.0  0.14870  0.86330  0.03855  1.0000
  O   O14       1.0  0.35130  0.13670  0.53855  1.0000
  O   O15       1.0  0.85130  0.36330  0.46145  1.0000
  O   O16       1.0  0.64870  0.63670  0.96145  1.0000
  O   O17       1.0  0.45690  0.33870  0.96014  1.0000
  O   O18       1.0  0.04310  0.66130  0.46014  1.0000
  O   O19       1.0  0.54310  0.83870  0.53986  1.0000
  O   O20       1.0  0.95690  0.16130  0.03986  1.0000
  O   O21       1.0  0.26510  0.14910  0.89765  1.0000
  O   O22       1.0  0.23490  0.85090  0.39765  1.0000
  O   O23       1.0  0.73490  0.64910  0.60235  1.0000
  O   O24       1.0  0.76510  0.35090  0.10235  1.0000
