data_image0
_chemical_formula_structural       Mn4C4H4C4H4C4H4O24
_chemical_formula_sum              "Mn4 C12 H12 O24"
_cell_length_a       7.8121
_cell_length_b       7.9612
_cell_length_c       13.1728
_cell_angle_alpha    90
_cell_angle_beta     90
_cell_angle_gamma    90

_space_group_name_H-M_alt    "P 1"
_space_group_IT_number       1

loop_
  _space_group_symop_operation_xyz
  'x, y, z'

loop_
  _atom_site_type_symbol
  _atom_site_label
  _atom_site_symmetry_multiplicity
  _atom_site_fract_x
  _atom_site_fract_y
  _atom_site_fract_z
  _atom_site_occupancy
  Mn  Mn1       1.0  0.55335  0.49461  0.08543  1.0000
  Mn  Mn2       1.0  0.94665  0.50539  0.58543  1.0000
  Mn  Mn3       1.0  0.44665  0.99461  0.41457  1.0000
  Mn  Mn4       1.0  0.05335  0.00539  0.91457  1.0000
  C   C1        1.0  0.41580  0.22490  0.23529  1.0000
  C   C2        1.0  0.08420  0.77510  0.73529  1.0000
  C   C3        1.0  0.58420  0.72490  0.26471  1.0000
  C   C4        1.0  0.91580  0.27510  0.76471  1.0000
  H   H1        1.0  0.52020  0.17360  0.22150  1.0000
  H   H2        1.0  0.97980  0.82640  0.72150  1.0000
  H   H3        1.0  0.47980  0.67360  0.27850  1.0000
  H   H4        1.0  0.02020  0.32640  0.77850  1.0000
  C   C5        1.0  0.29310  0.77220  0.03257  1.0000
  C   C6        1.0  0.20690  0.22780  0.53257  1.0000
  C   C7        1.0  0.70690  0.27220  0.46743  1.0000
  C   C8        1.0  0.79310  0.72780  0.96743  1.0000
  H   H5        1.0  0.35690  0.77910  0.97310  1.0000
  H   H6        1.0  0.14310  0.22090  0.47310  1.0000
  H   H7        1.0  0.64310  0.27910  0.52690  1.0000
  H   H8        1.0  0.85690  0.72090  0.02690  1.0000
  C   C9        1.0  0.31190  0.27680  0.95870  1.0000
  C   C10       1.0  0.18810  0.72320  0.45870  1.0000
  C   C11       1.0  0.68810  0.77680  0.54130  1.0000
  C   C12       1.0  0.81190  0.22320  0.04130  1.0000
  H   H9        1.0  0.23900  0.29520  0.01340  1.0000
  H   H10       1.0  0.26100  0.70480  0.51340  1.0000
  H   H11       1.0  0.76100  0.79520  0.48660  1.0000
  H   H12       1.0  0.73900  0.20480  0.98660  1.0000
  O   O1        1.0  0.38550  0.36010  0.19145  1.0000
  O   O2        1.0  0.11450  0.63990  0.69145  1.0000
  O   O3        1.0  0.61450  0.86010  0.30855  1.0000
  O   O4        1.0  0.88550  0.13990  0.80855  1.0000
  O   O5        1.0  0.31790  0.15170  0.29651  1.0000
  O   O6        1.0  0.18210  0.84830  0.79651  1.0000
  O   O7        1.0  0.68210  0.65170  0.20349  1.0000
  O   O8        1.0  0.81790  0.34830  0.70349  1.0000
  O   O9        1.0  0.34230  0.67000  0.09459  1.0000
  O   O10       1.0  0.15770  0.33000  0.59459  1.0000
  O   O11       1.0  0.65770  0.17000  0.40541  1.0000
  O   O12       1.0  0.84230  0.83000  0.90541  1.0000
  O   O13       1.0  0.16880  0.86830  0.03839  1.0000
  O   O14       1.0  0.33120  0.13170  0.53839  1.0000
  O   O15       1.0  0.83120  0.36830  0.46161  1.0000
  O   O16       1.0  0.66880  0.63170  0.96161  1.0000
  O   O17       1.0  0.45110  0.35050  0.96043  1.0000
  O   O18       1.0  0.04890  0.64950  0.46043  1.0000
  O   O19       1.0  0.54890  0.85050  0.53957  1.0000
  O   O20       1.0  0.95110  0.14950  0.03957  1.0000
  O   O21       1.0  0.25930  0.18000  0.89068  1.0000
  O   O22       1.0  0.24070  0.82000  0.39068  1.0000
  O   O23       1.0  0.74070  0.68000  0.60932  1.0000
  O   O24       1.0  0.75930  0.32000  0.10932  1.0000
