data_image0
_chemical_formula_structural       Co4C4H4C4H4C4H4O24
_chemical_formula_sum              "Co4 C12 H12 O24"
_cell_length_a       7.6839
_cell_length_b       7.7555
_cell_length_c       13.0195
_cell_angle_alpha    90
_cell_angle_beta     90
_cell_angle_gamma    90

_space_group_name_H-M_alt    "P 1"
_space_group_IT_number       1

loop_
  _space_group_symop_operation_xyz
  'x, y, z'

loop_
  _atom_site_type_symbol
  _atom_site_label
  _atom_site_symmetry_multiplicity
  _atom_site_fract_x
  _atom_site_fract_y
  _atom_site_fract_z
  _atom_site_occupancy
  Co  Co1       1.0  0.55048  0.49456  0.08481  1.0000
  Co  Co2       1.0  0.94952  0.50544  0.58481  1.0000
  Co  Co3       1.0  0.44952  0.99456  0.41519  1.0000
  Co  Co4       1.0  0.05048  0.00544  0.91519  1.0000
  C   C1        1.0  0.42590  0.22600  0.23840  1.0000
  C   C2        1.0  0.07410  0.77400  0.73840  1.0000
  C   C3        1.0  0.57410  0.72600  0.26160  1.0000
  C   C4        1.0  0.92590  0.27400  0.76160  1.0000
  H   H1        1.0  0.53350  0.17520  0.22620  1.0000
  H   H2        1.0  0.96650  0.82480  0.72620  1.0000
  H   H3        1.0  0.46650  0.67520  0.27380  1.0000
  H   H4        1.0  0.03350  0.32480  0.77380  1.0000
  C   C5        1.0  0.29310  0.76960  0.02620  1.0000
  C   C6        1.0  0.20690  0.23040  0.52620  1.0000
  C   C7        1.0  0.70690  0.26960  0.47380  1.0000
  C   C8        1.0  0.79310  0.73040  0.97380  1.0000
  H   H5        1.0  0.35590  0.77440  0.96520  1.0000
  H   H6        1.0  0.14410  0.22560  0.46520  1.0000
  H   H7        1.0  0.64410  0.27440  0.53480  1.0000
  H   H8        1.0  0.85590  0.72560  0.03480  1.0000
  C   C9        1.0  0.31350  0.26820  0.96450  1.0000
  C   C10       1.0  0.18650  0.73180  0.46450  1.0000
  C   C11       1.0  0.68650  0.76820  0.53550  1.0000
  C   C12       1.0  0.81350  0.23180  0.03550  1.0000
  H   H9        1.0  0.24630  0.27710  0.02370  1.0000
  H   H10       1.0  0.25370  0.72290  0.52370  1.0000
  H   H11       1.0  0.75370  0.77710  0.47630  1.0000
  H   H12       1.0  0.74630  0.22290  0.97630  1.0000
  O   O1        1.0  0.39290  0.36330  0.19142  1.0000
  O   O2        1.0  0.10710  0.63670  0.69142  1.0000
  O   O3        1.0  0.60710  0.86330  0.30858  1.0000
  O   O4        1.0  0.89290  0.13670  0.80858  1.0000
  O   O5        1.0  0.32710  0.15210  0.29978  1.0000
  O   O6        1.0  0.17290  0.84790  0.79978  1.0000
  O   O7        1.0  0.67290  0.65210  0.20022  1.0000
  O   O8        1.0  0.82710  0.34790  0.70022  1.0000
  O   O9        1.0  0.34100  0.66460  0.09035  1.0000
  O   O10       1.0  0.15900  0.33540  0.59035  1.0000
  O   O11       1.0  0.65900  0.16460  0.40965  1.0000
  O   O12       1.0  0.84100  0.83540  0.90965  1.0000
  O   O13       1.0  0.16780  0.87110  0.03503  1.0000
  O   O14       1.0  0.33220  0.12890  0.53503  1.0000
  O   O15       1.0  0.83220  0.37110  0.46497  1.0000
  O   O16       1.0  0.66780  0.62890  0.96497  1.0000
  O   O17       1.0  0.45140  0.35180  0.96220  1.0000
  O   O18       1.0  0.04860  0.64820  0.46220  1.0000
  O   O19       1.0  0.54860  0.85180  0.53780  1.0000
  O   O20       1.0  0.95140  0.14820  0.03780  1.0000
  O   O21       1.0  0.25660  0.17240  0.89391  1.0000
  O   O22       1.0  0.24340  0.82760  0.39391  1.0000
  O   O23       1.0  0.74340  0.67240  0.60609  1.0000
  O   O24       1.0  0.75660  0.32760  0.10609  1.0000
