data_image0
_chemical_formula_structural       In12O48N8O24C32N8C32H8O8C8H8C8H8C16H8C8H8C8H8C16H8C16H8C16H8C8H8C8H8C8H8C32O8C8H8C8H8C8H8C8H8C8H8C16H8C16H8C16H8C8H8C8H8C8H8C8H8O8
_chemical_formula_sum              "In12 O96 N16 C336 H192"
_cell_length_a       21.3125
_cell_length_b       42.5673
_cell_length_c       12.9321
_cell_angle_alpha    90
_cell_angle_beta     94.654
_cell_angle_gamma    90

_space_group_name_H-M_alt    "P 1"
_space_group_IT_number       1

loop_
  _space_group_symop_operation_xyz
  'x, y, z'

loop_
  _atom_site_type_symbol
  _atom_site_label
  _atom_site_symmetry_multiplicity
  _atom_site_fract_x
  _atom_site_fract_y
  _atom_site_fract_z
  _atom_site_occupancy
  In  In1       1.0  0.50000  0.59602  0.25000  1.0000
  In  In2       1.0  0.00000  0.09602  0.25000  1.0000
  In  In3       1.0  0.50000  0.40398  0.75000  1.0000
  In  In4       1.0  0.00000  0.90398  0.75000  1.0000
  In  In5       1.0  0.13389  0.34526  0.55772  1.0000
  In  In6       1.0  0.86611  0.34526  0.94228  1.0000
  In  In7       1.0  0.63389  0.84526  0.55772  1.0000
  In  In8       1.0  0.36611  0.84526  0.94228  1.0000
  In  In9       1.0  0.86611  0.65474  0.44228  1.0000
  In  In10      1.0  0.13389  0.65474  0.05772  1.0000
  In  In11      1.0  0.36611  0.15474  0.44228  1.0000
  In  In12      1.0  0.63389  0.15474  0.05772  1.0000
  O   O1        1.0  0.02660  0.12041  0.10470  1.0000
  O   O2        1.0  0.97340  0.12041  0.39530  1.0000
  O   O3        1.0  0.52660  0.62041  0.10470  1.0000
  O   O4        1.0  0.47340  0.62041  0.39530  1.0000
  O   O5        1.0  0.97340  0.87959  0.89530  1.0000
  O   O6        1.0  0.02660  0.87959  0.60470  1.0000
  O   O7        1.0  0.47340  0.37959  0.89530  1.0000
  O   O8        1.0  0.52660  0.37959  0.60470  1.0000
  O   O9        1.0  0.43410  0.55729  0.28390  1.0000
  O   O10       1.0  0.56590  0.55729  0.21610  1.0000
  O   O11       1.0  0.93410  0.05729  0.28390  1.0000
  O   O12       1.0  0.06590  0.05729  0.21610  1.0000
  O   O13       1.0  0.56590  0.44271  0.71610  1.0000
  O   O14       1.0  0.43410  0.44271  0.78390  1.0000
  O   O15       1.0  0.06590  0.94271  0.71610  1.0000
  O   O16       1.0  0.93410  0.94271  0.78390  1.0000
  O   O17       1.0  0.55620  0.18434  0.97190  1.0000
  O   O18       1.0  0.44380  0.18434  0.52810  1.0000
  O   O19       1.0  0.05620  0.68434  0.97190  1.0000
  O   O20       1.0  0.94380  0.68434  0.52810  1.0000
  O   O21       1.0  0.44380  0.81566  0.02810  1.0000
  O   O22       1.0  0.55620  0.81566  0.47190  1.0000
  O   O23       1.0  0.94380  0.31566  0.02810  1.0000
  O   O24       1.0  0.05620  0.31566  0.47190  1.0000
  O   O25       1.0  0.53120  0.14548  0.07140  1.0000
  O   O26       1.0  0.46880  0.14548  0.42860  1.0000
  O   O27       1.0  0.03120  0.64548  0.07140  1.0000
  O   O28       1.0  0.96880  0.64548  0.42860  1.0000
  O   O29       1.0  0.46880  0.85452  0.92860  1.0000
  O   O30       1.0  0.53120  0.85452  0.57140  1.0000
  O   O31       1.0  0.96880  0.35452  0.92860  1.0000
  O   O32       1.0  0.03120  0.35452  0.57140  1.0000
  O   O33       1.0  0.08040  0.13126  0.24850  1.0000
  O   O34       1.0  0.91960  0.13126  0.25150  1.0000
  O   O35       1.0  0.58040  0.63126  0.24850  1.0000
  O   O36       1.0  0.41960  0.63126  0.25150  1.0000
  O   O37       1.0  0.91960  0.86874  0.75150  1.0000
  O   O38       1.0  0.08040  0.86874  0.74850  1.0000
  O   O39       1.0  0.41960  0.36874  0.75150  1.0000
  O   O40       1.0  0.58040  0.36874  0.74850  1.0000
  O   O41       1.0  0.18670  0.35046  0.41880  1.0000
  O   O42       1.0  0.81330  0.35046  0.08120  1.0000
  O   O43       1.0  0.68670  0.85046  0.41880  1.0000
  O   O44       1.0  0.31330  0.85046  0.08120  1.0000
  O   O45       1.0  0.81330  0.64954  0.58120  1.0000
  O   O46       1.0  0.18670  0.64954  0.91880  1.0000
  O   O47       1.0  0.31330  0.14954  0.58120  1.0000
  O   O48       1.0  0.68670  0.14954  0.91880  1.0000
  N   N1        1.0  0.25460  0.19285  0.91840  1.0000
  N   N2        1.0  0.74540  0.19285  0.58160  1.0000
  N   N3        1.0  0.75460  0.69285  0.91840  1.0000
  N   N4        1.0  0.24540  0.69285  0.58160  1.0000
  N   N5        1.0  0.74540  0.80715  0.08160  1.0000
  N   N6        1.0  0.25460  0.80715  0.41840  1.0000
  N   N7        1.0  0.24540  0.30715  0.08160  1.0000
  N   N8        1.0  0.75460  0.30715  0.41840  1.0000
  O   O49       1.0  0.43180  0.57232  0.12280  1.0000
  O   O50       1.0  0.56820  0.57232  0.37720  1.0000
  O   O51       1.0  0.93180  0.07232  0.12280  1.0000
  O   O52       1.0  0.06820  0.07232  0.37720  1.0000
  O   O53       1.0  0.56820  0.42768  0.87720  1.0000
  O   O54       1.0  0.43180  0.42768  0.62280  1.0000
  O   O55       1.0  0.06820  0.92768  0.87720  1.0000
  O   O56       1.0  0.93180  0.92768  0.62280  1.0000
  O   O57       1.0  0.19460  0.29945  0.57340  1.0000
  O   O58       1.0  0.80540  0.29945  0.92660  1.0000
  O   O59       1.0  0.69460  0.79945  0.57340  1.0000
  O   O60       1.0  0.30540  0.79945  0.92660  1.0000
  O   O61       1.0  0.80540  0.70055  0.42660  1.0000
  O   O62       1.0  0.19460  0.70055  0.07340  1.0000
  O   O63       1.0  0.30540  0.20055  0.42660  1.0000
  O   O64       1.0  0.69460  0.20055  0.07340  1.0000
  O   O65       1.0  0.12980  0.31277  0.69040  1.0000
  O   O66       1.0  0.87020  0.31277  0.80960  1.0000
  O   O67       1.0  0.62980  0.81277  0.69040  1.0000
  O   O68       1.0  0.37020  0.81277  0.80960  1.0000
  O   O69       1.0  0.87020  0.68723  0.30960  1.0000
  O   O70       1.0  0.12980  0.68723  0.19040  1.0000
  O   O71       1.0  0.37020  0.18723  0.30960  1.0000
  O   O72       1.0  0.62980  0.18723  0.19040  1.0000
  C   C1        1.0  0.11950  0.15042  0.09230  1.0000
  C   C2        1.0  0.88050  0.15042  0.40770  1.0000
  C   C3        1.0  0.61950  0.65042  0.09230  1.0000
  C   C4        1.0  0.38050  0.65042  0.40770  1.0000
  C   C5        1.0  0.88050  0.84958  0.90770  1.0000
  C   C6        1.0  0.11950  0.84958  0.59230  1.0000
  C   C7        1.0  0.38050  0.34958  0.90770  1.0000
  C   C8        1.0  0.61950  0.34958  0.59230  1.0000
  C   C9        1.0  0.44680  0.17490  0.98590  1.0000
  C   C10       1.0  0.55320  0.17490  0.51410  1.0000
  C   C11       1.0  0.94680  0.67490  0.98590  1.0000
  C   C12       1.0  0.05320  0.67490  0.51410  1.0000
  C   C13       1.0  0.55320  0.82510  0.01410  1.0000
  C   C14       1.0  0.44680  0.82510  0.48590  1.0000
  C   C15       1.0  0.05320  0.32510  0.01410  1.0000
  C   C16       1.0  0.94680  0.32510  0.48590  1.0000
  C   C17       1.0  0.31870  0.18654  0.94010  1.0000
  C   C18       1.0  0.68130  0.18654  0.55990  1.0000
  C   C19       1.0  0.81870  0.68654  0.94010  1.0000
  C   C20       1.0  0.18130  0.68654  0.55990  1.0000
  C   C21       1.0  0.68130  0.81346  0.05990  1.0000
  C   C22       1.0  0.31870  0.81346  0.44010  1.0000
  C   C23       1.0  0.18130  0.31346  0.05990  1.0000
  C   C24       1.0  0.81870  0.31346  0.44010  1.0000
  C   C25       1.0  0.37140  0.52697  0.15780  1.0000
  C   C26       1.0  0.62860  0.52697  0.34220  1.0000
  C   C27       1.0  0.87140  0.02697  0.15780  1.0000
  C   C28       1.0  0.12860  0.02697  0.34220  1.0000
  C   C29       1.0  0.62860  0.47303  0.84220  1.0000
  C   C30       1.0  0.37140  0.47303  0.65780  1.0000
  C   C31       1.0  0.12860  0.97303  0.84220  1.0000
  C   C32       1.0  0.87140  0.97303  0.65780  1.0000
  N   N9        1.0  0.25950  0.44909  0.07590  1.0000
  N   N10       1.0  0.74050  0.44909  0.42410  1.0000
  N   N11       1.0  0.75950  0.94909  0.07590  1.0000
  N   N12       1.0  0.24050  0.94909  0.42410  1.0000
  N   N13       1.0  0.74050  0.55091  0.92410  1.0000
  N   N14       1.0  0.25950  0.55091  0.57590  1.0000
  N   N15       1.0  0.24050  0.05091  0.92410  1.0000
  N   N16       1.0  0.75950  0.05091  0.57590  1.0000
  C   C33       1.0  0.07210  0.13369  0.15150  1.0000
  C   C34       1.0  0.92790  0.13369  0.34850  1.0000
  C   C35       1.0  0.57210  0.63369  0.15150  1.0000
  C   C36       1.0  0.42790  0.63369  0.34850  1.0000
  C   C37       1.0  0.92790  0.86631  0.84850  1.0000
  C   C38       1.0  0.07210  0.86631  0.65150  1.0000
  C   C39       1.0  0.42790  0.36631  0.84850  1.0000
  C   C40       1.0  0.57210  0.36631  0.65150  1.0000
  C   C41       1.0  0.20860  0.17819  0.97850  1.0000
  C   C42       1.0  0.79140  0.17819  0.52150  1.0000
  C   C43       1.0  0.70860  0.67819  0.97850  1.0000
  C   C44       1.0  0.29140  0.67819  0.52150  1.0000
  C   C45       1.0  0.79140  0.82181  0.02150  1.0000
  C   C46       1.0  0.20860  0.82181  0.47850  1.0000
  C   C47       1.0  0.29140  0.32181  0.02150  1.0000
  C   C48       1.0  0.70860  0.32181  0.47850  1.0000
  C   C49       1.0  0.19140  0.26591  0.71890  1.0000
  C   C50       1.0  0.80860  0.26591  0.78110  1.0000
  C   C51       1.0  0.69140  0.76591  0.71890  1.0000
  C   C52       1.0  0.30860  0.76591  0.78110  1.0000
  C   C53       1.0  0.80860  0.73409  0.28110  1.0000
  C   C54       1.0  0.19140  0.73409  0.21890  1.0000
  C   C55       1.0  0.30860  0.23409  0.28110  1.0000
  C   C56       1.0  0.69140  0.23409  0.21890  1.0000
  C   C57       1.0  0.17200  0.26325  0.81830  1.0000
  C   C58       1.0  0.82800  0.26325  0.68170  1.0000
  C   C59       1.0  0.67200  0.76325  0.81830  1.0000
  C   C60       1.0  0.32800  0.76325  0.68170  1.0000
  C   C61       1.0  0.82800  0.73675  0.18170  1.0000
  C   C62       1.0  0.17200  0.73675  0.31830  1.0000
  C   C63       1.0  0.32800  0.23675  0.18170  1.0000
  C   C64       1.0  0.67200  0.23675  0.31830  1.0000
  H   H1        1.0  0.14460  0.27810  0.84220  1.0000
  H   H2        1.0  0.85540  0.27810  0.65780  1.0000
  H   H3        1.0  0.64460  0.77810  0.84220  1.0000
  H   H4        1.0  0.35540  0.77810  0.65780  1.0000
  H   H5        1.0  0.85540  0.72190  0.15780  1.0000
  H   H6        1.0  0.14460  0.72190  0.34220  1.0000
  H   H7        1.0  0.35540  0.22190  0.15780  1.0000
  H   H8        1.0  0.64460  0.22190  0.34220  1.0000
  O   O73       1.0  0.12490  0.38830  0.44980  1.0000
  O   O74       1.0  0.87510  0.38830  0.05020  1.0000
  O   O75       1.0  0.62490  0.88830  0.44980  1.0000
  O   O76       1.0  0.37510  0.88830  0.05020  1.0000
  O   O77       1.0  0.87510  0.61170  0.55020  1.0000
  O   O78       1.0  0.12490  0.61170  0.94980  1.0000
  O   O79       1.0  0.37510  0.11170  0.55020  1.0000
  O   O80       1.0  0.62490  0.11170  0.94980  1.0000
  C   C65       1.0  0.40200  0.15328  0.01310  1.0000
  C   C66       1.0  0.59800  0.15328  0.48690  1.0000
  C   C67       1.0  0.90200  0.65328  0.01310  1.0000
  C   C68       1.0  0.09800  0.65328  0.48690  1.0000
  C   C69       1.0  0.59800  0.84672  0.98690  1.0000
  C   C70       1.0  0.40200  0.84672  0.51310  1.0000
  C   C71       1.0  0.09800  0.34672  0.98690  1.0000
  C   C72       1.0  0.90200  0.34672  0.51310  1.0000
  H   H9        1.0  0.41480  0.13500  0.04800  1.0000
  H   H10       1.0  0.58520  0.13500  0.45200  1.0000
  H   H11       1.0  0.91480  0.63500  0.04800  1.0000
  H   H12       1.0  0.08520  0.63500  0.45200  1.0000
  H   H13       1.0  0.58520  0.86500  0.95200  1.0000
  H   H14       1.0  0.41480  0.86500  0.54800  1.0000
  H   H15       1.0  0.08520  0.36500  0.95200  1.0000
  H   H16       1.0  0.91480  0.36500  0.54800  1.0000
  C   C73       1.0  0.33890  0.15880  0.98870  1.0000
  C   C74       1.0  0.66110  0.15880  0.51130  1.0000
  C   C75       1.0  0.83890  0.65880  0.98870  1.0000
  C   C76       1.0  0.16110  0.65880  0.51130  1.0000
  C   C77       1.0  0.66110  0.84120  0.01130  1.0000
  C   C78       1.0  0.33890  0.84120  0.48870  1.0000
  C   C79       1.0  0.16110  0.34120  0.01130  1.0000
  C   C80       1.0  0.83890  0.34120  0.48870  1.0000
  H   H17       1.0  0.30950  0.14380  0.00480  1.0000
  H   H18       1.0  0.69050  0.14380  0.49520  1.0000
  H   H19       1.0  0.80950  0.64380  0.00480  1.0000
  H   H20       1.0  0.19050  0.64380  0.49520  1.0000
  H   H21       1.0  0.69050  0.85620  0.99520  1.0000
  H   H22       1.0  0.30950  0.85620  0.50480  1.0000
  H   H23       1.0  0.19050  0.35620  0.99520  1.0000
  H   H24       1.0  0.80950  0.35620  0.50480  1.0000
  C   C81       1.0  0.41390  0.55386  0.18840  1.0000
  C   C82       1.0  0.58610  0.55386  0.31160  1.0000
  C   C83       1.0  0.91390  0.05386  0.18840  1.0000
  C   C84       1.0  0.08610  0.05386  0.31160  1.0000
  C   C85       1.0  0.58610  0.44614  0.81160  1.0000
  C   C86       1.0  0.41390  0.44614  0.68840  1.0000
  C   C87       1.0  0.08610  0.94614  0.81160  1.0000
  C   C88       1.0  0.91390  0.94614  0.68840  1.0000
  C   C89       1.0  0.15420  0.16749  0.92850  1.0000
  C   C90       1.0  0.84580  0.16749  0.57150  1.0000
  C   C91       1.0  0.65420  0.66749  0.92850  1.0000
  C   C92       1.0  0.34580  0.66749  0.57150  1.0000
  C   C93       1.0  0.84580  0.83251  0.07150  1.0000
  C   C94       1.0  0.15420  0.83251  0.42850  1.0000
  C   C95       1.0  0.34580  0.33251  0.07150  1.0000
  C   C96       1.0  0.65420  0.33251  0.42850  1.0000
  H   H25       1.0  0.14730  0.16920  0.85680  1.0000
  H   H26       1.0  0.85270  0.16920  0.64320  1.0000
  H   H27       1.0  0.64730  0.66920  0.85680  1.0000
  H   H28       1.0  0.35270  0.66920  0.64320  1.0000
  H   H29       1.0  0.85270  0.83080  0.14320  1.0000
  H   H30       1.0  0.14730  0.83080  0.35680  1.0000
  H   H31       1.0  0.35270  0.33080  0.14320  1.0000
  H   H32       1.0  0.64730  0.33080  0.35680  1.0000
  C   C97       1.0  0.10950  0.15405  0.98600  1.0000
  C   C98       1.0  0.89050  0.15405  0.51400  1.0000
  C   C99       1.0  0.60950  0.65405  0.98600  1.0000
  C   C100      1.0  0.39050  0.65405  0.51400  1.0000
  C   C101      1.0  0.89050  0.84595  0.01400  1.0000
  C   C102      1.0  0.10950  0.84595  0.48600  1.0000
  C   C103      1.0  0.39050  0.34595  0.01400  1.0000
  C   C104      1.0  0.60950  0.34595  0.48600  1.0000
  H   H33       1.0  0.07160  0.14730  0.95240  1.0000
  H   H34       1.0  0.92840  0.14730  0.54760  1.0000
  H   H35       1.0  0.57160  0.64730  0.95240  1.0000
  H   H36       1.0  0.42840  0.64730  0.54760  1.0000
  H   H37       1.0  0.92840  0.85270  0.04760  1.0000
  H   H38       1.0  0.07160  0.85270  0.45240  1.0000
  H   H39       1.0  0.42840  0.35270  0.04760  1.0000
  H   H40       1.0  0.57160  0.35270  0.45240  1.0000
  C   C105      1.0  0.29450  0.42954  0.90930  1.0000
  C   C106      1.0  0.70550  0.42954  0.59070  1.0000
  C   C107      1.0  0.79450  0.92954  0.90930  1.0000
  C   C108      1.0  0.20550  0.92954  0.59070  1.0000
  C   C109      1.0  0.70550  0.57046  0.09070  1.0000
  C   C110      1.0  0.29450  0.57046  0.40930  1.0000
  C   C111      1.0  0.20550  0.07046  0.09070  1.0000
  C   C112      1.0  0.79450  0.07046  0.40930  1.0000
  H   H41       1.0  0.33590  0.43550  0.92720  1.0000
  H   H42       1.0  0.66410  0.43550  0.57280  1.0000
  H   H43       1.0  0.83590  0.93550  0.92720  1.0000
  H   H44       1.0  0.16410  0.93550  0.57280  1.0000
  H   H45       1.0  0.66410  0.56450  0.07280  1.0000
  H   H46       1.0  0.33590  0.56450  0.42720  1.0000
  H   H47       1.0  0.16410  0.06450  0.07280  1.0000
  H   H48       1.0  0.83590  0.06450  0.42720  1.0000
  C   C113      1.0  0.24680  0.43679  0.97560  1.0000
  C   C114      1.0  0.75320  0.43679  0.52440  1.0000
  C   C115      1.0  0.74680  0.93679  0.97560  1.0000
  C   C116      1.0  0.25320  0.93679  0.52440  1.0000
  C   C117      1.0  0.75320  0.56321  0.02440  1.0000
  C   C118      1.0  0.24680  0.56321  0.47560  1.0000
  C   C119      1.0  0.25320  0.06321  0.02440  1.0000
  C   C120      1.0  0.74680  0.06321  0.47560  1.0000
  C   C121      1.0  0.21780  0.17637  0.08400  1.0000
  C   C122      1.0  0.78220  0.17637  0.41600  1.0000
  C   C123      1.0  0.71780  0.67637  0.08400  1.0000
  C   C124      1.0  0.28220  0.67637  0.41600  1.0000
  C   C125      1.0  0.78220  0.82363  0.91600  1.0000
  C   C126      1.0  0.21780  0.82363  0.58400  1.0000
  C   C127      1.0  0.28220  0.32363  0.91600  1.0000
  C   C128      1.0  0.71780  0.32363  0.58400  1.0000
  H   H49       1.0  0.25410  0.18480  0.11780  1.0000
  H   H50       1.0  0.74590  0.18480  0.38220  1.0000
  H   H51       1.0  0.75410  0.68480  0.11780  1.0000
  H   H52       1.0  0.24590  0.68480  0.38220  1.0000
  H   H53       1.0  0.74590  0.81520  0.88220  1.0000
  H   H54       1.0  0.25410  0.81520  0.61780  1.0000
  H   H55       1.0  0.24590  0.31520  0.88220  1.0000
  H   H56       1.0  0.75410  0.31520  0.61780  1.0000
  C   C129      1.0  0.51600  0.16789  0.01010  1.0000
  C   C130      1.0  0.48400  0.16789  0.48990  1.0000
  C   C131      1.0  0.01600  0.66789  0.01010  1.0000
  C   C132      1.0  0.98400  0.66789  0.48990  1.0000
  C   C133      1.0  0.48400  0.83211  0.98990  1.0000
  C   C134      1.0  0.51600  0.83211  0.51010  1.0000
  C   C135      1.0  0.98400  0.33211  0.98990  1.0000
  C   C136      1.0  0.01600  0.33211  0.51010  1.0000
  C   C137      1.0  0.34690  0.52346  0.05970  1.0000
  C   C138      1.0  0.65310  0.52346  0.44030  1.0000
  C   C139      1.0  0.84690  0.02346  0.05970  1.0000
  C   C140      1.0  0.15310  0.02346  0.44030  1.0000
  C   C141      1.0  0.65310  0.47654  0.94030  1.0000
  C   C142      1.0  0.34690  0.47654  0.55970  1.0000
  C   C143      1.0  0.15310  0.97654  0.94030  1.0000
  C   C144      1.0  0.84690  0.97654  0.55970  1.0000
  H   H57       1.0  0.35570  0.53850  0.01090  1.0000
  H   H58       1.0  0.64430  0.53850  0.48910  1.0000
  H   H59       1.0  0.85570  0.03850  0.01090  1.0000
  H   H60       1.0  0.14430  0.03850  0.48910  1.0000
  H   H61       1.0  0.64430  0.46150  0.98910  1.0000
  H   H62       1.0  0.35570  0.46150  0.51090  1.0000
  H   H63       1.0  0.14430  0.96150  0.98910  1.0000
  H   H64       1.0  0.85570  0.96150  0.51090  1.0000
  C   C145      1.0  0.17090  0.29510  0.65890  1.0000
  C   C146      1.0  0.82910  0.29510  0.84110  1.0000
  C   C147      1.0  0.67090  0.79510  0.65890  1.0000
  C   C148      1.0  0.32910  0.79510  0.84110  1.0000
  C   C149      1.0  0.82910  0.70490  0.34110  1.0000
  C   C150      1.0  0.17090  0.70490  0.15890  1.0000
  C   C151      1.0  0.32910  0.20490  0.34110  1.0000
  C   C152      1.0  0.67090  0.20490  0.15890  1.0000
  C   C153      1.0  0.42740  0.20193  0.93740  1.0000
  C   C154      1.0  0.57260  0.20193  0.56260  1.0000
  C   C155      1.0  0.92740  0.70193  0.93740  1.0000
  C   C156      1.0  0.07260  0.70193  0.56260  1.0000
  C   C157      1.0  0.57260  0.79807  0.06260  1.0000
  C   C158      1.0  0.42740  0.79807  0.43740  1.0000
  C   C159      1.0  0.07260  0.29807  0.06260  1.0000
  C   C160      1.0  0.92740  0.29807  0.43740  1.0000
  H   H65       1.0  0.45700  0.21680  0.92100  1.0000
  H   H66       1.0  0.54300  0.21680  0.57900  1.0000
  H   H67       1.0  0.95700  0.71680  0.92100  1.0000
  H   H68       1.0  0.04300  0.71680  0.57900  1.0000
  H   H69       1.0  0.54300  0.78320  0.07900  1.0000
  H   H70       1.0  0.45700  0.78320  0.42100  1.0000
  H   H71       1.0  0.04300  0.28320  0.07900  1.0000
  H   H72       1.0  0.95700  0.28320  0.42100  1.0000
  C   C161      1.0  0.36470  0.20759  0.91230  1.0000
  C   C162      1.0  0.63530  0.20759  0.58770  1.0000
  C   C163      1.0  0.86470  0.70759  0.91230  1.0000
  C   C164      1.0  0.13530  0.70759  0.58770  1.0000
  C   C165      1.0  0.63530  0.79241  0.08770  1.0000
  C   C166      1.0  0.36470  0.79241  0.41230  1.0000
  C   C167      1.0  0.13530  0.29241  0.08770  1.0000
  C   C168      1.0  0.86470  0.29241  0.41230  1.0000
  H   H73       1.0  0.35260  0.22580  0.87620  1.0000
  H   H74       1.0  0.64740  0.22580  0.62380  1.0000
  H   H75       1.0  0.85260  0.72580  0.87620  1.0000
  H   H76       1.0  0.14740  0.72580  0.62380  1.0000
  H   H77       1.0  0.64740  0.77420  0.12380  1.0000
  H   H78       1.0  0.35260  0.77420  0.37620  1.0000
  H   H79       1.0  0.14740  0.27420  0.12380  1.0000
  H   H80       1.0  0.85260  0.27420  0.37620  1.0000
  C   C169      1.0  0.17350  0.16204  0.14140  1.0000
  C   C170      1.0  0.82650  0.16204  0.35860  1.0000
  C   C171      1.0  0.67350  0.66204  0.14140  1.0000
  C   C172      1.0  0.32650  0.66204  0.35860  1.0000
  C   C173      1.0  0.82650  0.83796  0.85860  1.0000
  C   C174      1.0  0.17350  0.83796  0.64140  1.0000
  C   C175      1.0  0.32650  0.33796  0.85860  1.0000
  C   C176      1.0  0.67350  0.33796  0.64140  1.0000
  H   H81       1.0  0.18080  0.16040  0.21310  1.0000
  H   H82       1.0  0.81920  0.16040  0.28690  1.0000
  H   H83       1.0  0.68080  0.66040  0.21310  1.0000
  H   H84       1.0  0.31920  0.66040  0.28690  1.0000
  H   H85       1.0  0.81920  0.83960  0.78690  1.0000
  H   H86       1.0  0.18080  0.83960  0.71310  1.0000
  H   H87       1.0  0.31920  0.33960  0.78690  1.0000
  H   H88       1.0  0.68080  0.33960  0.71310  1.0000
  C   C177      1.0  0.27940  0.41390  0.81960  1.0000
  C   C178      1.0  0.72060  0.41390  0.68040  1.0000
  C   C179      1.0  0.77940  0.91390  0.81960  1.0000
  C   C180      1.0  0.22060  0.91390  0.68040  1.0000
  C   C181      1.0  0.72060  0.58610  0.18040  1.0000
  C   C182      1.0  0.27940  0.58610  0.31960  1.0000
  C   C183      1.0  0.22060  0.08610  0.18040  1.0000
  C   C184      1.0  0.77940  0.08610  0.31960  1.0000
  H   H89       1.0  0.31100  0.40890  0.77700  1.0000
  H   H90       1.0  0.68900  0.40890  0.72300  1.0000
  H   H91       1.0  0.81100  0.90890  0.77700  1.0000
  H   H92       1.0  0.18900  0.90890  0.72300  1.0000
  H   H93       1.0  0.68900  0.59110  0.22300  1.0000
  H   H94       1.0  0.31100  0.59110  0.27700  1.0000
  H   H95       1.0  0.18900  0.09110  0.22300  1.0000
  H   H96       1.0  0.81100  0.09110  0.27700  1.0000
  C   C185      1.0  0.23310  0.21694  0.84660  1.0000
  C   C186      1.0  0.76690  0.21694  0.65340  1.0000
  C   C187      1.0  0.73310  0.71694  0.84660  1.0000
  C   C188      1.0  0.26690  0.71694  0.65340  1.0000
  C   C189      1.0  0.76690  0.78306  0.15340  1.0000
  C   C190      1.0  0.23310  0.78306  0.34660  1.0000
  C   C191      1.0  0.26690  0.28306  0.15340  1.0000
  C   C192      1.0  0.73310  0.28306  0.34660  1.0000
  C   C193      1.0  0.29690  0.47541  0.10140  1.0000
  C   C194      1.0  0.70310  0.47541  0.39860  1.0000
  C   C195      1.0  0.79690  0.97541  0.10140  1.0000
  C   C196      1.0  0.20310  0.97541  0.39860  1.0000
  C   C197      1.0  0.70310  0.52459  0.89860  1.0000
  C   C198      1.0  0.29690  0.52459  0.60140  1.0000
  C   C199      1.0  0.20310  0.02459  0.89860  1.0000
  C   C200      1.0  0.79690  0.02459  0.60140  1.0000
  C   C201      1.0  0.20300  0.38420  0.69560  1.0000
  C   C202      1.0  0.79700  0.38420  0.80440  1.0000
  C   C203      1.0  0.70300  0.88420  0.69560  1.0000
  C   C204      1.0  0.29700  0.88420  0.80440  1.0000
  C   C205      1.0  0.79700  0.61580  0.30440  1.0000
  C   C206      1.0  0.20300  0.61580  0.19560  1.0000
  C   C207      1.0  0.29700  0.11580  0.30440  1.0000
  C   C208      1.0  0.70300  0.11580  0.19560  1.0000
  C   C209      1.0  0.18950  0.39560  0.31000  1.0000
  C   C210      1.0  0.81050  0.39560  0.19000  1.0000
  C   C211      1.0  0.68950  0.89560  0.31000  1.0000
  C   C212      1.0  0.31050  0.89560  0.19000  1.0000
  C   C213      1.0  0.81050  0.60440  0.69000  1.0000
  C   C214      1.0  0.18950  0.60440  0.81000  1.0000
  C   C215      1.0  0.31050  0.10440  0.69000  1.0000
  C   C216      1.0  0.68950  0.10440  0.81000  1.0000
  O   O81       1.0  0.14310  0.38045  0.67490  1.0000
  O   O82       1.0  0.85690  0.38045  0.82510  1.0000
  O   O83       1.0  0.64310  0.88045  0.67490  1.0000
  O   O84       1.0  0.35690  0.88045  0.82510  1.0000
  O   O85       1.0  0.85690  0.61955  0.32510  1.0000
  O   O86       1.0  0.14310  0.61955  0.17490  1.0000
  O   O87       1.0  0.35690  0.11955  0.32510  1.0000
  O   O88       1.0  0.64310  0.11955  0.17490  1.0000
  C   C217      1.0  0.23060  0.38290  0.24680  1.0000
  C   C218      1.0  0.76940  0.38290  0.25320  1.0000
  C   C219      1.0  0.73060  0.88290  0.24680  1.0000
  C   C220      1.0  0.26940  0.88290  0.25320  1.0000
  C   C221      1.0  0.76940  0.61710  0.75320  1.0000
  C   C222      1.0  0.23060  0.61710  0.74680  1.0000
  C   C223      1.0  0.26940  0.11710  0.75320  1.0000
  C   C224      1.0  0.73060  0.11710  0.74680  1.0000
  H   H97       1.0  0.24360  0.36210  0.25640  1.0000
  H   H98       1.0  0.75640  0.36210  0.24360  1.0000
  H   H99       1.0  0.74360  0.86210  0.25640  1.0000
  H   H100      1.0  0.25640  0.86210  0.24360  1.0000
  H   H101      1.0  0.75640  0.63790  0.74360  1.0000
  H   H102      1.0  0.24360  0.63790  0.75640  1.0000
  H   H103      1.0  0.25640  0.13790  0.74360  1.0000
  H   H104      1.0  0.74360  0.13790  0.75640  1.0000
  C   C225      1.0  0.30760  0.49727  0.02700  1.0000
  C   C226      1.0  0.69240  0.49727  0.47300  1.0000
  C   C227      1.0  0.80760  0.99727  0.02700  1.0000
  C   C228      1.0  0.19240  0.99727  0.47300  1.0000
  C   C229      1.0  0.69240  0.50273  0.97300  1.0000
  C   C230      1.0  0.30760  0.50273  0.52700  1.0000
  C   C231      1.0  0.19240  0.00273  0.97300  1.0000
  C   C232      1.0  0.80760  0.00273  0.52700  1.0000
  H   H105      1.0  0.29040  0.49530  0.95890  1.0000
  H   H106      1.0  0.70960  0.49530  0.54110  1.0000
  H   H107      1.0  0.79040  0.99530  0.95890  1.0000
  H   H108      1.0  0.20960  0.99530  0.54110  1.0000
  H   H109      1.0  0.70960  0.50470  0.04110  1.0000
  H   H110      1.0  0.29040  0.50470  0.45890  1.0000
  H   H111      1.0  0.20960  0.00470  0.04110  1.0000
  H   H112      1.0  0.79040  0.00470  0.45890  1.0000
  C   C233      1.0  0.35900  0.50584  0.23170  1.0000
  C   C234      1.0  0.64100  0.50584  0.26830  1.0000
  C   C235      1.0  0.85900  0.00584  0.23170  1.0000
  C   C236      1.0  0.14100  0.00584  0.26830  1.0000
  C   C237      1.0  0.64100  0.49416  0.76830  1.0000
  C   C238      1.0  0.35900  0.49416  0.73170  1.0000
  C   C239      1.0  0.14100  0.99416  0.76830  1.0000
  C   C240      1.0  0.85900  0.99416  0.73170  1.0000
  H   H113      1.0  0.37480  0.50890  0.30010  1.0000
  H   H114      1.0  0.62520  0.50890  0.19990  1.0000
  H   H115      1.0  0.87480  0.00890  0.30010  1.0000
  H   H116      1.0  0.12520  0.00890  0.19990  1.0000
  H   H117      1.0  0.62520  0.49110  0.69990  1.0000
  H   H118      1.0  0.37480  0.49110  0.80010  1.0000
  H   H119      1.0  0.12520  0.99110  0.69990  1.0000
  H   H120      1.0  0.87480  0.99110  0.80010  1.0000
  C   C241      1.0  0.23110  0.24340  0.68440  1.0000
  C   C242      1.0  0.76890  0.24340  0.81560  1.0000
  C   C243      1.0  0.73110  0.74340  0.68440  1.0000
  C   C244      1.0  0.26890  0.74340  0.81560  1.0000
  C   C245      1.0  0.76890  0.75660  0.31560  1.0000
  C   C246      1.0  0.23110  0.75660  0.18440  1.0000
  C   C247      1.0  0.26890  0.25660  0.31560  1.0000
  C   C248      1.0  0.73110  0.25660  0.18440  1.0000
  H   H121      1.0  0.24420  0.24490  0.61770  1.0000
  H   H122      1.0  0.75580  0.24490  0.88230  1.0000
  H   H123      1.0  0.74420  0.74490  0.61770  1.0000
  H   H124      1.0  0.25580  0.74490  0.88230  1.0000
  H   H125      1.0  0.75580  0.75510  0.38230  1.0000
  H   H126      1.0  0.24420  0.75510  0.11770  1.0000
  H   H127      1.0  0.25580  0.25510  0.38230  1.0000
  H   H128      1.0  0.74420  0.25510  0.11770  1.0000
  C   C249      1.0  0.19290  0.23884  0.88200  1.0000
  C   C250      1.0  0.80710  0.23884  0.61800  1.0000
  C   C251      1.0  0.69290  0.73884  0.88200  1.0000
  C   C252      1.0  0.30710  0.73884  0.61800  1.0000
  C   C253      1.0  0.80710  0.76116  0.11800  1.0000
  C   C254      1.0  0.19290  0.76116  0.38200  1.0000
  C   C255      1.0  0.30710  0.26116  0.11800  1.0000
  C   C256      1.0  0.69290  0.26116  0.38200  1.0000
  H   H129      1.0  0.17980  0.23720  0.94870  1.0000
  H   H130      1.0  0.82020  0.23720  0.55130  1.0000
  H   H131      1.0  0.67980  0.73720  0.94870  1.0000
  H   H132      1.0  0.32020  0.73720  0.55130  1.0000
  H   H133      1.0  0.82020  0.76280  0.05130  1.0000
  H   H134      1.0  0.17980  0.76280  0.44870  1.0000
  H   H135      1.0  0.32020  0.26280  0.05130  1.0000
  H   H136      1.0  0.67980  0.26280  0.44870  1.0000
  C   C257      1.0  0.21820  0.40515  0.78970  1.0000
  C   C258      1.0  0.78180  0.40515  0.71030  1.0000
  C   C259      1.0  0.71820  0.90515  0.78970  1.0000
  C   C260      1.0  0.28180  0.90515  0.71030  1.0000
  C   C261      1.0  0.78180  0.59485  0.21030  1.0000
  C   C262      1.0  0.21820  0.59485  0.28970  1.0000
  C   C263      1.0  0.28180  0.09485  0.21030  1.0000
  C   C264      1.0  0.71820  0.09485  0.28970  1.0000
  C   C265      1.0  0.25230  0.21810  0.74890  1.0000
  C   C266      1.0  0.74770  0.21810  0.75110  1.0000
  C   C267      1.0  0.75230  0.71810  0.74890  1.0000
  C   C268      1.0  0.24770  0.71810  0.75110  1.0000
  C   C269      1.0  0.74770  0.78190  0.25110  1.0000
  C   C270      1.0  0.25230  0.78190  0.24890  1.0000
  C   C271      1.0  0.24770  0.28190  0.25110  1.0000
  C   C272      1.0  0.75230  0.28190  0.24890  1.0000
  H   H137      1.0  0.27860  0.20270  0.72520  1.0000
  H   H138      1.0  0.72140  0.20270  0.77480  1.0000
  H   H139      1.0  0.77860  0.70270  0.72520  1.0000
  H   H140      1.0  0.22140  0.70270  0.77480  1.0000
  H   H141      1.0  0.72140  0.79730  0.27480  1.0000
  H   H142      1.0  0.27860  0.79730  0.22520  1.0000
  H   H143      1.0  0.22140  0.29730  0.27480  1.0000
  H   H144      1.0  0.77860  0.29730  0.22520  1.0000
  C   C273      1.0  0.23690  0.43110  0.15770  1.0000
  C   C274      1.0  0.76310  0.43110  0.34230  1.0000
  C   C275      1.0  0.73690  0.93110  0.15770  1.0000
  C   C276      1.0  0.26310  0.93110  0.34230  1.0000
  C   C277      1.0  0.76310  0.56890  0.84230  1.0000
  C   C278      1.0  0.23690  0.56890  0.65770  1.0000
  C   C279      1.0  0.26310  0.06890  0.84230  1.0000
  C   C280      1.0  0.73690  0.06890  0.65770  1.0000
  C   C281      1.0  0.32220  0.47928  0.20440  1.0000
  C   C282      1.0  0.67780  0.47928  0.29560  1.0000
  C   C283      1.0  0.82220  0.97928  0.20440  1.0000
  C   C284      1.0  0.17780  0.97928  0.29560  1.0000
  C   C285      1.0  0.67780  0.52072  0.79560  1.0000
  C   C286      1.0  0.32220  0.52072  0.70440  1.0000
  C   C287      1.0  0.17780  0.02072  0.79560  1.0000
  C   C288      1.0  0.82220  0.02072  0.70440  1.0000
  H   H145      1.0  0.31450  0.46430  0.25430  1.0000
  H   H146      1.0  0.68550  0.46430  0.24570  1.0000
  H   H147      1.0  0.81450  0.96430  0.25430  1.0000
  H   H148      1.0  0.18550  0.96430  0.24570  1.0000
  H   H149      1.0  0.68550  0.53570  0.74570  1.0000
  H   H150      1.0  0.31450  0.53570  0.75430  1.0000
  H   H151      1.0  0.18550  0.03570  0.74570  1.0000
  H   H152      1.0  0.81450  0.03570  0.75430  1.0000
  C   C289      1.0  0.16480  0.37680  0.39660  1.0000
  C   C290      1.0  0.83520  0.37680  0.10340  1.0000
  C   C291      1.0  0.66480  0.87680  0.39660  1.0000
  C   C292      1.0  0.33520  0.87680  0.10340  1.0000
  C   C293      1.0  0.83520  0.62320  0.60340  1.0000
  C   C294      1.0  0.16480  0.62320  0.89660  1.0000
  C   C295      1.0  0.33520  0.12320  0.60340  1.0000
  C   C296      1.0  0.66480  0.12320  0.89660  1.0000
  C   C297      1.0  0.18550  0.42880  0.94520  1.0000
  C   C298      1.0  0.81450  0.42880  0.55480  1.0000
  C   C299      1.0  0.68550  0.92880  0.94520  1.0000
  C   C300      1.0  0.31450  0.92880  0.55480  1.0000
  C   C301      1.0  0.81450  0.57120  0.05480  1.0000
  C   C302      1.0  0.18550  0.57120  0.44520  1.0000
  C   C303      1.0  0.31450  0.07120  0.05480  1.0000
  C   C304      1.0  0.68550  0.07120  0.44520  1.0000
  H   H153      1.0  0.15340  0.43380  0.98690  1.0000
  H   H154      1.0  0.84660  0.43380  0.51310  1.0000
  H   H155      1.0  0.65340  0.93380  0.98690  1.0000
  H   H156      1.0  0.34660  0.93380  0.51310  1.0000
  H   H157      1.0  0.84660  0.56620  0.01310  1.0000
  H   H158      1.0  0.15340  0.56620  0.48690  1.0000
  H   H159      1.0  0.34660  0.06620  0.01310  1.0000
  H   H160      1.0  0.65340  0.06620  0.48690  1.0000
  C   C305      1.0  0.25380  0.40080  0.16700  1.0000
  C   C306      1.0  0.74620  0.40080  0.33300  1.0000
  C   C307      1.0  0.75380  0.90080  0.16700  1.0000
  C   C308      1.0  0.24620  0.90080  0.33300  1.0000
  C   C309      1.0  0.74620  0.59920  0.83300  1.0000
  C   C310      1.0  0.25380  0.59920  0.66700  1.0000
  C   C311      1.0  0.24620  0.09920  0.83300  1.0000
  C   C312      1.0  0.75380  0.09920  0.66700  1.0000
  H   H161      1.0  0.28030  0.39190  0.12150  1.0000
  H   H162      1.0  0.71970  0.39190  0.37850  1.0000
  H   H163      1.0  0.78030  0.89190  0.12150  1.0000
  H   H164      1.0  0.21970  0.89190  0.37850  1.0000
  H   H165      1.0  0.71970  0.60810  0.87850  1.0000
  H   H166      1.0  0.28030  0.60810  0.62150  1.0000
  H   H167      1.0  0.21970  0.10810  0.87850  1.0000
  H   H168      1.0  0.78030  0.10810  0.62150  1.0000
  C   C313      1.0  0.17190  0.41300  0.85140  1.0000
  C   C314      1.0  0.82810  0.41300  0.64860  1.0000
  C   C315      1.0  0.67190  0.91300  0.85140  1.0000
  C   C316      1.0  0.32810  0.91300  0.64860  1.0000
  C   C317      1.0  0.82810  0.58700  0.14860  1.0000
  C   C318      1.0  0.17190  0.58700  0.35140  1.0000
  C   C319      1.0  0.32810  0.08700  0.14860  1.0000
  C   C320      1.0  0.67190  0.08700  0.35140  1.0000
  H   H169      1.0  0.13040  0.40790  0.83060  1.0000
  H   H170      1.0  0.86960  0.40790  0.66940  1.0000
  H   H171      1.0  0.63040  0.90790  0.83060  1.0000
  H   H172      1.0  0.36960  0.90790  0.66940  1.0000
  H   H173      1.0  0.86960  0.59210  0.16940  1.0000
  H   H174      1.0  0.13040  0.59210  0.33060  1.0000
  H   H175      1.0  0.36960  0.09210  0.16940  1.0000
  H   H176      1.0  0.63040  0.09210  0.33060  1.0000
  C   C321      1.0  0.17210  0.42610  0.29910  1.0000
  C   C322      1.0  0.82790  0.42610  0.20090  1.0000
  C   C323      1.0  0.67210  0.92610  0.29910  1.0000
  C   C324      1.0  0.32790  0.92610  0.20090  1.0000
  C   C325      1.0  0.82790  0.57390  0.70090  1.0000
  C   C326      1.0  0.17210  0.57390  0.79910  1.0000
  C   C327      1.0  0.32790  0.07390  0.70090  1.0000
  C   C328      1.0  0.67210  0.07390  0.79910  1.0000
  H   H177      1.0  0.14400  0.43470  0.34260  1.0000
  H   H178      1.0  0.85600  0.43470  0.15740  1.0000
  H   H179      1.0  0.64400  0.93470  0.34260  1.0000
  H   H180      1.0  0.35600  0.93470  0.15740  1.0000
  H   H181      1.0  0.85600  0.56530  0.65740  1.0000
  H   H182      1.0  0.14400  0.56530  0.84260  1.0000
  H   H183      1.0  0.35600  0.06530  0.65740  1.0000
  H   H184      1.0  0.64400  0.06530  0.84260  1.0000
  C   C329      1.0  0.19610  0.44430  0.22400  1.0000
  C   C330      1.0  0.80390  0.44430  0.27600  1.0000
  C   C331      1.0  0.69610  0.94430  0.22400  1.0000
  C   C332      1.0  0.30390  0.94430  0.27600  1.0000
  C   C333      1.0  0.80390  0.55570  0.77600  1.0000
  C   C334      1.0  0.19610  0.55570  0.72400  1.0000
  C   C335      1.0  0.30390  0.05570  0.77600  1.0000
  C   C336      1.0  0.69610  0.05570  0.72400  1.0000
  H   H185      1.0  0.18500  0.46540  0.21760  1.0000
  H   H186      1.0  0.81500  0.46540  0.28240  1.0000
  H   H187      1.0  0.68500  0.96540  0.21760  1.0000
  H   H188      1.0  0.31500  0.96540  0.28240  1.0000
  H   H189      1.0  0.81500  0.53460  0.78240  1.0000
  H   H190      1.0  0.18500  0.53460  0.71760  1.0000
  H   H191      1.0  0.31500  0.03460  0.78240  1.0000
  H   H192      1.0  0.68500  0.03460  0.71760  1.0000
  O   O89       1.0  0.23910  0.37330  0.64720  1.0000
  O   O90       1.0  0.76090  0.37330  0.85280  1.0000
  O   O91       1.0  0.73910  0.87330  0.64720  1.0000
  O   O92       1.0  0.26090  0.87330  0.85280  1.0000
  O   O93       1.0  0.76090  0.62670  0.35280  1.0000
  O   O94       1.0  0.23910  0.62670  0.14720  1.0000
  O   O95       1.0  0.26090  0.12670  0.35280  1.0000
  O   O96       1.0  0.73910  0.12670  0.14720  1.0000
