data_image0
_chemical_formula_structural       Zn3C6H2C4H2C4H2C6H2C4H2C4H2C4O16N4O2
_chemical_formula_sum              "Zn3 C32 H12 O18 N4"
_cell_length_a       9.5593
_cell_length_b       10.2131
_cell_length_c       11.9424
_cell_angle_alpha    110.091
_cell_angle_beta     99.943
_cell_angle_gamma    95.8

_space_group_name_H-M_alt    "P 1"
_space_group_IT_number       1

loop_
  _space_group_symop_operation_xyz
  'x, y, z'

loop_
  _atom_site_type_symbol
  _atom_site_label
  _atom_site_symmetry_multiplicity
  _atom_site_fract_x
  _atom_site_fract_y
  _atom_site_fract_z
  _atom_site_occupancy
  Zn  Zn1       1.0  0.00000  0.00000  0.50000  1.0000
  Zn  Zn2       1.0  0.03414  0.29728  0.73249  1.0000
  Zn  Zn3       1.0  0.96586  0.70272  0.26751  1.0000
  C   C1        1.0  0.76380  0.17400  0.56500  1.0000
  C   C2        1.0  0.23620  0.82600  0.43500  1.0000
  C   C3        1.0  0.60680  0.16940  0.51880  1.0000
  C   C4        1.0  0.39320  0.83060  0.48120  1.0000
  C   C5        1.0  0.51690  0.22100  0.59760  1.0000
  C   C6        1.0  0.48310  0.77900  0.40240  1.0000
  H   H1        1.0  0.55550  0.26450  0.68120  1.0000
  H   H2        1.0  0.44450  0.73550  0.31880  1.0000
  C   C7        1.0  0.37150  0.20860  0.55320  1.0000
  C   C8        1.0  0.62850  0.79140  0.44680  1.0000
  C   C9        1.0  0.31540  0.14870  0.42780  1.0000
  C   C10       1.0  0.68460  0.85130  0.57220  1.0000
  H   H3        1.0  0.21840  0.14430  0.39600  1.0000
  H   H4        1.0  0.78160  0.85570  0.60400  1.0000
  C   C11       1.0  0.40550  0.09610  0.35150  1.0000
  C   C12       1.0  0.59450  0.90390  0.64850  1.0000
  C   C13       1.0  0.54910  0.10230  0.39390  1.0000
  C   C14       1.0  0.45090  0.89770  0.60610  1.0000
  H   H5        1.0  0.60690  0.06260  0.34050  1.0000
  H   H6        1.0  0.39310  0.93740  0.65950  1.0000
  C   C15       1.0  0.27430  0.25540  0.64050  1.0000
  C   C16       1.0  0.72570  0.74460  0.35950  1.0000
  C   C17       1.0  0.20480  0.93380  0.03520  1.0000
  C   C18       1.0  0.79520  0.06620  0.96480  1.0000
  C   C19       1.0  0.17300  0.78880  0.98110  1.0000
  C   C20       1.0  0.82700  0.21120  0.01890  1.0000
  H   H7        1.0  0.19450  0.73260  0.02650  1.0000
  H   H8        1.0  0.80550  0.26740  0.97350  1.0000
  C   C21       1.0  0.10910  0.72850  0.85910  1.0000
  C   C22       1.0  0.89090  0.27150  0.14090  1.0000
  C   C23       1.0  0.07700  0.81460  0.79340  1.0000
  C   C24       1.0  0.92300  0.18540  0.20660  1.0000
  H   H9        1.0  0.03750  0.77370  0.70980  1.0000
  H   H10       1.0  0.96250  0.22630  0.29020  1.0000
  C   C25       1.0  0.10290  0.96000  0.85070  1.0000
  C   C26       1.0  0.89710  0.04000  0.14930  1.0000
  C   C27       1.0  0.16650  0.02050  0.97260  1.0000
  C   C28       1.0  0.83350  0.97950  0.02740  1.0000
  H   H11       1.0  0.18350  0.11830  0.01260  1.0000
  H   H12       1.0  0.81650  0.88170  0.98740  1.0000
  C   C29       1.0  0.07610  0.56830  0.79400  1.0000
  C   C30       1.0  0.92390  0.43170  0.20600  1.0000
  C   C31       1.0  0.05730  0.04940  0.77750  1.0000
  C   C32       1.0  0.94270  0.95060  0.22250  1.0000
  O   O1        1.0  0.82580  0.09390  0.49300  1.0000
  O   O2        1.0  0.17420  0.90610  0.50700  1.0000
  O   O3        1.0  0.82310  0.25940  0.67200  1.0000
  O   O4        1.0  0.17690  0.74060  0.32800  1.0000
  O   O5        1.0  0.13660  0.21570  0.59820  1.0000
  O   O6        1.0  0.86340  0.78430  0.40180  1.0000
  O   O7        1.0  0.32670  0.32930  0.74870  1.0000
  O   O8        1.0  0.67330  0.67070  0.25130  1.0000
  O   O9        1.0  0.08120  0.49500  0.85790  1.0000
  O   O10       1.0  0.91880  0.50500  0.14210  1.0000
  O   O11       1.0  0.04250  0.51660  0.67910  1.0000
  O   O12       1.0  0.95750  0.48340  0.32090  1.0000
  O   O13       1.0  0.00330  0.98880  0.66780  1.0000
  O   O14       1.0  0.99670  0.01120  0.33220  1.0000
  O   O15       1.0  0.07900  0.18250  0.83540  1.0000
  O   O16       1.0  0.92100  0.81750  0.16460  1.0000
  N   N1        1.0  0.35790  0.00300  0.21700  1.0000
  N   N2        1.0  0.64210  0.99700  0.78300  1.0000
  N   N3        1.0  0.24430  0.02720  0.17740  1.0000
  N   N4        1.0  0.75570  0.97280  0.82260  1.0000
  O   O17       1.0  0.42610  0.90780  0.16700  1.0000
  O   O18       1.0  0.57390  0.09220  0.83300  1.0000
