data_image0
_chemical_formula_structural       Gd4F16O12F8O12C4F4O4F16C16F8C4H4C24H4F4C8H4F4C4H4F4C8O4C4F4C4F28C4
_chemical_formula_sum              "Gd4 F96 O32 C80 H16"
_cell_length_a       17.0661
_cell_length_b       20.1979
_cell_length_c       17.4936
_cell_angle_alpha    90
_cell_angle_beta     104.535
_cell_angle_gamma    90

_space_group_name_H-M_alt    "P 1"
_space_group_IT_number       1

loop_
  _space_group_symop_operation_xyz
  'x, y, z'

loop_
  _atom_site_type_symbol
  _atom_site_label
  _atom_site_symmetry_multiplicity
  _atom_site_fract_x
  _atom_site_fract_y
  _atom_site_fract_z
  _atom_site_occupancy
  Gd  Gd1       1.0  0.81981  0.13824  0.26283  1.0000
  Gd  Gd2       1.0  0.68019  0.63824  0.23717  1.0000
  Gd  Gd3       1.0  0.18019  0.86176  0.73717  1.0000
  Gd  Gd4       1.0  0.31981  0.36176  0.76283  1.0000
  F   F1        1.0  0.66118  0.00413  0.41754  1.0000
  F   F2        1.0  0.83882  0.50413  0.08246  1.0000
  F   F3        1.0  0.33882  0.99587  0.58246  1.0000
  F   F4        1.0  0.16118  0.49587  0.91754  1.0000
  F   F5        1.0  0.55719  0.99090  0.32078  1.0000
  F   F6        1.0  0.94281  0.49090  0.17922  1.0000
  F   F7        1.0  0.44281  0.00910  0.67922  1.0000
  F   F8        1.0  0.05719  0.50910  0.82078  1.0000
  F   F9        1.0  0.86766  0.36455  0.22050  1.0000
  F   F10       1.0  0.63234  0.86455  0.27950  1.0000
  F   F11       1.0  0.13234  0.63545  0.77950  1.0000
  F   F12       1.0  0.36766  0.13545  0.72050  1.0000
  F   F13       1.0  0.82240  0.35123  0.09604  1.0000
  F   F14       1.0  0.67760  0.85123  0.40396  1.0000
  F   F15       1.0  0.17760  0.64877  0.90396  1.0000
  F   F16       1.0  0.32240  0.14877  0.59604  1.0000
  O   O1        1.0  0.68185  0.16529  0.19517  1.0000
  O   O2        1.0  0.81815  0.66529  0.30483  1.0000
  O   O3        1.0  0.31815  0.83471  0.80483  1.0000
  O   O4        1.0  0.18185  0.33471  0.69517  1.0000
  O   O5        1.0  0.81761  0.23932  0.19489  1.0000
  O   O6        1.0  0.68239  0.73932  0.30511  1.0000
  O   O7        1.0  0.18239  0.76068  0.80511  1.0000
  O   O8        1.0  0.31761  0.26068  0.69489  1.0000
  O   O9        1.0  0.73730  0.07310  0.32326  1.0000
  O   O10       1.0  0.76270  0.57310  0.17674  1.0000
  O   O11       1.0  0.26270  0.92690  0.67674  1.0000
  O   O12       1.0  0.23730  0.42690  0.82326  1.0000
  F   F17       1.0  0.74985  0.40174  0.16180  1.0000
  F   F18       1.0  0.75015  0.90174  0.33820  1.0000
  F   F19       1.0  0.25015  0.59826  0.83820  1.0000
  F   F20       1.0  0.24985  0.09826  0.66180  1.0000
  F   F21       1.0  0.74430  0.32570  0.47685  1.0000
  F   F22       1.0  0.75570  0.82570  0.02315  1.0000
  F   F23       1.0  0.25570  0.67430  0.52315  1.0000
  F   F24       1.0  0.24430  0.17430  0.97685  1.0000
  O   O13       1.0  0.76577  0.21023  0.34466  1.0000
  O   O14       1.0  0.73423  0.71023  0.15534  1.0000
  O   O15       1.0  0.23423  0.78977  0.65534  1.0000
  O   O16       1.0  0.26577  0.28977  0.84466  1.0000
  O   O17       1.0  0.92872  0.20184  0.34408  1.0000
  O   O18       1.0  0.57128  0.70184  0.15592  1.0000
  O   O19       1.0  0.07128  0.79816  0.65592  1.0000
  O   O20       1.0  0.42872  0.29816  0.84408  1.0000
  O   O21       1.0  0.76261  0.05284  0.17231  1.0000
  O   O22       1.0  0.73739  0.55284  0.32769  1.0000
  O   O23       1.0  0.23739  0.94716  0.82769  1.0000
  O   O24       1.0  0.26261  0.44716  0.67231  1.0000
  C   C1        1.0  0.69590  0.02495  0.16180  1.0000
  C   C2        1.0  0.80410  0.52495  0.33820  1.0000
  C   C3        1.0  0.30410  0.97505  0.83820  1.0000
  C   C4        1.0  0.19590  0.47505  0.66180  1.0000
  F   F25       1.0  0.70610  0.35709  0.35682  1.0000
  F   F26       1.0  0.79390  0.85709  0.14318  1.0000
  F   F27       1.0  0.29390  0.64291  0.64318  1.0000
  F   F28       1.0  0.20610  0.14291  0.85682  1.0000
  O   O25       1.0  0.90619  0.05556  0.33396  1.0000
  O   O26       1.0  0.59381  0.55556  0.16604  1.0000
  O   O27       1.0  0.09381  0.94444  0.66604  1.0000
  O   O28       1.0  0.40619  0.44444  0.83396  1.0000
  F   F29       1.0  0.65450  0.27009  0.39480  1.0000
  F   F30       1.0  0.84550  0.77009  0.10520  1.0000
  F   F31       1.0  0.34550  0.72991  0.60520  1.0000
  F   F32       1.0  0.15450  0.22991  0.89480  1.0000
  F   F33       1.0  0.51601  0.26122  0.11480  1.0000
  F   F34       1.0  0.98399  0.76122  0.38520  1.0000
  F   F35       1.0  0.48399  0.73878  0.88520  1.0000
  F   F36       1.0  0.01601  0.23878  0.61480  1.0000
  F   F37       1.0  0.59243  0.08826  0.36669  1.0000
  F   F38       1.0  0.90757  0.58826  0.13331  1.0000
  F   F39       1.0  0.40757  0.91174  0.63331  1.0000
  F   F40       1.0  0.09243  0.41174  0.86669  1.0000
  F   F41       1.0  0.63210  0.05156  0.03092  1.0000
  F   F42       1.0  0.86790  0.55156  0.46908  1.0000
  F   F43       1.0  0.36790  0.94844  0.96908  1.0000
  F   F44       1.0  0.13210  0.44844  0.53092  1.0000
  C   C5        1.0  0.80070  0.35190  0.16460  1.0000
  C   C6        1.0  0.69930  0.85190  0.33540  1.0000
  C   C7        1.0  0.19930  0.64810  0.83540  1.0000
  C   C8        1.0  0.30070  0.14810  0.66460  1.0000
  C   C9        1.0  0.62090  0.03030  0.34950  1.0000
  C   C10       1.0  0.87910  0.53030  0.15050  1.0000
  C   C11       1.0  0.37910  0.96970  0.65050  1.0000
  C   C12       1.0  0.12090  0.46970  0.84950  1.0000
  C   C13       1.0  0.76540  0.28442  0.17790  1.0000
  C   C14       1.0  0.73460  0.78442  0.32210  1.0000
  C   C15       1.0  0.23460  0.71558  0.82210  1.0000
  C   C16       1.0  0.26540  0.21558  0.67790  1.0000
  C   C17       1.0  0.64730  0.21860  0.17670  1.0000
  C   C18       1.0  0.85270  0.71860  0.32330  1.0000
  C   C19       1.0  0.35270  0.78140  0.82330  1.0000
  C   C20       1.0  0.14730  0.28140  0.67670  1.0000
  F   F45       1.0  0.03810  0.97260  0.42530  1.0000
  F   F46       1.0  0.46190  0.47260  0.07470  1.0000
  F   F47       1.0  0.96190  0.02740  0.57470  1.0000
  F   F48       1.0  0.53810  0.52740  0.92530  1.0000
  F   F49       1.0  0.60170  0.95784  0.06995  1.0000
  F   F50       1.0  0.89830  0.45784  0.43005  1.0000
  F   F51       1.0  0.39830  0.04216  0.93005  1.0000
  F   F52       1.0  0.10170  0.54216  0.56995  1.0000
  C   C21       1.0  0.68290  0.27990  0.16880  1.0000
  C   C22       1.0  0.81710  0.77990  0.33120  1.0000
  C   C23       1.0  0.31710  0.72010  0.83120  1.0000
  C   C24       1.0  0.18290  0.22010  0.66880  1.0000
  H   H1        1.0  0.65080  0.31760  0.15740  1.0000
  H   H2        1.0  0.84920  0.81760  0.34260  1.0000
  H   H3        1.0  0.34920  0.68240  0.84260  1.0000
  H   H4        1.0  0.15080  0.18240  0.65740  1.0000
  C   C25       1.0  0.78960  0.26220  0.38120  1.0000
  C   C26       1.0  0.71040  0.76220  0.11880  1.0000
  C   C27       1.0  0.21040  0.73780  0.61880  1.0000
  C   C28       1.0  0.28960  0.23780  0.88120  1.0000
  C   C29       1.0  0.93140  0.25430  0.38260  1.0000
  C   C30       1.0  0.56860  0.75430  0.11740  1.0000
  C   C31       1.0  0.06860  0.74570  0.61740  1.0000
  C   C32       1.0  0.43140  0.24570  0.88260  1.0000
  C   C33       1.0  0.97520  0.95600  0.37190  1.0000
  C   C34       1.0  0.52480  0.45600  0.12810  1.0000
  C   C35       1.0  0.02480  0.04400  0.62810  1.0000
  C   C36       1.0  0.47520  0.54400  0.87190  1.0000
  C   C37       1.0  0.67550  0.04042  0.29290  1.0000
  C   C38       1.0  0.82450  0.54042  0.20710  1.0000
  C   C39       1.0  0.32450  0.95958  0.70710  1.0000
  C   C40       1.0  0.17550  0.45958  0.79290  1.0000
  C   C41       1.0  0.72260  0.30390  0.40320  1.0000
  C   C42       1.0  0.77740  0.80390  0.09680  1.0000
  C   C43       1.0  0.27740  0.69610  0.59680  1.0000
  C   C44       1.0  0.22260  0.19610  0.90320  1.0000
  C   C45       1.0  0.96490  0.00720  0.23900  1.0000
  C   C46       1.0  0.53510  0.50720  0.26100  1.0000
  C   C47       1.0  0.03510  0.99280  0.76100  1.0000
  C   C48       1.0  0.46490  0.49280  0.73900  1.0000
  H   H5        1.0  0.99000  0.96900  0.22720  1.0000
  H   H6        1.0  0.51000  0.46900  0.27280  1.0000
  H   H7        1.0  0.01000  0.03100  0.77280  1.0000
  H   H8        1.0  0.49000  0.53100  0.72720  1.0000
  F   F53       1.0  0.92080  0.93770  0.40760  1.0000
  F   F54       1.0  0.57920  0.43770  0.09240  1.0000
  F   F55       1.0  0.07920  0.06230  0.59240  1.0000
  F   F56       1.0  0.42080  0.56230  0.90760  1.0000
  C   C49       1.0  0.94550  0.01100  0.31060  1.0000
  C   C50       1.0  0.55450  0.51100  0.18940  1.0000
  C   C51       1.0  0.05450  0.98900  0.68940  1.0000
  C   C52       1.0  0.44550  0.48900  0.81060  1.0000
  C   C53       1.0  0.86760  0.28690  0.40250  1.0000
  C   C54       1.0  0.63240  0.78690  0.09750  1.0000
  C   C55       1.0  0.13240  0.71310  0.59750  1.0000
  C   C56       1.0  0.36760  0.21310  0.90250  1.0000
  H   H9        1.0  0.87760  0.32630  0.43080  1.0000
  H   H10       1.0  0.62240  0.82630  0.06920  1.0000
  H   H11       1.0  0.12240  0.67370  0.56920  1.0000
  H   H12       1.0  0.37760  0.17370  0.93080  1.0000
  F   F57       1.0  0.53370  0.21520  0.22440  1.0000
  F   F58       1.0  0.96630  0.71520  0.27560  1.0000
  F   F59       1.0  0.46630  0.78480  0.77560  1.0000
  F   F60       1.0  0.03370  0.28480  0.72440  1.0000
  C   C57       1.0  0.64980  0.01548  0.21650  1.0000
  C   C58       1.0  0.85020  0.51548  0.28350  1.0000
  C   C59       1.0  0.35020  0.98452  0.78350  1.0000
  C   C60       1.0  0.14980  0.48452  0.71650  1.0000
  H   H13       1.0  0.60140  0.99220  0.20170  1.0000
  H   H14       1.0  0.89860  0.49220  0.29830  1.0000
  H   H15       1.0  0.39860  0.00780  0.79830  1.0000
  H   H16       1.0  0.10140  0.50780  0.70170  1.0000
  F   F61       1.0  0.71580  0.97300  0.04722  1.0000
  F   F62       1.0  0.78420  0.47300  0.45278  1.0000
  F   F63       1.0  0.28420  0.02700  0.95278  1.0000
  F   F64       1.0  0.21580  0.52700  0.54722  1.0000
  C   C61       1.0  0.55500  0.21600  0.16180  1.0000
  C   C62       1.0  0.94500  0.71600  0.33820  1.0000
  C   C63       1.0  0.44500  0.78400  0.83820  1.0000
  C   C64       1.0  0.05500  0.28400  0.66180  1.0000
  C   C65       1.0  0.66070  0.00130  0.07720  1.0000
  C   C66       1.0  0.83930  0.50130  0.42280  1.0000
  C   C67       1.0  0.33930  0.99870  0.92280  1.0000
  C   C68       1.0  0.16070  0.49870  0.57720  1.0000
  O   O29       1.0  0.91359  0.11150  0.18861  1.0000
  O   O30       1.0  0.58641  0.61150  0.31139  1.0000
  O   O31       1.0  0.08641  0.88850  0.81139  1.0000
  O   O32       1.0  0.41359  0.38850  0.68861  1.0000
  C   C69       1.0  0.94890  0.05770  0.18380  1.0000
  C   C70       1.0  0.55110  0.55770  0.31620  1.0000
  C   C71       1.0  0.05110  0.94230  0.81620  1.0000
  C   C72       1.0  0.44890  0.44230  0.68380  1.0000
  F   F65       1.0  0.98960  0.89950  0.33850  1.0000
  F   F66       1.0  0.51040  0.39950  0.16150  1.0000
  F   F67       1.0  0.01040  0.10050  0.66150  1.0000
  F   F68       1.0  0.48960  0.60050  0.83850  1.0000
  C   C73       1.0  0.97620  0.04920  0.10760  1.0000
  C   C74       1.0  0.52380  0.54920  0.39240  1.0000
  C   C75       1.0  0.02380  0.95080  0.89240  1.0000
  C   C76       1.0  0.47620  0.45080  0.60760  1.0000
  F   F69       1.0  0.05140  0.29190  0.35330  1.0000
  F   F70       1.0  0.44860  0.79190  0.14670  1.0000
  F   F71       1.0  0.94860  0.70810  0.64670  1.0000
  F   F72       1.0  0.55140  0.20810  0.85330  1.0000
  F   F73       1.0  0.06490  0.24350  0.45990  1.0000
  F   F74       1.0  0.43510  0.74350  0.04010  1.0000
  F   F75       1.0  0.93510  0.75650  0.54010  1.0000
  F   F76       1.0  0.56490  0.25650  0.95990  1.0000
  F   F77       1.0  0.01900  0.33900  0.44970  1.0000
  F   F78       1.0  0.48100  0.83900  0.05030  1.0000
  F   F79       1.0  0.98100  0.66100  0.55030  1.0000
  F   F80       1.0  0.51900  0.16100  0.94970  1.0000
  F   F81       1.0  0.91310  0.04000  0.04740  1.0000
  F   F82       1.0  0.58690  0.54000  0.45260  1.0000
  F   F83       1.0  0.08690  0.96000  0.95260  1.0000
  F   F84       1.0  0.41310  0.46000  0.54740  1.0000
  F   F85       1.0  0.52520  0.16120  0.12380  1.0000
  F   F86       1.0  0.97480  0.66120  0.37620  1.0000
  F   F87       1.0  0.47480  0.83880  0.87620  1.0000
  F   F88       1.0  0.02520  0.33880  0.62380  1.0000
  F   F89       1.0  0.02350  0.99840  0.10780  1.0000
  F   F90       1.0  0.47650  0.49840  0.39220  1.0000
  F   F91       1.0  0.97650  0.00160  0.89220  1.0000
  F   F92       1.0  0.52350  0.50160  0.60780  1.0000
  F   F93       1.0  0.01130  0.10150  0.08810  1.0000
  F   F94       1.0  0.48870  0.60150  0.41190  1.0000
  F   F95       1.0  0.98870  0.89850  0.91190  1.0000
  F   F96       1.0  0.51130  0.39850  0.58810  1.0000
  C   C77       1.0  0.01680  0.28370  0.41050  1.0000
  C   C78       1.0  0.48320  0.78370  0.08950  1.0000
  C   C79       1.0  0.98320  0.71630  0.58950  1.0000
  C   C80       1.0  0.51680  0.21630  0.91050  1.0000
