data_image0
_chemical_formula_structural       Ba4O24F36N4C28H4C4H4C4H4C4H4C4H4
_chemical_formula_sum              "Ba4 O24 F36 N4 C44 H20"
_cell_length_a       13.177
_cell_length_b       19.169
_cell_length_c       8.5978
_cell_angle_alpha    90
_cell_angle_beta     102.418
_cell_angle_gamma    90

_space_group_name_H-M_alt    "P 1"
_space_group_IT_number       1

loop_
  _space_group_symop_operation_xyz
  'x, y, z'

loop_
  _atom_site_type_symbol
  _atom_site_label
  _atom_site_symmetry_multiplicity
  _atom_site_fract_x
  _atom_site_fract_y
  _atom_site_fract_z
  _atom_site_occupancy
  Ba  Ba1       1.0  0.22149  0.22607  0.40731  1.0000
  Ba  Ba2       1.0  0.77851  0.72607  0.09269  1.0000
  Ba  Ba3       1.0  0.77851  0.77393  0.59269  1.0000
  Ba  Ba4       1.0  0.22149  0.27393  0.90731  1.0000
  O   O1        1.0  0.36280  0.24461  0.72390  1.0000
  O   O2        1.0  0.63720  0.74461  0.77610  1.0000
  O   O3        1.0  0.63720  0.75539  0.27610  1.0000
  O   O4        1.0  0.36280  0.25539  0.22390  1.0000
  O   O5        1.0  0.40250  0.15390  0.58620  1.0000
  O   O6        1.0  0.59750  0.65390  0.91380  1.0000
  O   O7        1.0  0.59750  0.84610  0.41380  1.0000
  O   O8        1.0  0.40250  0.34610  0.08620  1.0000
  O   O9        1.0  0.16540  0.09483  0.53790  1.0000
  O   O10       1.0  0.83460  0.59483  0.96210  1.0000
  O   O11       1.0  0.83460  0.90517  0.46210  1.0000
  O   O12       1.0  0.16540  0.40517  0.03790  1.0000
  O   O13       1.0  0.12020  0.18664  0.66570  1.0000
  O   O14       1.0  0.87980  0.68664  0.83430  1.0000
  O   O15       1.0  0.87980  0.81336  0.33430  1.0000
  O   O16       1.0  0.12020  0.31336  0.16570  1.0000
  O   O17       1.0  0.18910  0.15995  0.11110  1.0000
  O   O18       1.0  0.81090  0.65995  0.38890  1.0000
  O   O19       1.0  0.81090  0.84005  0.88890  1.0000
  O   O20       1.0  0.18910  0.34005  0.61110  1.0000
  O   O21       1.0  0.28390  0.12354  0.94000  1.0000
  O   O22       1.0  0.71610  0.62354  0.56000  1.0000
  O   O23       1.0  0.71610  0.87646  0.06000  1.0000
  O   O24       1.0  0.28390  0.37646  0.44000  1.0000
  F   F1        1.0  0.53460  0.11136  0.85340  1.0000
  F   F2        1.0  0.46540  0.61136  0.64660  1.0000
  F   F3        1.0  0.46540  0.88864  0.14660  1.0000
  F   F4        1.0  0.53460  0.38864  0.35340  1.0000
  F   F5        1.0  0.59480  0.21000  0.80380  1.0000
  F   F6        1.0  0.40520  0.71000  0.69620  1.0000
  F   F7        1.0  0.40520  0.79000  0.19620  1.0000
  F   F8        1.0  0.59480  0.29000  0.30380  1.0000
  F   F9        1.0  0.50350  0.20160  0.97760  1.0000
  F   F10       1.0  0.49650  0.70160  0.52240  1.0000
  F   F11       1.0  0.49650  0.79840  0.02240  1.0000
  F   F12       1.0  0.50350  0.29840  0.47760  1.0000
  F   F13       1.0  0.08620  0.01620  0.74270  1.0000
  F   F14       1.0  0.91380  0.51620  0.75730  1.0000
  F   F15       1.0  0.91380  0.98380  0.25730  1.0000
  F   F16       1.0  0.08620  0.48380  0.24270  1.0000
  F   F17       1.0  0.95880  0.06480  0.59280  1.0000
  F   F18       1.0  0.04120  0.56480  0.90720  1.0000
  F   F19       1.0  0.04120  0.93520  0.40720  1.0000
  F   F20       1.0  0.95880  0.43520  0.09280  1.0000
  F   F21       1.0  0.01820  0.10310  0.82540  1.0000
  F   F22       1.0  0.98180  0.60310  0.67460  1.0000
  F   F23       1.0  0.98180  0.89690  0.17460  1.0000
  F   F24       1.0  0.01820  0.39690  0.32540  1.0000
  F   F25       1.0  0.16630  0.01741  0.15520  1.0000
  F   F26       1.0  0.83370  0.51741  0.34480  1.0000
  F   F27       1.0  0.83370  0.98259  0.84480  1.0000
  F   F28       1.0  0.16630  0.48259  0.65520  1.0000
  F   F29       1.0  0.31070  0.05550  0.29110  1.0000
  F   F30       1.0  0.68930  0.55550  0.20890  1.0000
  F   F31       1.0  0.68930  0.94450  0.70890  1.0000
  F   F32       1.0  0.31070  0.44450  0.79110  1.0000
  F   F33       1.0  0.30660  0.99892  0.07540  1.0000
  F   F34       1.0  0.69340  0.49892  0.42460  1.0000
  F   F35       1.0  0.69340  0.00108  0.92460  1.0000
  F   F36       1.0  0.30660  0.50108  0.57540  1.0000
  N   N1        1.0  0.00010  0.19200  0.30650  1.0000
  N   N2        1.0  0.99990  0.69200  0.19350  1.0000
  N   N3        1.0  0.99990  0.80800  0.69350  1.0000
  N   N4        1.0  0.00010  0.30800  0.80650  1.0000
  C   C1        1.0  0.41580  0.19320  0.70220  1.0000
  C   C2        1.0  0.58420  0.69320  0.79780  1.0000
  C   C3        1.0  0.58420  0.80680  0.29780  1.0000
  C   C4        1.0  0.41580  0.30680  0.20220  1.0000
  C   C5        1.0  0.51090  0.17860  0.83610  1.0000
  C   C6        1.0  0.48910  0.67860  0.66390  1.0000
  C   C7        1.0  0.48910  0.82140  0.16390  1.0000
  C   C8        1.0  0.51090  0.32140  0.33610  1.0000
  C   C9        1.0  0.11770  0.12410  0.62920  1.0000
  C   C10       1.0  0.88230  0.62410  0.87080  1.0000
  C   C11       1.0  0.88230  0.87590  0.37080  1.0000
  C   C12       1.0  0.11770  0.37590  0.12920  1.0000
  C   C13       1.0  0.04410  0.07690  0.69810  1.0000
  C   C14       1.0  0.95590  0.57690  0.80190  1.0000
  C   C15       1.0  0.95590  0.92310  0.30190  1.0000
  C   C16       1.0  0.04410  0.42310  0.19810  1.0000
  C   C17       1.0  0.24110  0.11640  0.05350  1.0000
  C   C18       1.0  0.75890  0.61640  0.44650  1.0000
  C   C19       1.0  0.75890  0.88360  0.94650  1.0000
  C   C20       1.0  0.24110  0.38360  0.55350  1.0000
  C   C21       1.0  0.25560  0.04630  0.14030  1.0000
  C   C22       1.0  0.74440  0.54630  0.35970  1.0000
  C   C23       1.0  0.74440  0.95370  0.85970  1.0000
  C   C24       1.0  0.25560  0.45370  0.64030  1.0000
  C   C25       1.0  0.93410  0.23570  0.35460  1.0000
  C   C26       1.0  0.06590  0.73570  0.14540  1.0000
  C   C27       1.0  0.06590  0.76430  0.64540  1.0000
  C   C28       1.0  0.93410  0.26430  0.85460  1.0000
  H   H1        1.0  0.96170  0.26980  0.43060  1.0000
  H   H2        1.0  0.03830  0.76980  0.06940  1.0000
  H   H3        1.0  0.03830  0.73020  0.56940  1.0000
  H   H4        1.0  0.96170  0.23020  0.93060  1.0000
  C   C29       1.0  0.82860  0.23370  0.29950  1.0000
  C   C30       1.0  0.17140  0.73370  0.20050  1.0000
  C   C31       1.0  0.17140  0.76630  0.70050  1.0000
  C   C32       1.0  0.82860  0.26630  0.79950  1.0000
  H   H5        1.0  0.78540  0.26590  0.33620  1.0000
  H   H6        1.0  0.21460  0.76590  0.16380  1.0000
  H   H7        1.0  0.21460  0.73410  0.66380  1.0000
  H   H8        1.0  0.78540  0.23410  0.83620  1.0000
  C   C33       1.0  0.78730  0.18400  0.19050  1.0000
  C   C34       1.0  0.21270  0.68400  0.30950  1.0000
  C   C35       1.0  0.21270  0.81600  0.80950  1.0000
  C   C36       1.0  0.78730  0.31600  0.69050  1.0000
  H   H9        1.0  0.71520  0.18140  0.15040  1.0000
  H   H10       1.0  0.28480  0.68140  0.34960  1.0000
  H   H11       1.0  0.28480  0.81860  0.84960  1.0000
  H   H12       1.0  0.71520  0.31860  0.65040  1.0000
  C   C37       1.0  0.85260  0.13840  0.14130  1.0000
  C   C38       1.0  0.14740  0.63840  0.35870  1.0000
  C   C39       1.0  0.14740  0.86160  0.85870  1.0000
  C   C40       1.0  0.85260  0.36160  0.64130  1.0000
  H   H13       1.0  0.82640  0.10350  0.06670  1.0000
  H   H14       1.0  0.17360  0.60350  0.43330  1.0000
  H   H15       1.0  0.17360  0.89650  0.93330  1.0000
  H   H16       1.0  0.82640  0.39650  0.56670  1.0000
  C   C41       1.0  0.95790  0.14390  0.20220  1.0000
  C   C42       1.0  0.04210  0.64390  0.29780  1.0000
  C   C43       1.0  0.04210  0.85610  0.79780  1.0000
  C   C44       1.0  0.95790  0.35610  0.70220  1.0000
  H   H17       1.0  0.00220  0.11180  0.16770  1.0000
  H   H18       1.0  0.99780  0.61180  0.33230  1.0000
  H   H19       1.0  0.99780  0.88820  0.83230  1.0000
  H   H20       1.0  0.00220  0.38820  0.66770  1.0000
