data_image0
_chemical_formula_structural       Mo4Cu4N12C4N4C8N8C4N4C12N4C8H4C4N4C4H4C4N4C4N4C4H4C12H4C4H4C4H4C4H4N8C4H4C4H4C4H4C4H4N4C8H4
_chemical_formula_sum              "Mo4 Cu4 N56 C104 H48"
_cell_length_a       10.665
_cell_length_b       17.956
_cell_length_c       17.194
_cell_angle_alpha    90
_cell_angle_beta     96.19
_cell_angle_gamma    90

_space_group_name_H-M_alt    "P 1"
_space_group_IT_number       1

loop_
  _space_group_symop_operation_xyz
  'x, y, z'

loop_
  _atom_site_type_symbol
  _atom_site_label
  _atom_site_symmetry_multiplicity
  _atom_site_fract_x
  _atom_site_fract_y
  _atom_site_fract_z
  _atom_site_occupancy
  Mo  Mo1       1.0  0.22567  0.16599  0.98538  1.0000
  Mo  Mo2       1.0  0.27433  0.66599  0.51462  1.0000
  Mo  Mo3       1.0  0.77433  0.83401  0.01462  1.0000
  Mo  Mo4       1.0  0.72567  0.33401  0.48538  1.0000
  Cu  Cu1       1.0  0.27724  0.88182  0.04454  1.0000
  Cu  Cu2       1.0  0.22276  0.38182  0.45546  1.0000
  Cu  Cu3       1.0  0.72276  0.11818  0.95546  1.0000
  Cu  Cu4       1.0  0.77724  0.61818  0.54454  1.0000
  N   N1        1.0  0.30450  0.77840  0.07370  1.0000
  N   N2        1.0  0.19550  0.27840  0.42630  1.0000
  N   N3        1.0  0.69550  0.22160  0.92630  1.0000
  N   N4        1.0  0.80450  0.72160  0.57370  1.0000
  N   N5        1.0  0.23560  0.82890  0.93840  1.0000
  N   N6        1.0  0.26440  0.32890  0.56160  1.0000
  N   N7        1.0  0.76440  0.17110  0.06160  1.0000
  N   N8        1.0  0.73560  0.67110  0.43840  1.0000
  N   N9        1.0  0.32400  0.65480  0.03480  1.0000
  N   N10       1.0  0.17600  0.15480  0.46520  1.0000
  N   N11       1.0  0.67600  0.34520  0.96520  1.0000
  N   N12       1.0  0.82400  0.84520  0.53480  1.0000
  C   C1        1.0  0.23060  0.04780  0.00360  1.0000
  C   C2        1.0  0.26940  0.54780  0.49640  1.0000
  C   C3        1.0  0.76940  0.95220  0.99640  1.0000
  C   C4        1.0  0.73060  0.45220  0.50360  1.0000
  N   N13       1.0  0.33630  0.89190  0.16340  1.0000
  N   N14       1.0  0.16370  0.39190  0.33660  1.0000
  N   N15       1.0  0.66370  0.10810  0.83660  1.0000
  N   N16       1.0  0.83630  0.60810  0.66340  1.0000
  C   C5        1.0  0.35860  0.82550  0.20110  1.0000
  C   C6        1.0  0.14140  0.32550  0.29890  1.0000
  C   C7        1.0  0.64140  0.17450  0.79890  1.0000
  C   C8        1.0  0.85860  0.67450  0.70110  1.0000
  C   C9        1.0  0.34380  0.76100  0.14800  1.0000
  C   C10       1.0  0.15620  0.26100  0.35200  1.0000
  C   C11       1.0  0.65620  0.23900  0.85200  1.0000
  C   C12       1.0  0.84380  0.73900  0.64800  1.0000
  N   N17       1.0  0.41760  0.54980  0.21170  1.0000
  N   N18       1.0  0.08240  0.04980  0.28830  1.0000
  N   N19       1.0  0.58240  0.45020  0.78830  1.0000
  N   N20       1.0  0.91760  0.95020  0.71170  1.0000
  N   N21       1.0  0.24120  0.98490  0.01600  1.0000
  N   N22       1.0  0.25880  0.48490  0.48400  1.0000
  N   N23       1.0  0.75880  0.01510  0.98400  1.0000
  N   N24       1.0  0.74120  0.51510  0.51600  1.0000
  C   C13       1.0  0.41760  0.12930  0.98450  1.0000
  C   C14       1.0  0.08240  0.62930  0.51550  1.0000
  C   C15       1.0  0.58240  0.87070  0.01550  1.0000
  C   C16       1.0  0.91760  0.37070  0.48450  1.0000
  N   N25       1.0  0.51970  0.11020  0.98260  1.0000
  N   N26       1.0  0.98030  0.61020  0.51740  1.0000
  N   N27       1.0  0.48030  0.88980  0.01740  1.0000
  N   N28       1.0  0.01970  0.38980  0.48260  1.0000
  C   C17       1.0  0.38950  0.56290  0.13450  1.0000
  C   C18       1.0  0.11050  0.06290  0.36550  1.0000
  C   C19       1.0  0.61050  0.43710  0.86550  1.0000
  C   C20       1.0  0.88950  0.93710  0.63450  1.0000
  C   C21       1.0  0.25780  0.75420  0.94110  1.0000
  C   C22       1.0  0.24220  0.25420  0.55890  1.0000
  C   C23       1.0  0.74220  0.24580  0.05890  1.0000
  C   C24       1.0  0.75780  0.74580  0.44110  1.0000
  C   C25       1.0  0.03480  0.13570  0.93880  1.0000
  C   C26       1.0  0.46520  0.63570  0.56120  1.0000
  C   C27       1.0  0.96520  0.86430  0.06120  1.0000
  C   C28       1.0  0.53480  0.36430  0.43880  1.0000
  N   N29       1.0  0.37210  0.69130  0.17080  1.0000
  N   N30       1.0  0.12790  0.19130  0.32920  1.0000
  N   N31       1.0  0.62790  0.30870  0.82920  1.0000
  N   N32       1.0  0.87210  0.80870  0.67080  1.0000
  C   C29       1.0  0.14150  0.14190  0.09340  1.0000
  C   C30       1.0  0.35850  0.64190  0.40660  1.0000
  C   C31       1.0  0.85850  0.85810  0.90660  1.0000
  C   C32       1.0  0.64150  0.35810  0.59340  1.0000
  C   C33       1.0  0.39590  0.82090  0.28110  1.0000
  C   C34       1.0  0.10410  0.32090  0.21890  1.0000
  C   C35       1.0  0.60410  0.17910  0.71890  1.0000
  C   C36       1.0  0.89590  0.67910  0.78110  1.0000
  H   H1        1.0  0.41200  0.77390  0.30550  1.0000
  H   H2        1.0  0.08800  0.27390  0.19450  1.0000
  H   H3        1.0  0.58800  0.22610  0.69450  1.0000
  H   H4        1.0  0.91200  0.72610  0.80550  1.0000
  C   C37       1.0  0.33550  0.22430  0.07820  1.0000
  C   C38       1.0  0.16450  0.72430  0.42180  1.0000
  C   C39       1.0  0.66450  0.77570  0.92180  1.0000
  C   C40       1.0  0.83550  0.27570  0.57820  1.0000
  N   N33       1.0  0.36280  0.30270  0.89420  1.0000
  N   N34       1.0  0.13720  0.80270  0.60580  1.0000
  N   N35       1.0  0.63720  0.69730  0.10580  1.0000
  N   N36       1.0  0.86280  0.19730  0.39420  1.0000
  C   C41       1.0  0.24470  0.71050  0.87450  1.0000
  C   C42       1.0  0.25530  0.21050  0.62550  1.0000
  C   C43       1.0  0.75530  0.28950  0.12550  1.0000
  C   C44       1.0  0.74470  0.78950  0.37450  1.0000
  H   H5        1.0  0.25900  0.65830  0.87790  1.0000
  H   H6        1.0  0.24100  0.15830  0.62210  1.0000
  H   H7        1.0  0.74100  0.34170  0.12210  1.0000
  H   H8        1.0  0.75900  0.84170  0.37790  1.0000
  C   C45       1.0  0.29710  0.72620  0.02000  1.0000
  C   C46       1.0  0.20290  0.22620  0.48000  1.0000
  C   C47       1.0  0.70290  0.27380  0.98000  1.0000
  C   C48       1.0  0.79710  0.77380  0.52000  1.0000
  N   N37       1.0  0.09930  0.12620  0.14940  1.0000
  N   N38       1.0  0.40070  0.62620  0.35060  1.0000
  N   N39       1.0  0.90070  0.87380  0.85060  1.0000
  N   N40       1.0  0.59930  0.37380  0.64940  1.0000
  C   C49       1.0  0.36010  0.64120  0.11280  1.0000
  C   C50       1.0  0.13990  0.14120  0.38720  1.0000
  C   C51       1.0  0.63990  0.35880  0.88720  1.0000
  C   C52       1.0  0.86010  0.85880  0.61280  1.0000
  N   N41       1.0  0.39540  0.25440  0.12750  1.0000
  N   N42       1.0  0.10460  0.75440  0.37250  1.0000
  N   N43       1.0  0.60460  0.74560  0.87250  1.0000
  N   N44       1.0  0.89540  0.24560  0.62750  1.0000
  C   C53       1.0  0.44810  0.42230  0.18610  1.0000
  C   C54       1.0  0.05190  0.92230  0.31390  1.0000
  C   C55       1.0  0.55190  0.57770  0.81390  1.0000
  C   C56       1.0  0.94810  0.07770  0.68610  1.0000
  H   H9        1.0  0.46950  0.37360  0.20480  1.0000
  H   H10       1.0  0.03050  0.87360  0.29520  1.0000
  H   H11       1.0  0.53050  0.62640  0.79520  1.0000
  H   H12       1.0  0.96950  0.12640  0.70480  1.0000
  C   C57       1.0  0.10950  0.26330  0.99470  1.0000
  C   C58       1.0  0.39050  0.76330  0.50530  1.0000
  C   C59       1.0  0.89050  0.73670  0.00530  1.0000
  C   C60       1.0  0.60950  0.23670  0.49470  1.0000
  C   C61       1.0  0.31220  0.25510  0.92500  1.0000
  C   C62       1.0  0.18780  0.75510  0.57500  1.0000
  C   C63       1.0  0.68780  0.74490  0.07500  1.0000
  C   C64       1.0  0.81220  0.24490  0.42500  1.0000
  C   C65       1.0  0.44730  0.48100  0.23870  1.0000
  C   C66       1.0  0.05270  0.98100  0.26130  1.0000
  C   C67       1.0  0.55270  0.51900  0.76130  1.0000
  C   C68       1.0  0.94730  0.01900  0.73870  1.0000
  H   H13       1.0  0.46760  0.47260  0.29320  1.0000
  H   H14       1.0  0.03240  0.97260  0.20680  1.0000
  H   H15       1.0  0.53240  0.52740  0.70680  1.0000
  H   H16       1.0  0.96760  0.02740  0.79320  1.0000
  C   C69       1.0  0.40910  0.88530  0.32390  1.0000
  C   C70       1.0  0.09090  0.38530  0.17610  1.0000
  C   C71       1.0  0.59090  0.11470  0.67610  1.0000
  C   C72       1.0  0.90910  0.61470  0.82390  1.0000
  H   H17       1.0  0.43180  0.88360  0.37880  1.0000
  H   H18       1.0  0.06820  0.38360  0.12120  1.0000
  H   H19       1.0  0.56820  0.11640  0.62120  1.0000
  H   H20       1.0  0.93180  0.61640  0.87880  1.0000
  C   C73       1.0  0.35100  0.95430  0.20520  1.0000
  C   C74       1.0  0.14900  0.45430  0.29480  1.0000
  C   C75       1.0  0.64900  0.04570  0.79480  1.0000
  C   C76       1.0  0.85100  0.54570  0.70520  1.0000
  H   H21       1.0  0.33540  0.00080  0.17940  1.0000
  H   H22       1.0  0.16460  0.50080  0.32060  1.0000
  H   H23       1.0  0.66460  0.99920  0.82060  1.0000
  H   H24       1.0  0.83540  0.49920  0.67940  1.0000
  C   C77       1.0  0.38860  0.95390  0.28550  1.0000
  C   C78       1.0  0.11140  0.45390  0.21450  1.0000
  C   C79       1.0  0.61140  0.04610  0.71450  1.0000
  C   C80       1.0  0.88860  0.54610  0.78550  1.0000
  H   H25       1.0  0.40010  0.99930  0.31370  1.0000
  H   H26       1.0  0.09990  0.49930  0.18630  1.0000
  H   H27       1.0  0.59990  0.00070  0.68630  1.0000
  H   H28       1.0  0.90010  0.50070  0.81370  1.0000
  N   N45       1.0  0.93350  0.12250  0.91440  1.0000
  N   N46       1.0  0.56650  0.62250  0.58560  1.0000
  N   N47       1.0  0.06650  0.87750  0.08560  1.0000
  N   N48       1.0  0.43350  0.37750  0.41440  1.0000
  N   N49       1.0  0.04400  0.31390  0.99790  1.0000
  N   N50       1.0  0.45600  0.81390  0.50210  1.0000
  N   N51       1.0  0.95600  0.68610  0.00210  1.0000
  N   N52       1.0  0.54400  0.18610  0.49790  1.0000
  C   C81       1.0  0.18900  0.81840  0.79970  1.0000
  C   C82       1.0  0.31100  0.31840  0.70030  1.0000
  C   C83       1.0  0.81100  0.18160  0.20030  1.0000
  C   C84       1.0  0.68900  0.68160  0.29970  1.0000
  H   H29       1.0  0.16410  0.84170  0.75090  1.0000
  H   H30       1.0  0.33590  0.34170  0.74910  1.0000
  H   H31       1.0  0.83590  0.15830  0.24910  1.0000
  H   H32       1.0  0.66410  0.65830  0.25090  1.0000
  C   C85       1.0  0.20390  0.86190  0.86920  1.0000
  C   C86       1.0  0.29610  0.36190  0.63080  1.0000
  C   C87       1.0  0.79610  0.13810  0.13080  1.0000
  C   C88       1.0  0.70390  0.63810  0.36920  1.0000
  H   H33       1.0  0.19140  0.91430  0.86660  1.0000
  H   H34       1.0  0.30860  0.41430  0.63340  1.0000
  H   H35       1.0  0.80860  0.08570  0.13340  1.0000
  H   H36       1.0  0.69140  0.58570  0.36660  1.0000
  C   C89       1.0  0.21010  0.74430  0.80250  1.0000
  C   C90       1.0  0.28990  0.24430  0.69750  1.0000
  C   C91       1.0  0.78990  0.25570  0.19750  1.0000
  C   C92       1.0  0.71010  0.75570  0.30250  1.0000
  H   H37       1.0  0.20140  0.71560  0.75590  1.0000
  H   H38       1.0  0.29860  0.21560  0.74410  1.0000
  H   H39       1.0  0.79860  0.28440  0.24410  1.0000
  H   H40       1.0  0.70140  0.78440  0.25590  1.0000
  C   C93       1.0  0.41860  0.43380  0.10770  1.0000
  C   C94       1.0  0.08140  0.93380  0.39230  1.0000
  C   C95       1.0  0.58140  0.56620  0.89230  1.0000
  C   C96       1.0  0.91860  0.06620  0.60770  1.0000
  H   H41       1.0  0.41890  0.39350  0.07200  1.0000
  H   H42       1.0  0.08110  0.89350  0.42800  1.0000
  H   H43       1.0  0.58110  0.60650  0.92800  1.0000
  H   H44       1.0  0.91890  0.10650  0.57200  1.0000
  N   N53       1.0  0.23650  0.09770  0.80640  1.0000
  N   N54       1.0  0.26350  0.59770  0.69360  1.0000
  N   N55       1.0  0.76350  0.90230  0.19360  1.0000
  N   N56       1.0  0.73650  0.40230  0.30640  1.0000
  C   C97       1.0  0.23320  0.12170  0.86770  1.0000
  C   C98       1.0  0.26680  0.62170  0.63230  1.0000
  C   C99       1.0  0.76680  0.87830  0.13230  1.0000
  C   C100      1.0  0.73320  0.37830  0.36770  1.0000
  C   C101      1.0  0.38770  0.50570  0.08050  1.0000
  C   C102      1.0  0.11230  0.00570  0.41950  1.0000
  C   C103      1.0  0.61230  0.49430  0.91950  1.0000
  C   C104      1.0  0.88770  0.99430  0.58050  1.0000
  H   H45       1.0  0.36620  0.51500  0.02630  1.0000
  H   H46       1.0  0.13380  0.01500  0.47370  1.0000
  H   H47       1.0  0.63380  0.48500  0.97370  1.0000
  H   H48       1.0  0.86620  0.98500  0.52630  1.0000
