data_image0
_chemical_formula_structural       Cu4O24C12H12
_chemical_formula_sum              "Cu4 O24 C12 H12"
_cell_length_a       8.562
_cell_length_b       8.11
_cell_length_c       11.448
_cell_angle_alpha    90
_cell_angle_beta     90
_cell_angle_gamma    90

_space_group_name_H-M_alt    "P 1"
_space_group_IT_number       1

loop_
  _space_group_symop_operation_xyz
  'x, y, z'

loop_
  _atom_site_type_symbol
  _atom_site_label
  _atom_site_symmetry_multiplicity
  _atom_site_fract_x
  _atom_site_fract_y
  _atom_site_fract_z
  _atom_site_occupancy
  Cu  Cu1       1.0  0.50000  0.50000  0.50000  1.0000
  Cu  Cu2       1.0  0.50000  0.50000  0.00000  1.0000
  Cu  Cu3       1.0  0.00000  0.00000  0.00000  1.0000
  Cu  Cu4       1.0  0.00000  0.00000  0.50000  1.0000
  O   O1        1.0  0.58040  0.29490  0.43330  1.0000
  O   O2        1.0  0.41960  0.70510  0.93330  1.0000
  O   O3        1.0  0.08040  0.20510  0.06670  1.0000
  O   O4        1.0  0.91960  0.79490  0.56670  1.0000
  O   O5        1.0  0.41960  0.70510  0.56670  1.0000
  O   O6        1.0  0.58040  0.29490  0.06670  1.0000
  O   O7        1.0  0.91960  0.79490  0.93330  1.0000
  O   O8        1.0  0.08040  0.20510  0.43330  1.0000
  O   O9        1.0  0.74690  0.08680  0.43740  1.0000
  O   O10       1.0  0.25310  0.91320  0.93740  1.0000
  O   O11       1.0  0.24690  0.41320  0.06260  1.0000
  O   O12       1.0  0.75310  0.58680  0.56260  1.0000
  O   O13       1.0  0.25310  0.91320  0.56260  1.0000
  O   O14       1.0  0.74690  0.08680  0.06260  1.0000
  O   O15       1.0  0.75310  0.58680  0.93740  1.0000
  O   O16       1.0  0.24690  0.41320  0.43740  1.0000
  O   O17       1.0  0.47710  0.38370  0.65420  1.0000
  O   O18       1.0  0.52290  0.61630  0.15420  1.0000
  O   O19       1.0  0.97710  0.11630  0.84580  1.0000
  O   O20       1.0  0.02290  0.88370  0.34580  1.0000
  O   O21       1.0  0.52290  0.61630  0.34580  1.0000
  O   O22       1.0  0.47710  0.38370  0.84580  1.0000
  O   O23       1.0  0.02290  0.88370  0.15420  1.0000
  O   O24       1.0  0.97710  0.11630  0.65420  1.0000
  C   C1        1.0  0.69810  0.22200  0.47210  1.0000
  C   C2        1.0  0.30190  0.77800  0.97210  1.0000
  C   C3        1.0  0.19810  0.27800  0.02790  1.0000
  C   C4        1.0  0.80190  0.72200  0.52790  1.0000
  C   C5        1.0  0.30190  0.77800  0.52790  1.0000
  C   C6        1.0  0.69810  0.22200  0.02790  1.0000
  C   C7        1.0  0.80190  0.72200  0.97210  1.0000
  C   C8        1.0  0.19810  0.27800  0.47210  1.0000
  C   C9        1.0  0.49510  0.45330  0.75000  1.0000
  C   C10       1.0  0.50490  0.54670  0.25000  1.0000
  C   C11       1.0  0.99510  0.04670  0.75000  1.0000
  C   C12       1.0  0.00490  0.95330  0.25000  1.0000
  H   H1        1.0  0.74700  0.27000  0.52300  1.0000
  H   H2        1.0  0.25300  0.73000  0.02300  1.0000
  H   H3        1.0  0.24700  0.23000  0.97700  1.0000
  H   H4        1.0  0.75300  0.77000  0.47700  1.0000
  H   H5        1.0  0.25300  0.73000  0.47700  1.0000
  H   H6        1.0  0.74700  0.27000  0.97700  1.0000
  H   H7        1.0  0.75300  0.77000  0.02300  1.0000
  H   H8        1.0  0.24700  0.23000  0.52300  1.0000
  H   H9        1.0  0.54600  0.57700  0.75000  1.0000
  H   H10       1.0  0.45400  0.42300  0.25000  1.0000
  H   H11       1.0  0.04600  0.92300  0.75000  1.0000
  H   H12       1.0  0.95400  0.07700  0.25000  1.0000
