data_image0
_chemical_formula_structural       Mn4O24C12H12
_chemical_formula_sum              "Mn4 O24 C12 H12"
_cell_length_a       8.3176
_cell_length_b       8.3176
_cell_length_c       15.0651
_cell_angle_alpha    90
_cell_angle_beta     90
_cell_angle_gamma    120

_space_group_name_H-M_alt    "P 1"
_space_group_IT_number       1

loop_
  _space_group_symop_operation_xyz
  'x, y, z'

loop_
  _atom_site_type_symbol
  _atom_site_label
  _atom_site_symmetry_multiplicity
  _atom_site_fract_x
  _atom_site_fract_y
  _atom_site_fract_z
  _atom_site_occupancy
  Mn  Mn1       1.0  0.00000  0.00000  0.00000  1.0000
  Mn  Mn2       1.0  0.00000  0.00000  0.50000  1.0000
  Mn  Mn3       1.0  0.33330  0.66670  0.25000  1.0000
  Mn  Mn4       1.0  0.66670  0.33330  0.75000  1.0000
  O   O1        1.0  0.98490  0.20790  0.08246  1.0000
  O   O2        1.0  0.79210  0.77700  0.08246  1.0000
  O   O3        1.0  0.22300  0.01510  0.08246  1.0000
  O   O4        1.0  0.22300  0.20790  0.41754  1.0000
  O   O5        1.0  0.98490  0.77700  0.41754  1.0000
  O   O6        1.0  0.79210  0.01510  0.41754  1.0000
  O   O7        1.0  0.01510  0.79210  0.91754  1.0000
  O   O8        1.0  0.20790  0.22300  0.91754  1.0000
  O   O9        1.0  0.77700  0.98490  0.91754  1.0000
  O   O10       1.0  0.77700  0.79210  0.58246  1.0000
  O   O11       1.0  0.01510  0.22300  0.58246  1.0000
  O   O12       1.0  0.20790  0.98490  0.58246  1.0000
  O   O13       1.0  0.10990  0.45580  0.16900  1.0000
  O   O14       1.0  0.54420  0.65410  0.16900  1.0000
  O   O15       1.0  0.34590  0.89010  0.16900  1.0000
  O   O16       1.0  0.34590  0.45580  0.33100  1.0000
  O   O17       1.0  0.10990  0.65410  0.33100  1.0000
  O   O18       1.0  0.54420  0.89010  0.33100  1.0000
  O   O19       1.0  0.89010  0.54420  0.83100  1.0000
  O   O20       1.0  0.45580  0.34590  0.83100  1.0000
  O   O21       1.0  0.65410  0.10990  0.83100  1.0000
  O   O22       1.0  0.65410  0.54420  0.66900  1.0000
  O   O23       1.0  0.89010  0.34590  0.66900  1.0000
  O   O24       1.0  0.45580  0.10990  0.66900  1.0000
  C   C1        1.0  0.11040  0.32650  0.12803  1.0000
  C   C2        1.0  0.67350  0.78390  0.12803  1.0000
  C   C3        1.0  0.21610  0.88960  0.12803  1.0000
  C   C4        1.0  0.21610  0.32650  0.37197  1.0000
  C   C5        1.0  0.11040  0.78390  0.37197  1.0000
  C   C6        1.0  0.67350  0.88960  0.37197  1.0000
  C   C7        1.0  0.88960  0.67350  0.87197  1.0000
  C   C8        1.0  0.32650  0.21610  0.87197  1.0000
  C   C9        1.0  0.78390  0.11040  0.87197  1.0000
  C   C10       1.0  0.78390  0.67350  0.62803  1.0000
  C   C11       1.0  0.88960  0.21610  0.62803  1.0000
  C   C12       1.0  0.32650  0.11040  0.62803  1.0000
  H   H1        1.0  0.21780  0.31870  0.13240  1.0000
  H   H2        1.0  0.68130  0.89910  0.13240  1.0000
  H   H3        1.0  0.10090  0.78220  0.13240  1.0000
  H   H4        1.0  0.10090  0.31870  0.36760  1.0000
  H   H5        1.0  0.21780  0.89910  0.36760  1.0000
  H   H6        1.0  0.68130  0.78220  0.36760  1.0000
  H   H7        1.0  0.78220  0.68130  0.86760  1.0000
  H   H8        1.0  0.31870  0.10090  0.86760  1.0000
  H   H9        1.0  0.89910  0.21780  0.86760  1.0000
  H   H10       1.0  0.89910  0.68130  0.63240  1.0000
  H   H11       1.0  0.78220  0.10090  0.63240  1.0000
  H   H12       1.0  0.31870  0.21780  0.63240  1.0000
