data_image0
_chemical_formula_structural       Co4O24C12H12
_chemical_formula_sum              "Co4 O24 C12 H12"
_cell_length_a       8.1805
_cell_length_b       8.1805
_cell_length_c       14.6798
_cell_angle_alpha    90
_cell_angle_beta     90
_cell_angle_gamma    120

_space_group_name_H-M_alt    "P 1"
_space_group_IT_number       1

loop_
  _space_group_symop_operation_xyz
  'x, y, z'

loop_
  _atom_site_type_symbol
  _atom_site_label
  _atom_site_symmetry_multiplicity
  _atom_site_fract_x
  _atom_site_fract_y
  _atom_site_fract_z
  _atom_site_occupancy
  Co  Co1       1.0  0.00000  0.00000  0.00000  1.0000
  Co  Co2       1.0  0.00000  0.00000  0.50000  1.0000
  Co  Co3       1.0  0.33330  0.66670  0.25000  1.0000
  Co  Co4       1.0  0.66670  0.33330  0.75000  1.0000
  O   O1        1.0  0.21800  0.20670  0.08090  1.0000
  O   O2        1.0  0.79330  0.01130  0.08090  1.0000
  O   O3        1.0  0.98870  0.78200  0.08090  1.0000
  O   O4        1.0  0.98870  0.20670  0.41910  1.0000
  O   O5        1.0  0.21800  0.01130  0.41910  1.0000
  O   O6        1.0  0.79330  0.78200  0.41910  1.0000
  O   O7        1.0  0.78200  0.79330  0.91910  1.0000
  O   O8        1.0  0.20670  0.98870  0.91910  1.0000
  O   O9        1.0  0.01130  0.21800  0.91910  1.0000
  O   O10       1.0  0.01130  0.79330  0.58090  1.0000
  O   O11       1.0  0.78200  0.98870  0.58090  1.0000
  O   O12       1.0  0.20670  0.21800  0.58090  1.0000
  O   O13       1.0  0.34370  0.45880  0.16993  1.0000
  O   O14       1.0  0.54120  0.88490  0.16993  1.0000
  O   O15       1.0  0.11510  0.65630  0.16993  1.0000
  O   O16       1.0  0.11510  0.45880  0.33007  1.0000
  O   O17       1.0  0.34370  0.88490  0.33007  1.0000
  O   O18       1.0  0.54120  0.65630  0.33007  1.0000
  O   O19       1.0  0.65630  0.54120  0.83007  1.0000
  O   O20       1.0  0.45880  0.11510  0.83007  1.0000
  O   O21       1.0  0.88490  0.34370  0.83007  1.0000
  O   O22       1.0  0.88490  0.54120  0.66993  1.0000
  O   O23       1.0  0.65630  0.11510  0.66993  1.0000
  O   O24       1.0  0.45880  0.34370  0.66993  1.0000
  C   C1        1.0  0.21030  0.32650  0.12826  1.0000
  C   C2        1.0  0.67350  0.88380  0.12826  1.0000
  C   C3        1.0  0.11620  0.78970  0.12826  1.0000
  C   C4        1.0  0.11620  0.32650  0.37174  1.0000
  C   C5        1.0  0.21030  0.88380  0.37174  1.0000
  C   C6        1.0  0.67350  0.78970  0.37174  1.0000
  C   C7        1.0  0.78970  0.67350  0.87174  1.0000
  C   C8        1.0  0.32650  0.11620  0.87174  1.0000
  C   C9        1.0  0.88380  0.21030  0.87174  1.0000
  C   C10       1.0  0.88380  0.67350  0.62826  1.0000
  C   C11       1.0  0.78970  0.11620  0.62826  1.0000
  C   C12       1.0  0.32650  0.21030  0.62826  1.0000
  H   H1        1.0  0.09290  0.31760  0.13360  1.0000
  H   H2        1.0  0.68240  0.77530  0.13360  1.0000
  H   H3        1.0  0.22470  0.90710  0.13360  1.0000
  H   H4        1.0  0.22470  0.31760  0.36640  1.0000
  H   H5        1.0  0.09290  0.77530  0.36640  1.0000
  H   H6        1.0  0.68240  0.90710  0.36640  1.0000
  H   H7        1.0  0.90710  0.68240  0.86640  1.0000
  H   H8        1.0  0.31760  0.22470  0.86640  1.0000
  H   H9        1.0  0.77530  0.09290  0.86640  1.0000
  H   H10       1.0  0.77530  0.68240  0.63360  1.0000
  H   H11       1.0  0.90710  0.22470  0.63360  1.0000
  H   H12       1.0  0.31760  0.09290  0.63360  1.0000
