data_image0
_chemical_formula_structural       Mn4P4O28C4H12
_chemical_formula_sum              "Mn4 P4 O28 C4 H12"
_cell_length_a       5.9778
_cell_length_b       16.6747
_cell_length_c       8.466
_cell_angle_alpha    90
_cell_angle_beta     90.384
_cell_angle_gamma    90

_space_group_name_H-M_alt    "P 1"
_space_group_IT_number       1

loop_
  _space_group_symop_operation_xyz
  'x, y, z'

loop_
  _atom_site_type_symbol
  _atom_site_label
  _atom_site_symmetry_multiplicity
  _atom_site_fract_x
  _atom_site_fract_y
  _atom_site_fract_z
  _atom_site_occupancy
  Mn  Mn1       1.0  0.51530  0.17646  0.50446  1.0000
  Mn  Mn2       1.0  0.01530  0.32354  0.00446  1.0000
  Mn  Mn3       1.0  0.48470  0.82354  0.49554  1.0000
  Mn  Mn4       1.0  0.98470  0.67646  0.99554  1.0000
  P   P1        1.0  0.00710  0.24515  0.37750  1.0000
  P   P2        1.0  0.50710  0.25485  0.87750  1.0000
  P   P3        1.0  0.99290  0.75485  0.62250  1.0000
  P   P4        1.0  0.49290  0.74515  0.12250  1.0000
  O   O1        1.0  0.52870  0.16100  0.24000  1.0000
  O   O2        1.0  0.02870  0.33900  0.74000  1.0000
  O   O3        1.0  0.47130  0.83900  0.76000  1.0000
  O   O4        1.0  0.97130  0.66100  0.26000  1.0000
  O   O5        1.0  0.82340  0.24400  0.50080  1.0000
  O   O6        1.0  0.32340  0.25600  0.00080  1.0000
  O   O7        1.0  0.17660  0.75600  0.49920  1.0000
  O   O8        1.0  0.67660  0.74400  0.99920  1.0000
  O   O9        1.0  0.72370  0.06490  0.53820  1.0000
  O   O10       1.0  0.22370  0.43510  0.03820  1.0000
  O   O11       1.0  0.27630  0.93510  0.46180  1.0000
  O   O12       1.0  0.77630  0.56490  0.96180  1.0000
  O   O13       1.0  0.71930  0.93090  0.51500  1.0000
  O   O14       1.0  0.21930  0.56910  0.01500  1.0000
  O   O15       1.0  0.28070  0.06910  0.48500  1.0000
  O   O16       1.0  0.78070  0.43090  0.98500  1.0000
  O   O17       1.0  0.00480  0.16050  0.28740  1.0000
  O   O18       1.0  0.50480  0.33950  0.78740  1.0000
  O   O19       1.0  0.99520  0.83950  0.71260  1.0000
  O   O20       1.0  0.49520  0.66050  0.21260  1.0000
  O   O21       1.0  0.23730  0.25570  0.45070  1.0000
  O   O22       1.0  0.73730  0.24430  0.95070  1.0000
  O   O23       1.0  0.76270  0.74430  0.54930  1.0000
  O   O24       1.0  0.26270  0.75570  0.04930  1.0000
  O   O25       1.0  0.95850  0.30680  0.25020  1.0000
  O   O26       1.0  0.45850  0.19320  0.75020  1.0000
  O   O27       1.0  0.04150  0.69320  0.74980  1.0000
  O   O28       1.0  0.54150  0.80680  0.24980  1.0000
  C   C1        1.0  0.62880  0.99900  0.51600  1.0000
  C   C2        1.0  0.12880  0.50100  0.01600  1.0000
  C   C3        1.0  0.37120  0.00100  0.48400  1.0000
  C   C4        1.0  0.87120  0.49900  0.98400  1.0000
  H   H1        1.0  0.44000  0.18700  0.17500  1.0000
  H   H2        1.0  0.94000  0.31300  0.67500  1.0000
  H   H3        1.0  0.56000  0.81300  0.82500  1.0000
  H   H4        1.0  0.06000  0.68700  0.32500  1.0000
  H   H5        1.0  0.65000  0.16700  0.20300  1.0000
  H   H6        1.0  0.15000  0.33300  0.70300  1.0000
  H   H7        1.0  0.35000  0.83300  0.79700  1.0000
  H   H8        1.0  0.85000  0.66700  0.29700  1.0000
  H   H9        1.0  0.04000  0.12700  0.33300  1.0000
  H   H10       1.0  0.54000  0.37300  0.83300  1.0000
  H   H11       1.0  0.96000  0.87300  0.66700  1.0000
  H   H12       1.0  0.46000  0.62700  0.16700  1.0000
