data_image0
_chemical_formula_structural       Mn4P2O22C6H6
_chemical_formula_sum              "Mn4 P2 O22 C6 H6"
_cell_length_a       7.83
_cell_length_b       8.041
_cell_length_c       9.652
_cell_angle_alpha    76.29
_cell_angle_beta     78.47
_cell_angle_gamma    86.36

_space_group_name_H-M_alt    "P 1"
_space_group_IT_number       1

loop_
  _space_group_symop_operation_xyz
  'x, y, z'

loop_
  _atom_site_type_symbol
  _atom_site_label
  _atom_site_symmetry_multiplicity
  _atom_site_fract_x
  _atom_site_fract_y
  _atom_site_fract_z
  _atom_site_occupancy
  Mn  Mn1       1.0  0.19076  0.31033  0.61460  1.0000
  Mn  Mn2       1.0  0.80924  0.68967  0.38540  1.0000
  Mn  Mn3       1.0  0.84283  0.03389  0.74818  1.0000
  Mn  Mn4       1.0  0.15717  0.96611  0.25182  1.0000
  P   P1        1.0  0.07780  0.73290  0.59030  1.0000
  P   P2        1.0  0.92220  0.26710  0.40970  1.0000
  O   O1        1.0  0.41570  0.36010  0.70390  1.0000
  O   O2        1.0  0.58430  0.63990  0.29610  1.0000
  O   O3        1.0  0.34440  0.06160  0.64930  1.0000
  O   O4        1.0  0.65560  0.93840  0.35070  1.0000
  O   O5        1.0  0.03110  0.15850  0.83820  1.0000
  O   O6        1.0  0.96890  0.84150  0.16180  1.0000
  O   O7        1.0  0.07440  0.54050  0.63500  1.0000
  O   O8        1.0  0.92560  0.45950  0.36500  1.0000
  O   O9        1.0  0.34540  0.35840  0.39140  1.0000
  O   O10       1.0  0.65460  0.64160  0.60860  1.0000
  O   O11       1.0  0.18620  0.09850  0.01640  1.0000
  O   O12       1.0  0.81380  0.90150  0.98360  1.0000
  O   O13       1.0  0.59040  0.94690  0.71690  1.0000
  O   O14       1.0  0.40960  0.05310  0.28310  1.0000
  O   O15       1.0  0.65380  0.23900  0.78300  1.0000
  O   O16       1.0  0.34620  0.76100  0.21700  1.0000
  O   O17       1.0  0.27480  0.78590  0.56500  1.0000
  O   O18       1.0  0.72520  0.21410  0.43500  1.0000
  O   O19       1.0  0.97170  0.81070  0.70990  1.0000
  O   O20       1.0  0.02830  0.18930  0.29010  1.0000
  O   O21       1.0  0.01660  0.80150  0.44580  1.0000
  O   O22       1.0  0.98340  0.19850  0.55420  1.0000
  C   C1        1.0  0.51960  0.23800  0.73080  1.0000
  C   C2        1.0  0.48040  0.76200  0.26920  1.0000
  C   C3        1.0  0.48170  0.06700  0.69510  1.0000
  C   C4        1.0  0.51830  0.93300  0.30490  1.0000
  C   C5        1.0  0.06390  0.07350  0.95890  1.0000
  C   C6        1.0  0.93610  0.92650  0.04110  1.0000
  H   H1        1.0  0.41300  0.41500  0.36700  1.0000
  H   H2        1.0  0.58700  0.58500  0.63300  1.0000
  H   H3        1.0  0.38100  0.26500  0.36400  1.0000
  H   H4        1.0  0.61900  0.73500  0.63600  1.0000
  H   H5        1.0  0.28400  0.87400  0.58500  1.0000
  H   H6        1.0  0.71600  0.12600  0.41500  1.0000
