data_image0
_chemical_formula_structural       Mn4P4O28C4H12
_chemical_formula_sum              "Mn4 P4 O28 C4 H12"
_cell_length_a       5.4573
_cell_length_b       8.965
_cell_length_c       15.253
_cell_angle_alpha    90
_cell_angle_beta     98.924
_cell_angle_gamma    90

_space_group_name_H-M_alt    "P 1"
_space_group_IT_number       1

loop_
  _space_group_symop_operation_xyz
  'x, y, z'

loop_
  _atom_site_type_symbol
  _atom_site_label
  _atom_site_symmetry_multiplicity
  _atom_site_fract_x
  _atom_site_fract_y
  _atom_site_fract_z
  _atom_site_occupancy
  Mn  Mn1       1.0  0.10100  0.48380  0.81816  1.0000
  Mn  Mn2       1.0  0.60100  0.01620  0.31816  1.0000
  Mn  Mn3       1.0  0.89900  0.51620  0.18184  1.0000
  Mn  Mn4       1.0  0.39900  0.98380  0.68184  1.0000
  P   P1        1.0  0.60970  0.25960  0.81943  1.0000
  P   P2        1.0  0.10970  0.24040  0.31943  1.0000
  P   P3        1.0  0.39030  0.74040  0.18057  1.0000
  P   P4        1.0  0.89030  0.75960  0.68057  1.0000
  O   O1        1.0  0.22490  0.39860  0.95660  1.0000
  O   O2        1.0  0.72490  0.10140  0.45660  1.0000
  O   O3        1.0  0.77510  0.60140  0.04340  1.0000
  O   O4        1.0  0.27510  0.89860  0.54340  1.0000
  O   O5        1.0  0.85240  0.30160  0.78990  1.0000
  O   O6        1.0  0.35240  0.19840  0.28990  1.0000
  O   O7        1.0  0.14760  0.69840  0.21010  1.0000
  O   O8        1.0  0.64760  0.80160  0.71010  1.0000
  O   O9        1.0  0.54630  0.09560  0.80120  1.0000
  O   O10       1.0  0.04630  0.40440  0.30120  1.0000
  O   O11       1.0  0.45370  0.90440  0.19880  1.0000
  O   O12       1.0  0.95370  0.59560  0.69880  1.0000
  O   O13       1.0  0.37110  0.67620  0.85050  1.0000
  O   O14       1.0  0.87110  0.82380  0.35050  1.0000
  O   O15       1.0  0.62890  0.32380  0.14950  1.0000
  O   O16       1.0  0.12890  0.17620  0.64950  1.0000
  O   O17       1.0  0.12480  0.39430  0.09270  1.0000
  O   O18       1.0  0.62480  0.10570  0.59270  1.0000
  O   O19       1.0  0.87520  0.60570  0.90730  1.0000
  O   O20       1.0  0.37520  0.89430  0.40730  1.0000
  O   O21       1.0  0.39750  0.36020  0.77950  1.0000
  O   O22       1.0  0.89750  0.13980  0.27950  1.0000
  O   O23       1.0  0.60250  0.63980  0.22050  1.0000
  O   O24       1.0  0.10250  0.86020  0.72050  1.0000
  O   O25       1.0  0.65480  0.27840  0.92520  1.0000
  O   O26       1.0  0.15480  0.22160  0.42520  1.0000
  O   O27       1.0  0.34520  0.72160  0.07480  1.0000
  O   O28       1.0  0.84520  0.77840  0.57480  1.0000
  C   C1        1.0  0.10100  0.44020  0.01420  1.0000
  C   C2        1.0  0.60100  0.05980  0.51420  1.0000
  C   C3        1.0  0.89900  0.55980  0.98580  1.0000
  C   C4        1.0  0.39900  0.94020  0.48580  1.0000
  H   H1        1.0  0.37000  0.72000  0.81000  1.0000
  H   H2        1.0  0.87000  0.78000  0.31000  1.0000
  H   H3        1.0  0.63000  0.28000  0.19000  1.0000
  H   H4        1.0  0.13000  0.22000  0.69000  1.0000
  H   H5        1.0  0.51000  0.64600  0.87100  1.0000
  H   H6        1.0  0.01000  0.85400  0.37100  1.0000
  H   H7        1.0  0.49000  0.35400  0.12900  1.0000
  H   H8        1.0  0.99000  0.14600  0.62900  1.0000
  H   H9        1.0  0.54000  0.29000  0.93300  1.0000
  H   H10       1.0  0.04000  0.21000  0.43300  1.0000
  H   H11       1.0  0.46000  0.71000  0.06700  1.0000
  H   H12       1.0  0.96000  0.79000  0.56700  1.0000
