data_image0
_chemical_formula_structural       Zn9P12O30C6O6H6C6H12N6C6H6C6H6C6H6N6O6
_chemical_formula_sum              "Zn9 P12 O42 C30 H36 N12"
_cell_length_a       14.3807
_cell_length_b       14.3807
_cell_length_c       14.3552
_cell_angle_alpha    90
_cell_angle_beta     90
_cell_angle_gamma    120

_space_group_name_H-M_alt    "P 1"
_space_group_IT_number       1

loop_
  _space_group_symop_operation_xyz
  'x, y, z'

loop_
  _atom_site_type_symbol
  _atom_site_label
  _atom_site_symmetry_multiplicity
  _atom_site_fract_x
  _atom_site_fract_y
  _atom_site_fract_z
  _atom_site_occupancy
  Zn  Zn1       1.0  0.58507  0.25785  0.83541  1.0000
  Zn  Zn2       1.0  0.74215  0.32722  0.50208  1.0000
  Zn  Zn3       1.0  0.67278  0.41493  0.16874  1.0000
  Zn  Zn4       1.0  0.32722  0.74215  0.49792  1.0000
  Zn  Zn5       1.0  0.41493  0.67278  0.83126  1.0000
  Zn  Zn6       1.0  0.25785  0.58507  0.16459  1.0000
  Zn  Zn7       1.0  0.34366  0.00000  0.66670  1.0000
  Zn  Zn8       1.0  0.00000  0.34366  0.33337  1.0000
  Zn  Zn9       1.0  0.65634  0.65634  0.00003  1.0000
  P   P1        1.0  0.53270  0.22012  0.61950  1.0000
  P   P2        1.0  0.77988  0.31258  0.28617  1.0000
  P   P3        1.0  0.68742  0.46730  0.95283  1.0000
  P   P4        1.0  0.31258  0.77988  0.71383  1.0000
  P   P5        1.0  0.46730  0.68742  0.04717  1.0000
  P   P6        1.0  0.22012  0.53270  0.38050  1.0000
  P   P7        1.0  0.36435  0.20870  0.75924  1.0000
  P   P8        1.0  0.79130  0.15565  0.42591  1.0000
  P   P9        1.0  0.84435  0.63565  0.09257  1.0000
  P   P10       1.0  0.15565  0.79130  0.57409  1.0000
  P   P11       1.0  0.63565  0.84435  0.90743  1.0000
  P   P12       1.0  0.20870  0.36435  0.24076  1.0000
  O   O1        1.0  0.46490  0.10360  0.59320  1.0000
  O   O2        1.0  0.89640  0.36130  0.25987  1.0000
  O   O3        1.0  0.63870  0.53510  0.92653  1.0000
  O   O4        1.0  0.36130  0.89640  0.74013  1.0000
  O   O5        1.0  0.53510  0.63870  0.07347  1.0000
  O   O6        1.0  0.10360  0.46490  0.40680  1.0000
  O   O7        1.0  0.60280  0.23720  0.70360  1.0000
  O   O8        1.0  0.76280  0.36560  0.37027  1.0000
  O   O9        1.0  0.63440  0.39720  0.03693  1.0000
  O   O10       1.0  0.36560  0.76280  0.62973  1.0000
  O   O11       1.0  0.39720  0.63440  0.96307  1.0000
  O   O12       1.0  0.23720  0.60280  0.29640  1.0000
  O   O13       1.0  0.44810  0.25160  0.83680  1.0000
  O   O14       1.0  0.74840  0.19650  0.50347  1.0000
  O   O15       1.0  0.80350  0.55190  0.17013  1.0000
  O   O16       1.0  0.19650  0.74840  0.49653  1.0000
  O   O17       1.0  0.55190  0.80350  0.82987  1.0000
  O   O18       1.0  0.25160  0.44810  0.16320  1.0000
  O   O19       1.0  0.28360  0.24280  0.77190  1.0000
  O   O20       1.0  0.75720  0.04080  0.43857  1.0000
  O   O21       1.0  0.95920  0.71640  0.10523  1.0000
  O   O22       1.0  0.04080  0.75720  0.56143  1.0000
  O   O23       1.0  0.71640  0.95920  0.89477  1.0000
  O   O24       1.0  0.24280  0.28360  0.22810  1.0000
  O   O25       1.0  0.31340  0.08830  0.74710  1.0000
  O   O26       1.0  0.91170  0.22510  0.41377  1.0000
  O   O27       1.0  0.77490  0.68660  0.08043  1.0000
  O   O28       1.0  0.22510  0.91170  0.58623  1.0000
  O   O29       1.0  0.68660  0.77490  0.91957  1.0000
  O   O30       1.0  0.08830  0.31340  0.25290  1.0000
  C   C1        1.0  0.43990  0.27090  0.65070  1.0000
  C   C2        1.0  0.72910  0.16900  0.31737  1.0000
  C   C3        1.0  0.83100  0.56010  0.98403  1.0000
  C   C4        1.0  0.16900  0.72910  0.68263  1.0000
  C   C5        1.0  0.56010  0.83100  0.01597  1.0000
  C   C6        1.0  0.27090  0.43990  0.34930  1.0000
  O   O31       1.0  0.36720  0.24790  0.57390  1.0000
  O   O32       1.0  0.75210  0.11930  0.24057  1.0000
  O   O33       1.0  0.88070  0.63280  0.90723  1.0000
  O   O34       1.0  0.11930  0.75210  0.75943  1.0000
  O   O35       1.0  0.63280  0.88070  0.09277  1.0000
  O   O36       1.0  0.24790  0.36720  0.42610  1.0000
  H   H1        1.0  0.30600  0.22390  0.59380  1.0000
  H   H2        1.0  0.77610  0.08210  0.26047  1.0000
  H   H3        1.0  0.91790  0.69400  0.92713  1.0000
  H   H4        1.0  0.08210  0.77610  0.73953  1.0000
  H   H5        1.0  0.69400  0.91790  0.07287  1.0000
  H   H6        1.0  0.22390  0.30600  0.40620  1.0000
  C   C7        1.0  0.50680  0.39210  0.65820  1.0000
  C   C8        1.0  0.60790  0.11470  0.32487  1.0000
  C   C9        1.0  0.88530  0.49320  0.99153  1.0000
  C   C10       1.0  0.11470  0.60790  0.67513  1.0000
  C   C11       1.0  0.49320  0.88530  0.00847  1.0000
  C   C12       1.0  0.39210  0.50680  0.34180  1.0000
  H   H7        1.0  0.56100  0.40920  0.70570  1.0000
  H   H8        1.0  0.59080  0.15180  0.37237  1.0000
  H   H9        1.0  0.84820  0.43900  0.03903  1.0000
  H   H10       1.0  0.15180  0.59080  0.62763  1.0000
  H   H11       1.0  0.43900  0.84820  0.96097  1.0000
  H   H12       1.0  0.40920  0.56100  0.29430  1.0000
  H   H13       1.0  0.54400  0.41950  0.59950  1.0000
  H   H14       1.0  0.58050  0.12450  0.26617  1.0000
  H   H15       1.0  0.87550  0.45600  0.93283  1.0000
  H   H16       1.0  0.12450  0.58050  0.73383  1.0000
  H   H17       1.0  0.45600  0.87550  0.06717  1.0000
  H   H18       1.0  0.41950  0.54400  0.40050  1.0000
  N   N1        1.0  0.45020  0.44900  0.68010  1.0000
  N   N2        1.0  0.55100  0.00120  0.34677  1.0000
  N   N3        1.0  0.99880  0.54980  0.01343  1.0000
  N   N4        1.0  0.00120  0.55100  0.65323  1.0000
  N   N5        1.0  0.54980  0.99880  0.98657  1.0000
  N   N6        1.0  0.44900  0.45020  0.31990  1.0000
  C   C13       1.0  0.46860  0.51090  0.75580  1.0000
  C   C14       1.0  0.48910  0.95770  0.42247  1.0000
  C   C15       1.0  0.04230  0.53140  0.08913  1.0000
  C   C16       1.0  0.95770  0.48910  0.57753  1.0000
  C   C17       1.0  0.53140  0.04230  0.91087  1.0000
  C   C18       1.0  0.51090  0.46860  0.24420  1.0000
  H   H19       1.0  0.51650  0.52040  0.80330  1.0000
  H   H20       1.0  0.47960  0.99610  0.46997  1.0000
  H   H21       1.0  0.00390  0.48350  0.13663  1.0000
  H   H22       1.0  0.99610  0.47960  0.53003  1.0000
  H   H23       1.0  0.48350  0.00390  0.86337  1.0000
  H   H24       1.0  0.52040  0.51650  0.19670  1.0000
  C   C19       1.0  0.37520  0.45220  0.62660  1.0000
  C   C20       1.0  0.54780  0.92300  0.29327  1.0000
  C   C21       1.0  0.07700  0.62480  0.95993  1.0000
  C   C22       1.0  0.92300  0.54780  0.70673  1.0000
  C   C23       1.0  0.62480  0.07700  0.04007  1.0000
  C   C24       1.0  0.45220  0.37520  0.37340  1.0000
  H   H25       1.0  0.34690  0.41540  0.57110  1.0000
  H   H26       1.0  0.58460  0.93150  0.23777  1.0000
  H   H27       1.0  0.06850  0.65310  0.90443  1.0000
  H   H28       1.0  0.93150  0.58460  0.76223  1.0000
  H   H29       1.0  0.65310  0.06850  0.09557  1.0000
  H   H30       1.0  0.41540  0.34690  0.42890  1.0000
  C   C25       1.0  0.34890  0.52100  0.67050  1.0000
  C   C26       1.0  0.47900  0.82790  0.33717  1.0000
  C   C27       1.0  0.17210  0.65110  0.00383  1.0000
  C   C28       1.0  0.82790  0.47900  0.66283  1.0000
  C   C29       1.0  0.65110  0.17210  0.99617  1.0000
  C   C30       1.0  0.52100  0.34890  0.32950  1.0000
  H   H31       1.0  0.30000  0.54070  0.64940  1.0000
  H   H32       1.0  0.45930  0.75930  0.31607  1.0000
  H   H33       1.0  0.24070  0.70000  0.98273  1.0000
  H   H34       1.0  0.75930  0.45930  0.68393  1.0000
  H   H35       1.0  0.70000  0.24070  0.01727  1.0000
  H   H36       1.0  0.54070  0.30000  0.35060  1.0000
  N   N7        1.0  0.40870  0.55570  0.75250  1.0000
  N   N8        1.0  0.44430  0.85300  0.41917  1.0000
  N   N9        1.0  0.14700  0.59130  0.08583  1.0000
  N   N10       1.0  0.85300  0.44430  0.58083  1.0000
  N   N11       1.0  0.59130  0.14700  0.91417  1.0000
  N   N12       1.0  0.55570  0.40870  0.24750  1.0000
  O   O37       1.0  0.59550  0.28570  0.53720  1.0000
  O   O38       1.0  0.71430  0.30980  0.20387  1.0000
  O   O39       1.0  0.69020  0.40450  0.87053  1.0000
  O   O40       1.0  0.30980  0.71430  0.79613  1.0000
  O   O41       1.0  0.40450  0.69020  0.12947  1.0000
  O   O42       1.0  0.28570  0.59550  0.46280  1.0000
