data_image0
_chemical_formula_structural       Nb8Mn12O8N144C264H256
_chemical_formula_sum              "Nb8 Mn12 O8 N144 C264 H256"
_cell_length_a       19.1498
_cell_length_b       17.707
_cell_length_c       29.3088
_cell_angle_alpha    90
_cell_angle_beta     103.252
_cell_angle_gamma    90

_space_group_name_H-M_alt    "P 1"
_space_group_IT_number       1

loop_
  _space_group_symop_operation_xyz
  'x, y, z'

loop_
  _atom_site_type_symbol
  _atom_site_label
  _atom_site_symmetry_multiplicity
  _atom_site_fract_x
  _atom_site_fract_y
  _atom_site_fract_z
  _atom_site_occupancy
  Nb  Nb1       1.0  0.20691  0.84710  0.13207  1.0000
  Nb  Nb2       1.0  0.79308  0.84710  0.36793  1.0000
  Nb  Nb3       1.0  0.70691  0.34710  0.13207  1.0000
  Nb  Nb4       1.0  0.29309  0.34710  0.36793  1.0000
  Nb  Nb5       1.0  0.79309  0.15290  0.86793  1.0000
  Nb  Nb6       1.0  0.20691  0.15290  0.63207  1.0000
  Nb  Nb7       1.0  0.29309  0.65290  0.86793  1.0000
  Nb  Nb8       1.0  0.70691  0.65290  0.63207  1.0000
  Mn  Mn1       1.0  0.25452  0.60348  0.25518  1.0000
  Mn  Mn2       1.0  0.74548  0.60348  0.24482  1.0000
  Mn  Mn3       1.0  0.75452  0.10348  0.25518  1.0000
  Mn  Mn4       1.0  0.24548  0.10348  0.24482  1.0000
  Mn  Mn5       1.0  0.74548  0.39652  0.74482  1.0000
  Mn  Mn6       1.0  0.25452  0.39652  0.75518  1.0000
  Mn  Mn7       1.0  0.24548  0.89652  0.74482  1.0000
  Mn  Mn8       1.0  0.75452  0.89652  0.75518  1.0000
  Mn  Mn9       1.0  0.00000  0.00000  0.00000  1.0000
  Mn  Mn10      1.0  0.00000  0.00000  0.50000  1.0000
  Mn  Mn11      1.0  0.50000  0.50000  0.00000  1.0000
  Mn  Mn12      1.0  0.50000  0.50000  0.50000  1.0000
  O   O1        1.0  0.06533  0.93028  0.96009  1.0000
  O   O2        1.0  0.93467  0.93028  0.53991  1.0000
  O   O3        1.0  0.56533  0.43028  0.96009  1.0000
  O   O4        1.0  0.43467  0.43028  0.53991  1.0000
  O   O5        1.0  0.93467  0.06972  0.03991  1.0000
  O   O6        1.0  0.06533  0.06972  0.46009  1.0000
  O   O7        1.0  0.43467  0.56972  0.03991  1.0000
  O   O8        1.0  0.56533  0.56972  0.46009  1.0000
  N   N1        1.0  0.23849  0.70728  0.21260  1.0000
  N   N2        1.0  0.76151  0.70728  0.28740  1.0000
  N   N3        1.0  0.73849  0.20728  0.21260  1.0000
  N   N4        1.0  0.26151  0.20728  0.28740  1.0000
  N   N5        1.0  0.76151  0.29272  0.78740  1.0000
  N   N6        1.0  0.23849  0.29272  0.71260  1.0000
  N   N7        1.0  0.26151  0.79272  0.78740  1.0000
  N   N8        1.0  0.73849  0.79272  0.71260  1.0000
  N   N9        1.0  0.07317  0.95164  0.06350  1.0000
  N   N10       1.0  0.92683  0.95164  0.43650  1.0000
  N   N11       1.0  0.57317  0.45164  0.06350  1.0000
  N   N12       1.0  0.42683  0.45164  0.43650  1.0000
  N   N13       1.0  0.92683  0.04836  0.93650  1.0000
  N   N14       1.0  0.07317  0.04836  0.56350  1.0000
  N   N15       1.0  0.42683  0.54836  0.93650  1.0000
  N   N16       1.0  0.57317  0.54836  0.56350  1.0000
  N   N17       1.0  0.22937  0.00750  0.19707  1.0000
  N   N18       1.0  0.77063  0.00750  0.30293  1.0000
  N   N19       1.0  0.72937  0.50750  0.19707  1.0000
  N   N20       1.0  0.27063  0.50750  0.30293  1.0000
  N   N21       1.0  0.77063  0.99250  0.80293  1.0000
  N   N22       1.0  0.22937  0.99250  0.69707  1.0000
  N   N23       1.0  0.27063  0.49250  0.80293  1.0000
  N   N24       1.0  0.72937  0.49250  0.69707  1.0000
  N   N25       1.0  0.28936  0.96497  0.06842  1.0000
  N   N26       1.0  0.71064  0.96497  0.43158  1.0000
  N   N27       1.0  0.78936  0.46497  0.06842  1.0000
  N   N28       1.0  0.21064  0.46497  0.43158  1.0000
  N   N29       1.0  0.71064  0.03503  0.93158  1.0000
  N   N30       1.0  0.28936  0.03503  0.56842  1.0000
  N   N31       1.0  0.21064  0.53503  0.93158  1.0000
  N   N32       1.0  0.78936  0.53503  0.56842  1.0000
  N   N33       1.0  0.07680  0.85412  0.19427  1.0000
  N   N34       1.0  0.92320  0.85412  0.30573  1.0000
  N   N35       1.0  0.57680  0.35412  0.19427  1.0000
  N   N36       1.0  0.42320  0.35412  0.30573  1.0000
  N   N37       1.0  0.92320  0.14588  0.80573  1.0000
  N   N38       1.0  0.07680  0.14588  0.69427  1.0000
  N   N39       1.0  0.42320  0.64588  0.80573  1.0000
  N   N40       1.0  0.57680  0.64588  0.69427  1.0000
  N   N41       1.0  0.08247  0.71960  0.07677  1.0000
  N   N42       1.0  0.91753  0.71960  0.42323  1.0000
  N   N43       1.0  0.58247  0.21960  0.07677  1.0000
  N   N44       1.0  0.41753  0.21960  0.42323  1.0000
  N   N45       1.0  0.91753  0.28040  0.92323  1.0000
  N   N46       1.0  0.08247  0.28040  0.57677  1.0000
  N   N47       1.0  0.41753  0.78040  0.92323  1.0000
  N   N48       1.0  0.58247  0.78040  0.57677  1.0000
  N   N49       1.0  0.38246  0.84720  0.19110  1.0000
  N   N50       1.0  0.61754  0.84720  0.30890  1.0000
  N   N51       1.0  0.88246  0.34720  0.19110  1.0000
  N   N52       1.0  0.11754  0.34720  0.30890  1.0000
  N   N53       1.0  0.61754  0.15280  0.80890  1.0000
  N   N54       1.0  0.38246  0.15280  0.69110  1.0000
  N   N55       1.0  0.11754  0.65280  0.80890  1.0000
  N   N56       1.0  0.88246  0.65280  0.69110  1.0000
  N   N57       1.0  0.28110  0.72489  0.06612  1.0000
  N   N58       1.0  0.71890  0.72489  0.43388  1.0000
  N   N59       1.0  0.78110  0.22489  0.06612  1.0000
  N   N60       1.0  0.21890  0.22489  0.43388  1.0000
  N   N61       1.0  0.71890  0.27511  0.93388  1.0000
  N   N62       1.0  0.28110  0.27511  0.56612  1.0000
  N   N63       1.0  0.21890  0.77511  0.93388  1.0000
  N   N64       1.0  0.78110  0.77511  0.56612  1.0000
  N   N65       1.0  0.15008  0.55413  0.21140  1.0000
  N   N66       1.0  0.84992  0.55413  0.28860  1.0000
  N   N67       1.0  0.65008  0.05413  0.21140  1.0000
  N   N68       1.0  0.34992  0.05413  0.28860  1.0000
  N   N69       1.0  0.84992  0.44587  0.78860  1.0000
  N   N70       1.0  0.15008  0.44587  0.71140  1.0000
  N   N71       1.0  0.34992  0.94587  0.78860  1.0000
  N   N72       1.0  0.65008  0.94587  0.71140  1.0000
  N   N73       1.0  0.94221  0.48252  0.14675  1.0000
  N   N74       1.0  0.05779  0.48252  0.35325  1.0000
  N   N75       1.0  0.44221  0.98252  0.14675  1.0000
  N   N76       1.0  0.55779  0.98252  0.35325  1.0000
  N   N77       1.0  0.05779  0.51748  0.85325  1.0000
  N   N78       1.0  0.94221  0.51748  0.64675  1.0000
  N   N79       1.0  0.55779  0.01748  0.85325  1.0000
  N   N80       1.0  0.44221  0.01748  0.64675  1.0000
  N   N81       1.0  0.32642  0.55941  0.20961  1.0000
  N   N82       1.0  0.67358  0.55941  0.29039  1.0000
  N   N83       1.0  0.82642  0.05941  0.20961  1.0000
  N   N84       1.0  0.17358  0.05941  0.29039  1.0000
  N   N85       1.0  0.67358  0.44059  0.79039  1.0000
  N   N86       1.0  0.32642  0.44059  0.70961  1.0000
  N   N87       1.0  0.17358  0.94059  0.79039  1.0000
  N   N88       1.0  0.82642  0.94059  0.70961  1.0000
  N   N89       1.0  0.48799  0.49750  0.14239  1.0000
  N   N90       1.0  0.51201  0.49750  0.35761  1.0000
  N   N91       1.0  0.98799  0.99750  0.14239  1.0000
  N   N92       1.0  0.01201  0.99750  0.35761  1.0000
  N   N93       1.0  0.51201  0.50250  0.85761  1.0000
  N   N94       1.0  0.48799  0.50250  0.64239  1.0000
  N   N95       1.0  0.01201  0.00250  0.85761  1.0000
  N   N96       1.0  0.98799  0.00250  0.64239  1.0000
  N   N97       1.0  0.18035  0.65732  0.29838  1.0000
  N   N98       1.0  0.81965  0.65732  0.20162  1.0000
  N   N99       1.0  0.68035  0.15732  0.29838  1.0000
  N   N100      1.0  0.31965  0.15732  0.20162  1.0000
  N   N101      1.0  0.81965  0.34268  0.70162  1.0000
  N   N102      1.0  0.18035  0.34268  0.79838  1.0000
  N   N103      1.0  0.31965  0.84268  0.70162  1.0000
  N   N104      1.0  0.68035  0.84268  0.79838  1.0000
  N   N105      1.0  0.04405  0.76405  0.37146  1.0000
  N   N106      1.0  0.95595  0.76405  0.12854  1.0000
  N   N107      1.0  0.54405  0.26405  0.37146  1.0000
  N   N108      1.0  0.45595  0.26405  0.12854  1.0000
  N   N109      1.0  0.95595  0.23595  0.62854  1.0000
  N   N110      1.0  0.04405  0.23595  0.87146  1.0000
  N   N111      1.0  0.45595  0.73595  0.62854  1.0000
  N   N112      1.0  0.54405  0.73595  0.87146  1.0000
  N   N113      1.0  0.35664  0.65678  0.30033  1.0000
  N   N114      1.0  0.64336  0.65678  0.19967  1.0000
  N   N115      1.0  0.85664  0.15678  0.30033  1.0000
  N   N116      1.0  0.14336  0.15678  0.19967  1.0000
  N   N117      1.0  0.64336  0.34322  0.69967  1.0000
  N   N118      1.0  0.35664  0.34322  0.80033  1.0000
  N   N119      1.0  0.14336  0.84322  0.69967  1.0000
  N   N120      1.0  0.85664  0.84322  0.80033  1.0000
  N   N121      1.0  0.53291  0.77430  0.38017  1.0000
  N   N122      1.0  0.46709  0.77430  0.11983  1.0000
  N   N123      1.0  0.03291  0.27430  0.38017  1.0000
  N   N124      1.0  0.96709  0.27430  0.11983  1.0000
  N   N125      1.0  0.46709  0.22570  0.61983  1.0000
  N   N126      1.0  0.53291  0.22570  0.88017  1.0000
  N   N127      1.0  0.96709  0.72570  0.61983  1.0000
  N   N128      1.0  0.03291  0.72570  0.88017  1.0000
  N   N129      1.0  0.92597  0.90242  0.99655  1.0000
  N   N130      1.0  0.07403  0.90242  0.50345  1.0000
  N   N131      1.0  0.42597  0.40242  0.99655  1.0000
  N   N132      1.0  0.57403  0.40242  0.50345  1.0000
  N   N133      1.0  0.07403  0.09758  0.00345  1.0000
  N   N134      1.0  0.92597  0.09758  0.49655  1.0000
  N   N135      1.0  0.57403  0.59758  0.00345  1.0000
  N   N136      1.0  0.42597  0.59758  0.49655  1.0000
  N   N137      1.0  0.79929  0.70779  0.96777  1.0000
  N   N138      1.0  0.20071  0.70779  0.53223  1.0000
  N   N139      1.0  0.29929  0.20779  0.96777  1.0000
  N   N140      1.0  0.70071  0.20779  0.53223  1.0000
  N   N141      1.0  0.20071  0.29221  0.03223  1.0000
  N   N142      1.0  0.79929  0.29221  0.46777  1.0000
  N   N143      1.0  0.70071  0.79221  0.03223  1.0000
  N   N144      1.0  0.29929  0.79221  0.46777  1.0000
  C   C1        1.0  0.22761  0.75337  0.18423  1.0000
  C   C2        1.0  0.77239  0.75337  0.31577  1.0000
  C   C3        1.0  0.72761  0.25337  0.18423  1.0000
  C   C4        1.0  0.27239  0.25337  0.31577  1.0000
  C   C5        1.0  0.77239  0.24663  0.81577  1.0000
  C   C6        1.0  0.22761  0.24663  0.68423  1.0000
  C   C7        1.0  0.27239  0.74663  0.81577  1.0000
  C   C8        1.0  0.72761  0.74663  0.68423  1.0000
  C   C9        1.0  0.11894  0.91717  0.08669  1.0000
  C   C10       1.0  0.88106  0.91717  0.41331  1.0000
  C   C11       1.0  0.61894  0.41717  0.08669  1.0000
  C   C12       1.0  0.38106  0.41717  0.41331  1.0000
  C   C13       1.0  0.88106  0.08283  0.91331  1.0000
  C   C14       1.0  0.11894  0.08283  0.58669  1.0000
  C   C15       1.0  0.38106  0.58283  0.91331  1.0000
  C   C16       1.0  0.61894  0.58283  0.58669  1.0000
  C   C17       1.0  0.22128  0.95380  0.17406  1.0000
  C   C18       1.0  0.77872  0.95380  0.32594  1.0000
  C   C19       1.0  0.72128  0.45380  0.17406  1.0000
  C   C20       1.0  0.27872  0.45380  0.32594  1.0000
  C   C21       1.0  0.77872  0.04620  0.82594  1.0000
  C   C22       1.0  0.22128  0.04620  0.67406  1.0000
  C   C23       1.0  0.27872  0.54620  0.82594  1.0000
  C   C24       1.0  0.72128  0.54620  0.67406  1.0000
  C   C25       1.0  0.26163  0.92472  0.08976  1.0000
  C   C26       1.0  0.73837  0.92472  0.41024  1.0000
  C   C27       1.0  0.76163  0.42472  0.08976  1.0000
  C   C28       1.0  0.23837  0.42472  0.41024  1.0000
  C   C29       1.0  0.73837  0.07528  0.91024  1.0000
  C   C30       1.0  0.26163  0.07528  0.58976  1.0000
  C   C31       1.0  0.23837  0.57528  0.91024  1.0000
  C   C32       1.0  0.76163  0.57528  0.58976  1.0000
  C   C33       1.0  0.12079  0.85179  0.17301  1.0000
  C   C34       1.0  0.87921  0.85179  0.32699  1.0000
  C   C35       1.0  0.62079  0.35179  0.17301  1.0000
  C   C36       1.0  0.37921  0.35179  0.32699  1.0000
  C   C37       1.0  0.87921  0.14821  0.82699  1.0000
  C   C38       1.0  0.12079  0.14821  0.67301  1.0000
  C   C39       1.0  0.37921  0.64821  0.82699  1.0000
  C   C40       1.0  0.62079  0.64821  0.67301  1.0000
  C   C41       1.0  0.12385  0.76237  0.09663  1.0000
  C   C42       1.0  0.87615  0.76237  0.40337  1.0000
  C   C43       1.0  0.62385  0.26237  0.09663  1.0000
  C   C44       1.0  0.37615  0.26237  0.40337  1.0000
  C   C45       1.0  0.87615  0.23763  0.90337  1.0000
  C   C46       1.0  0.12385  0.23763  0.59663  1.0000
  C   C47       1.0  0.37615  0.73763  0.90337  1.0000
  C   C48       1.0  0.62385  0.73763  0.59663  1.0000
  C   C49       1.0  0.32332  0.84786  0.17052  1.0000
  C   C50       1.0  0.67668  0.84786  0.32948  1.0000
  C   C51       1.0  0.82332  0.34786  0.17052  1.0000
  C   C52       1.0  0.17668  0.34786  0.32948  1.0000
  C   C53       1.0  0.67668  0.15214  0.82948  1.0000
  C   C54       1.0  0.32332  0.15214  0.67052  1.0000
  C   C55       1.0  0.17668  0.65214  0.82948  1.0000
  C   C56       1.0  0.82332  0.65214  0.67052  1.0000
  C   C57       1.0  0.25756  0.76697  0.08866  1.0000
  C   C58       1.0  0.74244  0.76697  0.41134  1.0000
  C   C59       1.0  0.75756  0.26697  0.08866  1.0000
  C   C60       1.0  0.24244  0.26697  0.41134  1.0000
  C   C61       1.0  0.74244  0.23303  0.91134  1.0000
  C   C62       1.0  0.25756  0.23303  0.58866  1.0000
  C   C63       1.0  0.24244  0.73303  0.91134  1.0000
  C   C64       1.0  0.75756  0.73303  0.58866  1.0000
  C   C65       1.0  0.10932  0.59109  0.17498  1.0000
  C   C66       1.0  0.89068  0.59109  0.32502  1.0000
  C   C67       1.0  0.60932  0.09109  0.17498  1.0000
  C   C68       1.0  0.39068  0.09109  0.32502  1.0000
  C   C69       1.0  0.89068  0.40891  0.82502  1.0000
  C   C70       1.0  0.10932  0.40891  0.67498  1.0000
  C   C71       1.0  0.39068  0.90891  0.82502  1.0000
  C   C72       1.0  0.60932  0.90891  0.67498  1.0000
  C   C73       1.0  0.04009  0.57077  0.15335  1.0000
  C   C74       1.0  0.95991  0.57077  0.34665  1.0000
  C   C75       1.0  0.54009  0.07077  0.15335  1.0000
  C   C76       1.0  0.45991  0.07077  0.34665  1.0000
  C   C77       1.0  0.95991  0.42923  0.84665  1.0000
  C   C78       1.0  0.04009  0.42923  0.65335  1.0000
  C   C79       1.0  0.45991  0.92923  0.84665  1.0000
  C   C80       1.0  0.54009  0.92923  0.65335  1.0000
  C   C81       1.0  0.00958  0.50709  0.16883  1.0000
  C   C82       1.0  0.99042  0.50709  0.33117  1.0000
  C   C83       1.0  0.50958  0.00709  0.16883  1.0000
  C   C84       1.0  0.49042  0.00709  0.33117  1.0000
  C   C85       1.0  0.99042  0.49291  0.83117  1.0000
  C   C86       1.0  0.00958  0.49291  0.66883  1.0000
  C   C87       1.0  0.49042  0.99291  0.83117  1.0000
  C   C88       1.0  0.50958  0.99291  0.66883  1.0000
  C   C89       1.0  0.05187  0.46678  0.20604  1.0000
  C   C90       1.0  0.94813  0.46678  0.29396  1.0000
  C   C91       1.0  0.55187  0.96678  0.20604  1.0000
  C   C92       1.0  0.44813  0.96678  0.29396  1.0000
  C   C93       1.0  0.94813  0.53322  0.79396  1.0000
  C   C94       1.0  0.05187  0.53322  0.70604  1.0000
  C   C95       1.0  0.44813  0.03322  0.79396  1.0000
  C   C96       1.0  0.55187  0.03322  0.70604  1.0000
  C   C97       1.0  0.12001  0.49207  0.22600  1.0000
  C   C98       1.0  0.87999  0.49207  0.27400  1.0000
  C   C99       1.0  0.62001  0.99207  0.22600  1.0000
  C   C100      1.0  0.37999  0.99207  0.27400  1.0000
  C   C101      1.0  0.87999  0.50793  0.77400  1.0000
  C   C102      1.0  0.12001  0.50793  0.72600  1.0000
  C   C103      1.0  0.37999  0.00793  0.77400  1.0000
  C   C104      1.0  0.62001  0.00793  0.72600  1.0000
  C   C105      1.0  0.33652  0.59566  0.17131  1.0000
  C   C106      1.0  0.66348  0.59566  0.32869  1.0000
  C   C107      1.0  0.83652  0.09566  0.17131  1.0000
  C   C108      1.0  0.16348  0.09566  0.32869  1.0000
  C   C109      1.0  0.66348  0.40434  0.82869  1.0000
  C   C110      1.0  0.33652  0.40434  0.67131  1.0000
  C   C111      1.0  0.16348  0.90434  0.82869  1.0000
  C   C112      1.0  0.83652  0.90434  0.67131  1.0000
  C   C113      1.0  0.39003  0.57879  0.14857  1.0000
  C   C114      1.0  0.60997  0.57879  0.35143  1.0000
  C   C115      1.0  0.89003  0.07879  0.14857  1.0000
  C   C116      1.0  0.10997  0.07879  0.35143  1.0000
  C   C117      1.0  0.60997  0.42121  0.85143  1.0000
  C   C118      1.0  0.39003  0.42121  0.64857  1.0000
  C   C119      1.0  0.10997  0.92121  0.85143  1.0000
  C   C120      1.0  0.89003  0.92121  0.64857  1.0000
  C   C121      1.0  0.43679  0.51872  0.16468  1.0000
  C   C122      1.0  0.56321  0.51872  0.33532  1.0000
  C   C123      1.0  0.93679  0.01872  0.16468  1.0000
  C   C124      1.0  0.06321  0.01872  0.33532  1.0000
  C   C125      1.0  0.56321  0.48128  0.83532  1.0000
  C   C126      1.0  0.43679  0.48128  0.66468  1.0000
  C   C127      1.0  0.06321  0.98128  0.83532  1.0000
  C   C128      1.0  0.93679  0.98128  0.66468  1.0000
  C   C129      1.0  0.42573  0.47986  0.20404  1.0000
  C   C130      1.0  0.57427  0.47986  0.29596  1.0000
  C   C131      1.0  0.92573  0.97986  0.20404  1.0000
  C   C132      1.0  0.07427  0.97986  0.29596  1.0000
  C   C133      1.0  0.57427  0.52014  0.79596  1.0000
  C   C134      1.0  0.42573  0.52014  0.70404  1.0000
  C   C135      1.0  0.07427  0.02014  0.79596  1.0000
  C   C136      1.0  0.92573  0.02014  0.70404  1.0000
  C   C137      1.0  0.37180  0.50218  0.22518  1.0000
  C   C138      1.0  0.62820  0.50218  0.27482  1.0000
  C   C139      1.0  0.87180  0.00218  0.22518  1.0000
  C   C140      1.0  0.12820  0.00218  0.27482  1.0000
  C   C141      1.0  0.62820  0.49782  0.77482  1.0000
  C   C142      1.0  0.37180  0.49782  0.72518  1.0000
  C   C143      1.0  0.12820  0.99782  0.77482  1.0000
  C   C144      1.0  0.87180  0.99782  0.72518  1.0000
  C   C145      1.0  0.37483  0.65227  0.34725  1.0000
  C   C146      1.0  0.62517  0.65227  0.15275  1.0000
  C   C147      1.0  0.87483  0.15227  0.34725  1.0000
  C   C148      1.0  0.12517  0.15227  0.15275  1.0000
  C   C149      1.0  0.62517  0.34773  0.65275  1.0000
  C   C150      1.0  0.37483  0.34773  0.84725  1.0000
  C   C151      1.0  0.12517  0.84773  0.65275  1.0000
  C   C152      1.0  0.87483  0.84773  0.84725  1.0000
  C   C153      1.0  0.43202  0.69020  0.37530  1.0000
  C   C154      1.0  0.56798  0.69020  0.12470  1.0000
  C   C155      1.0  0.93202  0.19020  0.37530  1.0000
  C   C156      1.0  0.06798  0.19020  0.12470  1.0000
  C   C157      1.0  0.56798  0.30980  0.62470  1.0000
  C   C158      1.0  0.43202  0.30980  0.87530  1.0000
  C   C159      1.0  0.06798  0.80980  0.62470  1.0000
  C   C160      1.0  0.93202  0.80980  0.87530  1.0000
  C   C161      1.0  0.47670  0.73420  0.35433  1.0000
  C   C162      1.0  0.52330  0.73420  0.14567  1.0000
  C   C163      1.0  0.97670  0.23420  0.35433  1.0000
  C   C164      1.0  0.02330  0.23420  0.14567  1.0000
  C   C165      1.0  0.52330  0.26580  0.64567  1.0000
  C   C166      1.0  0.47670  0.26580  0.85433  1.0000
  C   C167      1.0  0.02330  0.76580  0.64567  1.0000
  C   C168      1.0  0.97670  0.76580  0.85433  1.0000
  C   C169      1.0  0.45887  0.73774  0.30517  1.0000
  C   C170      1.0  0.54113  0.73774  0.19483  1.0000
  C   C171      1.0  0.95887  0.23774  0.30517  1.0000
  C   C172      1.0  0.04113  0.23774  0.19483  1.0000
  C   C173      1.0  0.54113  0.26226  0.69483  1.0000
  C   C174      1.0  0.45887  0.26226  0.80517  1.0000
  C   C175      1.0  0.04113  0.76226  0.69483  1.0000
  C   C176      1.0  0.95887  0.76226  0.80517  1.0000
  C   C177      1.0  0.39987  0.69954  0.28043  1.0000
  C   C178      1.0  0.60013  0.69954  0.21957  1.0000
  C   C179      1.0  0.89987  0.19954  0.28043  1.0000
  C   C180      1.0  0.10013  0.19954  0.21957  1.0000
  C   C181      1.0  0.60013  0.30046  0.71957  1.0000
  C   C182      1.0  0.39987  0.30046  0.78043  1.0000
  C   C183      1.0  0.10013  0.80046  0.71957  1.0000
  C   C184      1.0  0.89987  0.80046  0.78043  1.0000
  C   C185      1.0  0.13004  0.70829  0.27811  1.0000
  C   C186      1.0  0.86996  0.70829  0.22189  1.0000
  C   C187      1.0  0.63004  0.20829  0.27811  1.0000
  C   C188      1.0  0.36996  0.20829  0.22189  1.0000
  C   C189      1.0  0.86996  0.29171  0.72189  1.0000
  C   C190      1.0  0.13004  0.29171  0.77811  1.0000
  C   C191      1.0  0.36996  0.79171  0.72189  1.0000
  C   C192      1.0  0.63004  0.79171  0.77811  1.0000
  C   C193      1.0  0.08343  0.74344  0.30041  1.0000
  C   C194      1.0  0.91657  0.74344  0.19959  1.0000
  C   C195      1.0  0.58343  0.24344  0.30041  1.0000
  C   C196      1.0  0.41657  0.24344  0.19959  1.0000
  C   C197      1.0  0.91657  0.25656  0.69959  1.0000
  C   C198      1.0  0.08343  0.25656  0.80041  1.0000
  C   C199      1.0  0.41657  0.75656  0.69959  1.0000
  C   C200      1.0  0.58343  0.75656  0.80041  1.0000
  C   C201      1.0  0.08638  0.72685  0.34756  1.0000
  C   C202      1.0  0.91362  0.72685  0.15244  1.0000
  C   C203      1.0  0.58638  0.22685  0.34756  1.0000
  C   C204      1.0  0.41362  0.22685  0.15244  1.0000
  C   C205      1.0  0.91362  0.27315  0.65244  1.0000
  C   C206      1.0  0.08638  0.27315  0.84756  1.0000
  C   C207      1.0  0.41362  0.77315  0.65244  1.0000
  C   C208      1.0  0.58638  0.77315  0.84756  1.0000
  C   C209      1.0  0.13688  0.67289  0.36890  1.0000
  C   C210      1.0  0.86312  0.67289  0.13110  1.0000
  C   C211      1.0  0.63688  0.17289  0.36890  1.0000
  C   C212      1.0  0.36312  0.17289  0.13110  1.0000
  C   C213      1.0  0.86312  0.32711  0.63110  1.0000
  C   C214      1.0  0.13688  0.32711  0.86890  1.0000
  C   C215      1.0  0.36312  0.82711  0.63110  1.0000
  C   C216      1.0  0.63688  0.82711  0.86890  1.0000
  C   C217      1.0  0.18140  0.64029  0.34333  1.0000
  C   C218      1.0  0.81860  0.64029  0.15667  1.0000
  C   C219      1.0  0.68140  0.14029  0.34333  1.0000
  C   C220      1.0  0.31860  0.14029  0.15667  1.0000
  C   C221      1.0  0.81860  0.35971  0.65667  1.0000
  C   C222      1.0  0.18140  0.35971  0.84333  1.0000
  C   C223      1.0  0.31860  0.85971  0.65667  1.0000
  C   C224      1.0  0.68140  0.85971  0.84333  1.0000
  C   C225      1.0  0.85650  0.90521  0.97266  1.0000
  C   C226      1.0  0.14350  0.90521  0.52734  1.0000
  C   C227      1.0  0.35650  0.40521  0.97266  1.0000
  C   C228      1.0  0.64350  0.40521  0.52734  1.0000
  C   C229      1.0  0.14350  0.09479  0.02734  1.0000
  C   C230      1.0  0.85650  0.09479  0.47266  1.0000
  C   C231      1.0  0.64350  0.59479  0.02734  1.0000
  C   C232      1.0  0.35650  0.59479  0.47266  1.0000
  C   C233      1.0  0.81270  0.84357  0.96338  1.0000
  C   C234      1.0  0.18730  0.84357  0.53662  1.0000
  C   C235      1.0  0.31270  0.34357  0.96338  1.0000
  C   C236      1.0  0.68730  0.34357  0.53662  1.0000
  C   C237      1.0  0.18730  0.15643  0.03662  1.0000
  C   C238      1.0  0.81270  0.15643  0.46338  1.0000
  C   C239      1.0  0.68730  0.65643  0.03662  1.0000
  C   C240      1.0  0.31270  0.65643  0.46338  1.0000
  C   C241      1.0  0.83989  0.77082  0.97752  1.0000
  C   C242      1.0  0.16011  0.77082  0.52248  1.0000
  C   C243      1.0  0.33989  0.27082  0.97752  1.0000
  C   C244      1.0  0.66011  0.27082  0.52248  1.0000
  C   C245      1.0  0.16011  0.22918  0.02248  1.0000
  C   C246      1.0  0.83989  0.22918  0.47752  1.0000
  C   C247      1.0  0.66011  0.72918  0.02248  1.0000
  C   C248      1.0  0.33989  0.72918  0.47752  1.0000
  C   C249      1.0  0.91165  0.76775  0.00291  1.0000
  C   C250      1.0  0.08835  0.76775  0.49709  1.0000
  C   C251      1.0  0.41165  0.26775  0.00291  1.0000
  C   C252      1.0  0.58835  0.26775  0.49709  1.0000
  C   C253      1.0  0.08835  0.23225  0.99709  1.0000
  C   C254      1.0  0.91165  0.23225  0.50291  1.0000
  C   C255      1.0  0.58835  0.73225  0.99709  1.0000
  C   C256      1.0  0.41165  0.73225  0.50291  1.0000
  C   C257      1.0  0.95110  0.83309  0.01128  1.0000
  C   C258      1.0  0.04890  0.83309  0.48872  1.0000
  C   C259      1.0  0.45110  0.33309  0.01128  1.0000
  C   C260      1.0  0.54890  0.33309  0.48872  1.0000
  C   C261      1.0  0.04890  0.16691  0.98872  1.0000
  C   C262      1.0  0.95110  0.16691  0.51128  1.0000
  C   C263      1.0  0.54890  0.66691  0.98872  1.0000
  C   C264      1.0  0.45110  0.66691  0.51128  1.0000
  H   H1        1.0  0.10920  0.94100  0.96310  1.0000
  H   H2        1.0  0.89080  0.94100  0.53690  1.0000
  H   H3        1.0  0.60920  0.44100  0.96310  1.0000
  H   H4        1.0  0.39080  0.44100  0.53690  1.0000
  H   H5        1.0  0.89080  0.05900  0.03690  1.0000
  H   H6        1.0  0.10920  0.05900  0.46310  1.0000
  H   H7        1.0  0.39080  0.55900  0.03690  1.0000
  H   H8        1.0  0.60920  0.55900  0.46310  1.0000
  H   H9        1.0  0.06970  0.88270  0.96610  1.0000
  H   H10       1.0  0.93030  0.88270  0.53390  1.0000
  H   H11       1.0  0.56970  0.38270  0.96610  1.0000
  H   H12       1.0  0.43030  0.38270  0.53390  1.0000
  H   H13       1.0  0.93030  0.11730  0.03390  1.0000
  H   H14       1.0  0.06970  0.11730  0.46610  1.0000
  H   H15       1.0  0.43030  0.61730  0.03390  1.0000
  H   H16       1.0  0.56970  0.61730  0.46610  1.0000
  H   H17       1.0  0.12940  0.63400  0.16330  1.0000
  H   H18       1.0  0.87060  0.63400  0.33670  1.0000
  H   H19       1.0  0.62940  0.13400  0.16330  1.0000
  H   H20       1.0  0.37060  0.13400  0.33670  1.0000
  H   H21       1.0  0.87060  0.36600  0.83670  1.0000
  H   H22       1.0  0.12940  0.36600  0.66330  1.0000
  H   H23       1.0  0.37060  0.86600  0.83670  1.0000
  H   H24       1.0  0.62940  0.86600  0.66330  1.0000
  H   H25       1.0  0.01350  0.60000  0.12810  1.0000
  H   H26       1.0  0.98650  0.60000  0.37190  1.0000
  H   H27       1.0  0.51350  0.10000  0.12810  1.0000
  H   H28       1.0  0.48650  0.10000  0.37190  1.0000
  H   H29       1.0  0.98650  0.40000  0.87190  1.0000
  H   H30       1.0  0.01350  0.40000  0.62810  1.0000
  H   H31       1.0  0.48650  0.90000  0.87190  1.0000
  H   H32       1.0  0.51350  0.90000  0.62810  1.0000
  H   H33       1.0  0.92310  0.44330  0.16000  1.0000
  H   H34       1.0  0.07690  0.44330  0.34000  1.0000
  H   H35       1.0  0.42310  0.94330  0.16000  1.0000
  H   H36       1.0  0.57690  0.94330  0.34000  1.0000
  H   H37       1.0  0.07690  0.55670  0.84000  1.0000
  H   H38       1.0  0.92310  0.55670  0.66000  1.0000
  H   H39       1.0  0.57690  0.05670  0.84000  1.0000
  H   H40       1.0  0.42310  0.05670  0.66000  1.0000
  H   H41       1.0  0.91480  0.51720  0.12880  1.0000
  H   H42       1.0  0.08520  0.51720  0.37120  1.0000
  H   H43       1.0  0.41480  0.01720  0.12880  1.0000
  H   H44       1.0  0.58520  0.01720  0.37120  1.0000
  H   H45       1.0  0.08520  0.48280  0.87120  1.0000
  H   H46       1.0  0.91480  0.48280  0.62880  1.0000
  H   H47       1.0  0.58520  0.98280  0.87120  1.0000
  H   H48       1.0  0.41480  0.98280  0.62880  1.0000
  H   H49       1.0  0.03380  0.42240  0.21750  1.0000
  H   H50       1.0  0.96620  0.42240  0.28250  1.0000
  H   H51       1.0  0.53380  0.92240  0.21750  1.0000
  H   H52       1.0  0.46620  0.92240  0.28250  1.0000
  H   H53       1.0  0.96620  0.57760  0.78250  1.0000
  H   H54       1.0  0.03380  0.57760  0.71750  1.0000
  H   H55       1.0  0.46620  0.07760  0.78250  1.0000
  H   H56       1.0  0.53380  0.07760  0.71750  1.0000
  H   H57       1.0  0.52140  0.46210  0.15290  1.0000
  H   H58       1.0  0.47860  0.46210  0.34710  1.0000
  H   H59       1.0  0.02140  0.96210  0.15290  1.0000
  H   H60       1.0  0.97860  0.96210  0.34710  1.0000
  H   H61       1.0  0.47860  0.53790  0.84710  1.0000
  H   H62       1.0  0.52140  0.53790  0.65290  1.0000
  H   H63       1.0  0.97860  0.03790  0.84710  1.0000
  H   H64       1.0  0.02140  0.03790  0.65290  1.0000
  H   H65       1.0  0.49110  0.52320  0.11590  1.0000
  H   H66       1.0  0.50890  0.52320  0.38410  1.0000
  H   H67       1.0  0.99110  0.02320  0.11590  1.0000
  H   H68       1.0  0.00890  0.02320  0.38410  1.0000
  H   H69       1.0  0.50890  0.47680  0.88410  1.0000
  H   H70       1.0  0.49110  0.47680  0.61590  1.0000
  H   H71       1.0  0.00890  0.97680  0.88410  1.0000
  H   H72       1.0  0.99110  0.97680  0.61590  1.0000
  H   H73       1.0  0.14770  0.46430  0.25160  1.0000
  H   H74       1.0  0.85230  0.46430  0.24840  1.0000
  H   H75       1.0  0.64770  0.96430  0.25160  1.0000
  H   H76       1.0  0.35230  0.96430  0.24840  1.0000
  H   H77       1.0  0.85230  0.53570  0.74840  1.0000
  H   H78       1.0  0.14770  0.53570  0.75160  1.0000
  H   H79       1.0  0.35230  0.03570  0.74840  1.0000
  H   H80       1.0  0.64770  0.03570  0.75160  1.0000
  H   H81       1.0  0.30460  0.63560  0.15910  1.0000
  H   H82       1.0  0.69540  0.63560  0.34090  1.0000
  H   H83       1.0  0.80460  0.13560  0.15910  1.0000
  H   H84       1.0  0.19540  0.13560  0.34090  1.0000
  H   H85       1.0  0.69540  0.36440  0.84090  1.0000
  H   H86       1.0  0.30460  0.36440  0.65910  1.0000
  H   H87       1.0  0.19540  0.86440  0.84090  1.0000
  H   H88       1.0  0.80460  0.86440  0.65910  1.0000
  H   H89       1.0  0.00210  0.77850  0.35310  1.0000
  H   H90       1.0  0.99790  0.77850  0.14690  1.0000
  H   H91       1.0  0.50210  0.27850  0.35310  1.0000
  H   H92       1.0  0.49790  0.27850  0.14690  1.0000
  H   H93       1.0  0.99790  0.22150  0.64690  1.0000
  H   H94       1.0  0.00210  0.22150  0.85310  1.0000
  H   H95       1.0  0.49790  0.72150  0.64690  1.0000
  H   H96       1.0  0.50210  0.72150  0.85310  1.0000
  H   H97       1.0  0.03860  0.74460  0.39890  1.0000
  H   H98       1.0  0.96140  0.74460  0.10110  1.0000
  H   H99       1.0  0.53860  0.24460  0.39890  1.0000
  H   H100      1.0  0.46140  0.24460  0.10110  1.0000
  H   H101      1.0  0.96140  0.25540  0.60110  1.0000
  H   H102      1.0  0.03860  0.25540  0.89890  1.0000
  H   H103      1.0  0.46140  0.75540  0.60110  1.0000
  H   H104      1.0  0.53860  0.75540  0.89890  1.0000
  H   H105      1.0  0.39520  0.60760  0.12220  1.0000
  H   H106      1.0  0.60480  0.60760  0.37780  1.0000
  H   H107      1.0  0.89520  0.10760  0.12220  1.0000
  H   H108      1.0  0.10480  0.10760  0.37780  1.0000
  H   H109      1.0  0.60480  0.39240  0.87780  1.0000
  H   H110      1.0  0.39520  0.39240  0.62220  1.0000
  H   H111      1.0  0.10480  0.89240  0.87780  1.0000
  H   H112      1.0  0.89520  0.89240  0.62220  1.0000
  H   H113      1.0  0.55210  0.74910  0.40710  1.0000
  H   H114      1.0  0.44790  0.74910  0.09290  1.0000
  H   H115      1.0  0.05210  0.24910  0.40710  1.0000
  H   H116      1.0  0.94790  0.24910  0.09290  1.0000
  H   H117      1.0  0.44790  0.25090  0.59290  1.0000
  H   H118      1.0  0.55210  0.25090  0.90710  1.0000
  H   H119      1.0  0.94790  0.75090  0.59290  1.0000
  H   H120      1.0  0.05210  0.75090  0.90710  1.0000
  H   H121      1.0  0.56790  0.78310  0.36460  1.0000
  H   H122      1.0  0.43210  0.78310  0.13540  1.0000
  H   H123      1.0  0.06790  0.28310  0.36460  1.0000
  H   H124      1.0  0.93210  0.28310  0.13540  1.0000
  H   H125      1.0  0.43210  0.21690  0.63540  1.0000
  H   H126      1.0  0.56790  0.21690  0.86460  1.0000
  H   H127      1.0  0.93210  0.71690  0.63540  1.0000
  H   H128      1.0  0.06790  0.71690  0.86460  1.0000
  H   H129      1.0  0.45540  0.43810  0.21620  1.0000
  H   H130      1.0  0.54460  0.43810  0.28380  1.0000
  H   H131      1.0  0.95540  0.93810  0.21620  1.0000
  H   H132      1.0  0.04460  0.93810  0.28380  1.0000
  H   H133      1.0  0.54460  0.56190  0.78380  1.0000
  H   H134      1.0  0.45540  0.56190  0.71620  1.0000
  H   H135      1.0  0.04460  0.06190  0.78380  1.0000
  H   H136      1.0  0.95540  0.06190  0.71620  1.0000
  H   H137      1.0  0.36640  0.47560  0.25230  1.0000
  H   H138      1.0  0.63360  0.47560  0.24770  1.0000
  H   H139      1.0  0.86640  0.97560  0.25230  1.0000
  H   H140      1.0  0.13360  0.97560  0.24770  1.0000
  H   H141      1.0  0.63360  0.52440  0.74770  1.0000
  H   H142      1.0  0.36640  0.52440  0.75230  1.0000
  H   H143      1.0  0.13360  0.02440  0.74770  1.0000
  H   H144      1.0  0.86640  0.02440  0.75230  1.0000
  H   H145      1.0  0.81780  0.66500  0.98080  1.0000
  H   H146      1.0  0.18220  0.66500  0.51920  1.0000
  H   H147      1.0  0.31780  0.16500  0.98080  1.0000
  H   H148      1.0  0.68220  0.16500  0.51920  1.0000
  H   H149      1.0  0.18220  0.33500  0.01920  1.0000
  H   H150      1.0  0.81780  0.33500  0.48080  1.0000
  H   H151      1.0  0.68220  0.83500  0.01920  1.0000
  H   H152      1.0  0.31780  0.83500  0.48080  1.0000
  H   H153      1.0  0.75050  0.70970  0.95660  1.0000
  H   H154      1.0  0.24950  0.70970  0.54340  1.0000
  H   H155      1.0  0.25050  0.20970  0.95660  1.0000
  H   H156      1.0  0.74950  0.20970  0.54340  1.0000
  H   H157      1.0  0.24950  0.29030  0.04340  1.0000
  H   H158      1.0  0.75050  0.29030  0.45660  1.0000
  H   H159      1.0  0.74950  0.79030  0.04340  1.0000
  H   H160      1.0  0.25050  0.79030  0.45660  1.0000
  H   H161      1.0  0.34650  0.62090  0.36220  1.0000
  H   H162      1.0  0.65350  0.62090  0.13780  1.0000
  H   H163      1.0  0.84650  0.12090  0.36220  1.0000
  H   H164      1.0  0.15350  0.12090  0.13780  1.0000
  H   H165      1.0  0.65350  0.37910  0.63780  1.0000
  H   H166      1.0  0.34650  0.37910  0.86220  1.0000
  H   H167      1.0  0.15350  0.87910  0.63780  1.0000
  H   H168      1.0  0.84650  0.87910  0.86220  1.0000
  H   H169      1.0  0.44090  0.68630  0.40850  1.0000
  H   H170      1.0  0.55910  0.68630  0.09150  1.0000
  H   H171      1.0  0.94090  0.18630  0.40850  1.0000
  H   H172      1.0  0.05910  0.18630  0.09150  1.0000
  H   H173      1.0  0.55910  0.31370  0.59150  1.0000
  H   H174      1.0  0.44090  0.31370  0.90850  1.0000
  H   H175      1.0  0.05910  0.81370  0.59150  1.0000
  H   H176      1.0  0.94090  0.81370  0.90850  1.0000
  H   H177      1.0  0.48760  0.76650  0.28910  1.0000
  H   H178      1.0  0.51240  0.76650  0.21090  1.0000
  H   H179      1.0  0.98760  0.26650  0.28910  1.0000
  H   H180      1.0  0.01240  0.26650  0.21090  1.0000
  H   H181      1.0  0.51240  0.23350  0.71090  1.0000
  H   H182      1.0  0.48760  0.23350  0.78910  1.0000
  H   H183      1.0  0.01240  0.73350  0.71090  1.0000
  H   H184      1.0  0.98760  0.73350  0.78910  1.0000
  H   H185      1.0  0.38880  0.70350  0.24720  1.0000
  H   H186      1.0  0.61120  0.70350  0.25280  1.0000
  H   H187      1.0  0.88880  0.20350  0.24720  1.0000
  H   H188      1.0  0.11120  0.20350  0.25280  1.0000
  H   H189      1.0  0.61120  0.29650  0.75280  1.0000
  H   H190      1.0  0.38880  0.29650  0.74720  1.0000
  H   H191      1.0  0.11120  0.79650  0.75280  1.0000
  H   H192      1.0  0.88880  0.79650  0.74720  1.0000
  H   H193      1.0  0.12680  0.72060  0.24610  1.0000
  H   H194      1.0  0.87320  0.72060  0.25390  1.0000
  H   H195      1.0  0.62680  0.22060  0.24610  1.0000
  H   H196      1.0  0.37320  0.22060  0.25390  1.0000
  H   H197      1.0  0.87320  0.27940  0.75390  1.0000
  H   H198      1.0  0.12680  0.27940  0.74610  1.0000
  H   H199      1.0  0.37320  0.77940  0.75390  1.0000
  H   H200      1.0  0.62680  0.77940  0.74610  1.0000
  H   H201      1.0  0.04940  0.77880  0.28400  1.0000
  H   H202      1.0  0.95060  0.77880  0.21600  1.0000
  H   H203      1.0  0.54940  0.27880  0.28400  1.0000
  H   H204      1.0  0.45060  0.27880  0.21600  1.0000
  H   H205      1.0  0.95060  0.22120  0.71600  1.0000
  H   H206      1.0  0.04940  0.22120  0.78400  1.0000
  H   H207      1.0  0.45060  0.72120  0.71600  1.0000
  H   H208      1.0  0.54940  0.72120  0.78400  1.0000
  H   H209      1.0  0.14050  0.65880  0.40060  1.0000
  H   H210      1.0  0.85950  0.65880  0.09940  1.0000
  H   H211      1.0  0.64050  0.15880  0.40060  1.0000
  H   H212      1.0  0.35950  0.15880  0.09940  1.0000
  H   H213      1.0  0.85950  0.34120  0.59940  1.0000
  H   H214      1.0  0.14050  0.34120  0.90060  1.0000
  H   H215      1.0  0.35950  0.84120  0.59940  1.0000
  H   H216      1.0  0.64050  0.84120  0.90060  1.0000
  H   H217      1.0  0.21490  0.60350  0.35850  1.0000
  H   H218      1.0  0.78510  0.60350  0.14150  1.0000
  H   H219      1.0  0.71490  0.10350  0.35850  1.0000
  H   H220      1.0  0.28510  0.10350  0.14150  1.0000
  H   H221      1.0  0.78510  0.39650  0.64150  1.0000
  H   H222      1.0  0.21490  0.39650  0.85850  1.0000
  H   H223      1.0  0.28510  0.89650  0.64150  1.0000
  H   H224      1.0  0.71490  0.89650  0.85850  1.0000
  H   H225      1.0  0.83710  0.95300  0.96170  1.0000
  H   H226      1.0  0.16290  0.95300  0.53830  1.0000
  H   H227      1.0  0.33710  0.45300  0.96170  1.0000
  H   H228      1.0  0.66290  0.45300  0.53830  1.0000
  H   H229      1.0  0.16290  0.04700  0.03830  1.0000
  H   H230      1.0  0.83710  0.04700  0.46170  1.0000
  H   H231      1.0  0.66290  0.54700  0.03830  1.0000
  H   H232      1.0  0.33710  0.54700  0.46170  1.0000
  H   H233      1.0  0.76390  0.84950  0.94740  1.0000
  H   H234      1.0  0.23610  0.84950  0.55260  1.0000
  H   H235      1.0  0.26390  0.34950  0.94740  1.0000
  H   H236      1.0  0.73610  0.34950  0.55260  1.0000
  H   H237      1.0  0.23610  0.15050  0.05260  1.0000
  H   H238      1.0  0.76390  0.15050  0.44740  1.0000
  H   H239      1.0  0.73610  0.65050  0.05260  1.0000
  H   H240      1.0  0.26390  0.65050  0.44740  1.0000
  H   H241      1.0  0.93270  0.72080  0.01420  1.0000
  H   H242      1.0  0.06730  0.72080  0.48580  1.0000
  H   H243      1.0  0.43270  0.22080  0.01420  1.0000
  H   H244      1.0  0.56730  0.22080  0.48580  1.0000
  H   H245      1.0  0.06730  0.27920  0.98580  1.0000
  H   H246      1.0  0.93270  0.27920  0.51420  1.0000
  H   H247      1.0  0.56730  0.77920  0.98580  1.0000
  H   H248      1.0  0.43270  0.77920  0.51420  1.0000
  H   H249      1.0  0.99940  0.82940  0.02860  1.0000
  H   H250      1.0  0.00060  0.82940  0.47140  1.0000
  H   H251      1.0  0.49940  0.32940  0.02860  1.0000
  H   H252      1.0  0.50060  0.32940  0.47140  1.0000
  H   H253      1.0  0.00060  0.17060  0.97140  1.0000
  H   H254      1.0  0.99940  0.17060  0.52860  1.0000
  H   H255      1.0  0.50060  0.67060  0.97140  1.0000
  H   H256      1.0  0.49940  0.67060  0.52860  1.0000
