data_image0
_chemical_formula_structural       Zn12O56P8C16H8C8H8C24H8C16H8C16H8C8H8C8H8C16
_chemical_formula_sum              "Zn12 O56 P8 C112 H56"
_cell_length_a       20.458
_cell_length_b       12.1157
_cell_length_c       16.971
_cell_angle_alpha    90
_cell_angle_beta     90
_cell_angle_gamma    90

_space_group_name_H-M_alt    "P 1"
_space_group_IT_number       1

loop_
  _space_group_symop_operation_xyz
  'x, y, z'

loop_
  _atom_site_type_symbol
  _atom_site_label
  _atom_site_symmetry_multiplicity
  _atom_site_fract_x
  _atom_site_fract_y
  _atom_site_fract_z
  _atom_site_occupancy
  Zn  Zn1       1.0  0.91250  0.54354  0.44291  1.0000
  Zn  Zn2       1.0  0.58750  0.95646  0.94291  1.0000
  Zn  Zn3       1.0  0.41250  0.95646  0.55709  1.0000
  Zn  Zn4       1.0  0.08750  0.54354  0.05709  1.0000
  Zn  Zn5       1.0  0.08750  0.45646  0.55709  1.0000
  Zn  Zn6       1.0  0.41250  0.04354  0.05709  1.0000
  Zn  Zn7       1.0  0.58750  0.04354  0.44291  1.0000
  Zn  Zn8       1.0  0.91250  0.45646  0.94291  1.0000
  Zn  Zn9       1.0  0.00000  0.61899  0.25000  1.0000
  Zn  Zn10      1.0  0.50000  0.88101  0.75000  1.0000
  Zn  Zn11      1.0  0.00000  0.38101  0.75000  1.0000
  Zn  Zn12      1.0  0.50000  0.11899  0.25000  1.0000
  O   O1        1.0  0.97623  0.44080  0.40290  1.0000
  O   O2        1.0  0.52377  0.05920  0.90290  1.0000
  O   O3        1.0  0.47623  0.05920  0.59710  1.0000
  O   O4        1.0  0.02377  0.44080  0.09710  1.0000
  O   O5        1.0  0.02377  0.55920  0.59710  1.0000
  O   O6        1.0  0.47623  0.94080  0.09710  1.0000
  O   O7        1.0  0.52377  0.94080  0.40290  1.0000
  O   O8        1.0  0.97623  0.55920  0.90290  1.0000
  O   O9        1.0  0.05703  0.54960  0.32304  1.0000
  O   O10       1.0  0.44297  0.95040  0.82304  1.0000
  O   O11       1.0  0.55703  0.95040  0.67696  1.0000
  O   O12       1.0  0.94297  0.54960  0.17696  1.0000
  O   O13       1.0  0.94297  0.45040  0.67696  1.0000
  O   O14       1.0  0.55703  0.04960  0.17696  1.0000
  O   O15       1.0  0.44297  0.04960  0.32304  1.0000
  O   O16       1.0  0.05703  0.45040  0.82304  1.0000
  O   O17       1.0  0.09417  0.46230  0.44514  1.0000
  O   O18       1.0  0.40583  0.03770  0.94514  1.0000
  O   O19       1.0  0.59417  0.03770  0.55486  1.0000
  O   O20       1.0  0.90583  0.46230  0.05486  1.0000
  O   O21       1.0  0.90583  0.53770  0.55486  1.0000
  O   O22       1.0  0.59417  0.96230  0.05486  1.0000
  O   O23       1.0  0.40583  0.96230  0.44514  1.0000
  O   O24       1.0  0.09417  0.53770  0.94514  1.0000
  O   O25       1.0  0.05910  0.72800  0.20810  1.0000
  O   O26       1.0  0.44090  0.77200  0.70810  1.0000
  O   O27       1.0  0.55910  0.77200  0.79190  1.0000
  O   O28       1.0  0.94090  0.72800  0.29190  1.0000
  O   O29       1.0  0.94090  0.27200  0.79190  1.0000
  O   O30       1.0  0.55910  0.22800  0.29190  1.0000
  O   O31       1.0  0.44090  0.22800  0.20810  1.0000
  O   O32       1.0  0.05910  0.27200  0.70810  1.0000
  O   O33       1.0  0.07665  0.70480  0.08030  1.0000
  O   O34       1.0  0.42335  0.79520  0.58030  1.0000
  O   O35       1.0  0.57665  0.79520  0.91970  1.0000
  O   O36       1.0  0.92335  0.70480  0.41970  1.0000
  O   O37       1.0  0.92335  0.29520  0.91970  1.0000
  O   O38       1.0  0.57665  0.20480  0.41970  1.0000
  O   O39       1.0  0.42335  0.20480  0.08030  1.0000
  O   O40       1.0  0.07665  0.29520  0.58030  1.0000
  O   O41       1.0  0.32694  0.03560  0.10620  1.0000
  O   O42       1.0  0.17306  0.46440  0.60620  1.0000
  O   O43       1.0  0.82694  0.46440  0.89380  1.0000
  O   O44       1.0  0.67306  0.03560  0.39380  1.0000
  O   O45       1.0  0.67306  0.96440  0.89380  1.0000
  O   O46       1.0  0.82694  0.53560  0.39380  1.0000
  O   O47       1.0  0.17306  0.53560  0.10620  1.0000
  O   O48       1.0  0.32694  0.96440  0.60620  1.0000
  O   O49       1.0  0.30719  0.87830  0.04280  1.0000
  O   O50       1.0  0.19281  0.62170  0.54280  1.0000
  O   O51       1.0  0.80719  0.62170  0.95720  1.0000
  O   O52       1.0  0.69281  0.87830  0.45720  1.0000
  O   O53       1.0  0.69281  0.12170  0.95720  1.0000
  O   O54       1.0  0.80719  0.37830  0.45720  1.0000
  O   O55       1.0  0.19281  0.37830  0.04280  1.0000
  O   O56       1.0  0.30719  0.12170  0.54280  1.0000
  P   P1        1.0  0.04626  0.45137  0.37768  1.0000
  P   P2        1.0  0.45374  0.04863  0.87768  1.0000
  P   P3        1.0  0.54626  0.04863  0.62232  1.0000
  P   P4        1.0  0.95374  0.45137  0.12232  1.0000
  P   P5        1.0  0.95374  0.54863  0.62232  1.0000
  P   P6        1.0  0.54626  0.95137  0.12232  1.0000
  P   P7        1.0  0.45374  0.95137  0.37768  1.0000
  P   P8        1.0  0.04626  0.54863  0.87768  1.0000
  C   C1        1.0  0.06870  0.32980  0.32280  1.0000
  C   C2        1.0  0.43130  0.17020  0.82280  1.0000
  C   C3        1.0  0.56870  0.17020  0.67720  1.0000
  C   C4        1.0  0.93130  0.32980  0.17720  1.0000
  C   C5        1.0  0.93130  0.67020  0.67720  1.0000
  C   C6        1.0  0.56870  0.82980  0.17720  1.0000
  C   C7        1.0  0.43130  0.82980  0.32280  1.0000
  C   C8        1.0  0.06870  0.67020  0.82280  1.0000
  C   C9        1.0  0.10560  0.33940  0.25460  1.0000
  C   C10       1.0  0.39440  0.16060  0.75460  1.0000
  C   C11       1.0  0.60560  0.16060  0.74540  1.0000
  C   C12       1.0  0.89440  0.33940  0.24540  1.0000
  C   C13       1.0  0.89440  0.66060  0.74540  1.0000
  C   C14       1.0  0.60560  0.83940  0.24540  1.0000
  C   C15       1.0  0.39440  0.83940  0.25460  1.0000
  C   C16       1.0  0.10560  0.66060  0.75460  1.0000
  H   H1        1.0  0.11600  0.40930  0.23560  1.0000
  H   H2        1.0  0.38400  0.09070  0.73560  1.0000
  H   H3        1.0  0.61600  0.09070  0.76440  1.0000
  H   H4        1.0  0.88400  0.40930  0.26440  1.0000
  H   H5        1.0  0.88400  0.59070  0.76440  1.0000
  H   H6        1.0  0.61600  0.90930  0.26440  1.0000
  H   H7        1.0  0.38400  0.90930  0.23560  1.0000
  H   H8        1.0  0.11600  0.59070  0.73560  1.0000
  C   C17       1.0  0.12710  0.24740  0.21440  1.0000
  C   C18       1.0  0.37290  0.25260  0.71440  1.0000
  C   C19       1.0  0.62710  0.25260  0.78560  1.0000
  C   C20       1.0  0.87290  0.24740  0.28560  1.0000
  C   C21       1.0  0.87290  0.75260  0.78560  1.0000
  C   C22       1.0  0.62710  0.74740  0.28560  1.0000
  C   C23       1.0  0.37290  0.74740  0.21440  1.0000
  C   C24       1.0  0.12710  0.75260  0.71440  1.0000
  H   H9        1.0  0.15120  0.25630  0.16840  1.0000
  H   H10       1.0  0.34880  0.24370  0.66840  1.0000
  H   H11       1.0  0.65120  0.24370  0.83160  1.0000
  H   H12       1.0  0.84880  0.25630  0.33160  1.0000
  H   H13       1.0  0.84880  0.74370  0.83160  1.0000
  H   H14       1.0  0.65120  0.75630  0.33160  1.0000
  H   H15       1.0  0.34880  0.75630  0.16840  1.0000
  H   H16       1.0  0.15120  0.74370  0.66840  1.0000
  C   C25       1.0  0.11370  0.14250  0.24120  1.0000
  C   C26       1.0  0.38630  0.35750  0.74120  1.0000
  C   C27       1.0  0.61370  0.35750  0.75880  1.0000
  C   C28       1.0  0.88630  0.14250  0.25880  1.0000
  C   C29       1.0  0.88630  0.85750  0.75880  1.0000
  C   C30       1.0  0.61370  0.64250  0.25880  1.0000
  C   C31       1.0  0.38630  0.64250  0.24120  1.0000
  C   C32       1.0  0.11370  0.85750  0.74120  1.0000
  C   C33       1.0  0.13840  0.04440  0.19770  1.0000
  C   C34       1.0  0.36160  0.45560  0.69770  1.0000
  C   C35       1.0  0.63840  0.45560  0.80230  1.0000
  C   C36       1.0  0.86160  0.04440  0.30230  1.0000
  C   C37       1.0  0.86160  0.95560  0.80230  1.0000
  C   C38       1.0  0.63840  0.54440  0.30230  1.0000
  C   C39       1.0  0.36160  0.54440  0.19770  1.0000
  C   C40       1.0  0.13840  0.95560  0.69770  1.0000
  C   C41       1.0  0.19990  0.04410  0.16310  1.0000
  C   C42       1.0  0.30010  0.45590  0.66310  1.0000
  C   C43       1.0  0.69990  0.45590  0.83690  1.0000
  C   C44       1.0  0.80010  0.04410  0.33690  1.0000
  C   C45       1.0  0.80010  0.95590  0.83690  1.0000
  C   C46       1.0  0.69990  0.54410  0.33690  1.0000
  C   C47       1.0  0.30010  0.54410  0.16310  1.0000
  C   C48       1.0  0.19990  0.95590  0.66310  1.0000
  H   H17       1.0  0.22650  0.10590  0.16860  1.0000
  H   H18       1.0  0.27350  0.39410  0.66860  1.0000
  H   H19       1.0  0.72650  0.39410  0.83140  1.0000
  H   H20       1.0  0.77350  0.10590  0.33140  1.0000
  H   H21       1.0  0.77350  0.89410  0.83140  1.0000
  H   H22       1.0  0.72650  0.60590  0.33140  1.0000
  H   H23       1.0  0.27350  0.60590  0.16860  1.0000
  H   H24       1.0  0.22650  0.89410  0.66860  1.0000
  C   C49       1.0  0.22300  0.95450  0.12060  1.0000
  C   C50       1.0  0.27700  0.54550  0.62060  1.0000
  C   C51       1.0  0.72300  0.54550  0.87940  1.0000
  C   C52       1.0  0.77700  0.95450  0.37940  1.0000
  C   C53       1.0  0.77700  0.04550  0.87940  1.0000
  C   C54       1.0  0.72300  0.45450  0.37940  1.0000
  C   C55       1.0  0.27700  0.45450  0.12060  1.0000
  C   C56       1.0  0.22300  0.04550  0.62060  1.0000
  C   C57       1.0  0.18300  0.86360  0.11020  1.0000
  C   C58       1.0  0.31700  0.63640  0.61020  1.0000
  C   C59       1.0  0.68300  0.63640  0.88980  1.0000
  C   C60       1.0  0.81700  0.86360  0.38980  1.0000
  C   C61       1.0  0.81700  0.13640  0.88980  1.0000
  C   C62       1.0  0.68300  0.36360  0.38980  1.0000
  C   C63       1.0  0.31700  0.36360  0.11020  1.0000
  C   C64       1.0  0.18300  0.13640  0.61020  1.0000
  H   H25       1.0  0.19690  0.80490  0.07900  1.0000
  H   H26       1.0  0.30310  0.69510  0.57900  1.0000
  H   H27       1.0  0.69690  0.69510  0.92100  1.0000
  H   H28       1.0  0.80310  0.80490  0.42100  1.0000
  H   H29       1.0  0.80310  0.19510  0.92100  1.0000
  H   H30       1.0  0.69690  0.30490  0.42100  1.0000
  H   H31       1.0  0.30310  0.30490  0.07900  1.0000
  H   H32       1.0  0.19690  0.19510  0.57900  1.0000
  C   C65       1.0  0.12220  0.86020  0.14620  1.0000
  C   C66       1.0  0.37780  0.63980  0.64620  1.0000
  C   C67       1.0  0.62220  0.63980  0.85380  1.0000
  C   C68       1.0  0.87780  0.86020  0.35380  1.0000
  C   C69       1.0  0.87780  0.13980  0.85380  1.0000
  C   C70       1.0  0.62220  0.36020  0.35380  1.0000
  C   C71       1.0  0.37780  0.36020  0.14620  1.0000
  C   C72       1.0  0.12220  0.13980  0.64620  1.0000
  C   C73       1.0  0.10060  0.94950  0.19000  1.0000
  C   C74       1.0  0.39940  0.55050  0.69000  1.0000
  C   C75       1.0  0.60060  0.55050  0.81000  1.0000
  C   C76       1.0  0.89940  0.94950  0.31000  1.0000
  C   C77       1.0  0.89940  0.05050  0.81000  1.0000
  C   C78       1.0  0.60060  0.44950  0.31000  1.0000
  C   C79       1.0  0.39940  0.44950  0.19000  1.0000
  C   C80       1.0  0.10060  0.05050  0.69000  1.0000
  H   H33       1.0  0.06010  0.94600  0.21470  1.0000
  H   H34       1.0  0.43990  0.55400  0.71470  1.0000
  H   H35       1.0  0.56010  0.55400  0.78530  1.0000
  H   H36       1.0  0.93990  0.94600  0.28530  1.0000
  H   H37       1.0  0.93990  0.05400  0.78530  1.0000
  H   H38       1.0  0.56010  0.44600  0.28530  1.0000
  H   H39       1.0  0.43990  0.44600  0.21470  1.0000
  H   H40       1.0  0.06010  0.05400  0.71470  1.0000
  C   C81       1.0  0.07700  0.13290  0.30960  1.0000
  C   C82       1.0  0.42300  0.36710  0.80960  1.0000
  C   C83       1.0  0.57700  0.36710  0.69040  1.0000
  C   C84       1.0  0.92300  0.13290  0.19040  1.0000
  C   C85       1.0  0.92300  0.86710  0.69040  1.0000
  C   C86       1.0  0.57700  0.63290  0.19040  1.0000
  C   C87       1.0  0.42300  0.63290  0.30960  1.0000
  C   C88       1.0  0.07700  0.86710  0.80960  1.0000
  H   H41       1.0  0.06720  0.06310  0.32900  1.0000
  H   H42       1.0  0.43280  0.43690  0.82900  1.0000
  H   H43       1.0  0.56720  0.43690  0.67100  1.0000
  H   H44       1.0  0.93280  0.06310  0.17100  1.0000
  H   H45       1.0  0.93280  0.93690  0.67100  1.0000
  H   H46       1.0  0.56720  0.56310  0.17100  1.0000
  H   H47       1.0  0.43280  0.56310  0.32900  1.0000
  H   H48       1.0  0.06720  0.93690  0.82900  1.0000
  C   C89       1.0  0.05490  0.22480  0.34960  1.0000
  C   C90       1.0  0.44510  0.27520  0.84960  1.0000
  C   C91       1.0  0.55490  0.27520  0.65040  1.0000
  C   C92       1.0  0.94510  0.22480  0.15040  1.0000
  C   C93       1.0  0.94510  0.77520  0.65040  1.0000
  C   C94       1.0  0.55490  0.72480  0.15040  1.0000
  C   C95       1.0  0.44510  0.72480  0.34960  1.0000
  C   C96       1.0  0.05490  0.77520  0.84960  1.0000
  H   H49       1.0  0.03040  0.21580  0.39520  1.0000
  H   H50       1.0  0.46960  0.28420  0.89520  1.0000
  H   H51       1.0  0.53040  0.28420  0.60480  1.0000
  H   H52       1.0  0.96960  0.21580  0.10480  1.0000
  H   H53       1.0  0.96960  0.78420  0.60480  1.0000
  H   H54       1.0  0.53040  0.71580  0.10480  1.0000
  H   H55       1.0  0.46960  0.71580  0.39520  1.0000
  H   H56       1.0  0.03040  0.78420  0.89520  1.0000
  C   C97       1.0  0.29050  0.95520  0.08590  1.0000
  C   C98       1.0  0.20950  0.54480  0.58590  1.0000
  C   C99       1.0  0.79050  0.54480  0.91410  1.0000
  C   C100      1.0  0.70950  0.95520  0.41410  1.0000
  C   C101      1.0  0.70950  0.04480  0.91410  1.0000
  C   C102      1.0  0.79050  0.45520  0.41410  1.0000
  C   C103      1.0  0.20950  0.45520  0.08590  1.0000
  C   C104      1.0  0.29050  0.04480  0.58590  1.0000
  C   C105      1.0  0.08250  0.75640  0.14370  1.0000
  C   C106      1.0  0.41750  0.74360  0.64370  1.0000
  C   C107      1.0  0.58250  0.74360  0.85630  1.0000
  C   C108      1.0  0.91750  0.75640  0.35630  1.0000
  C   C109      1.0  0.91750  0.24360  0.85630  1.0000
  C   C110      1.0  0.58250  0.25640  0.35630  1.0000
  C   C111      1.0  0.41750  0.25640  0.14370  1.0000
  C   C112      1.0  0.08250  0.24360  0.64370  1.0000
