data_image0
_chemical_formula_structural       Zn8O8C16O8C16H8C16H8C40H8O16H8C8H8C8Zn4H8C8H8O16P8O8
_chemical_formula_sum              "Zn12 O56 C112 H56 P8"
_cell_length_a       20.5835
_cell_length_b       12.0082
_cell_length_c       17.064
_cell_angle_alpha    90
_cell_angle_beta     90
_cell_angle_gamma    90

_space_group_name_H-M_alt    "P 1"
_space_group_IT_number       1

loop_
  _space_group_symop_operation_xyz
  'x, y, z'

loop_
  _atom_site_type_symbol
  _atom_site_label
  _atom_site_symmetry_multiplicity
  _atom_site_fract_x
  _atom_site_fract_y
  _atom_site_fract_z
  _atom_site_occupancy
  Zn  Zn1       1.0  0.58756  0.04008  0.05610  1.0000
  Zn  Zn2       1.0  0.91244  0.45992  0.55610  1.0000
  Zn  Zn3       1.0  0.41244  0.04008  0.44390  1.0000
  Zn  Zn4       1.0  0.08756  0.45992  0.94390  1.0000
  Zn  Zn5       1.0  0.41244  0.95992  0.94390  1.0000
  Zn  Zn6       1.0  0.08756  0.54008  0.44390  1.0000
  Zn  Zn7       1.0  0.58756  0.95992  0.55610  1.0000
  Zn  Zn8       1.0  0.91244  0.54008  0.05610  1.0000
  O   O1        1.0  0.67402  0.03470  0.10392  1.0000
  O   O2        1.0  0.82598  0.46530  0.60392  1.0000
  O   O3        1.0  0.32598  0.03470  0.39608  1.0000
  O   O4        1.0  0.17402  0.46530  0.89608  1.0000
  O   O5        1.0  0.32598  0.96530  0.89608  1.0000
  O   O6        1.0  0.17402  0.53470  0.39608  1.0000
  O   O7        1.0  0.67402  0.96530  0.60392  1.0000
  O   O8        1.0  0.82598  0.53470  0.10392  1.0000
  C   C1        1.0  0.70989  0.95420  0.08540  1.0000
  C   C2        1.0  0.79011  0.54580  0.58540  1.0000
  C   C3        1.0  0.29011  0.95420  0.41460  1.0000
  C   C4        1.0  0.20989  0.54580  0.91460  1.0000
  C   C5        1.0  0.29011  0.04580  0.91460  1.0000
  C   C6        1.0  0.20989  0.45420  0.41460  1.0000
  C   C7        1.0  0.70989  0.04580  0.58540  1.0000
  C   C8        1.0  0.79011  0.45420  0.08540  1.0000
  C   C9        1.0  0.77804  0.95610  0.11810  1.0000
  C   C10       1.0  0.72196  0.54390  0.61810  1.0000
  C   C11       1.0  0.22196  0.95610  0.38190  1.0000
  C   C12       1.0  0.27804  0.54390  0.88190  1.0000
  C   C13       1.0  0.22196  0.04390  0.88190  1.0000
  C   C14       1.0  0.27804  0.45610  0.38190  1.0000
  C   C15       1.0  0.77804  0.04390  0.61810  1.0000
  C   C16       1.0  0.72196  0.45610  0.11810  1.0000
  O   O9        1.0  0.69246  0.87470  0.04520  1.0000
  O   O10       1.0  0.80754  0.62530  0.54520  1.0000
  O   O11       1.0  0.30754  0.87470  0.45480  1.0000
  O   O12       1.0  0.19246  0.62530  0.95480  1.0000
  O   O13       1.0  0.30754  0.12530  0.95480  1.0000
  O   O14       1.0  0.19246  0.37470  0.45480  1.0000
  O   O15       1.0  0.69246  0.12530  0.54520  1.0000
  O   O16       1.0  0.80754  0.37470  0.04520  1.0000
  C   C17       1.0  0.80009  0.04710  0.16050  1.0000
  C   C18       1.0  0.69991  0.45290  0.66050  1.0000
  C   C19       1.0  0.19991  0.04710  0.33950  1.0000
  C   C20       1.0  0.30009  0.45290  0.83950  1.0000
  C   C21       1.0  0.19991  0.95290  0.83950  1.0000
  C   C22       1.0  0.30009  0.54710  0.33950  1.0000
  C   C23       1.0  0.80009  0.95290  0.66050  1.0000
  C   C24       1.0  0.69991  0.54710  0.16050  1.0000
  C   C25       1.0  0.81780  0.86450  0.10820  1.0000
  C   C26       1.0  0.68220  0.63550  0.60820  1.0000
  C   C27       1.0  0.18220  0.86450  0.39180  1.0000
  C   C28       1.0  0.31780  0.63550  0.89180  1.0000
  C   C29       1.0  0.18220  0.13550  0.89180  1.0000
  C   C30       1.0  0.31780  0.36450  0.39180  1.0000
  C   C31       1.0  0.81780  0.13550  0.60820  1.0000
  C   C32       1.0  0.68220  0.36450  0.10820  1.0000
  H   H1        1.0  0.77340  0.10910  0.16590  1.0000
  H   H2        1.0  0.72660  0.39090  0.66590  1.0000
  H   H3        1.0  0.22660  0.10910  0.33410  1.0000
  H   H4        1.0  0.27340  0.39090  0.83410  1.0000
  H   H5        1.0  0.22660  0.89090  0.83410  1.0000
  H   H6        1.0  0.27340  0.60910  0.33410  1.0000
  H   H7        1.0  0.77340  0.89090  0.66590  1.0000
  H   H8        1.0  0.72660  0.60910  0.16590  1.0000
  C   C33       1.0  0.86153  0.04750  0.19520  1.0000
  C   C34       1.0  0.63847  0.45250  0.69520  1.0000
  C   C35       1.0  0.13847  0.04750  0.30480  1.0000
  C   C36       1.0  0.36153  0.45250  0.80480  1.0000
  C   C37       1.0  0.13847  0.95250  0.80480  1.0000
  C   C38       1.0  0.36153  0.54750  0.30480  1.0000
  C   C39       1.0  0.86153  0.95250  0.69520  1.0000
  C   C40       1.0  0.63847  0.54750  0.19520  1.0000
  C   C41       1.0  0.87839  0.86200  0.14320  1.0000
  C   C42       1.0  0.62161  0.63800  0.64320  1.0000
  C   C43       1.0  0.12161  0.86200  0.35680  1.0000
  C   C44       1.0  0.37839  0.63800  0.85680  1.0000
  C   C45       1.0  0.12161  0.13800  0.85680  1.0000
  C   C46       1.0  0.37839  0.36200  0.35680  1.0000
  C   C47       1.0  0.87839  0.13800  0.64320  1.0000
  C   C48       1.0  0.62161  0.36200  0.14320  1.0000
  H   H9        1.0  0.80390  0.80460  0.07790  1.0000
  H   H10       1.0  0.69610  0.69540  0.57790  1.0000
  H   H11       1.0  0.19610  0.80460  0.42210  1.0000
  H   H12       1.0  0.30390  0.69540  0.92210  1.0000
  H   H13       1.0  0.19610  0.19540  0.92210  1.0000
  H   H14       1.0  0.30390  0.30460  0.42210  1.0000
  H   H15       1.0  0.80390  0.19540  0.57790  1.0000
  H   H16       1.0  0.69610  0.30460  0.07790  1.0000
  C   C49       1.0  0.88536  0.14560  0.23960  1.0000
  C   C50       1.0  0.61464  0.35440  0.73960  1.0000
  C   C51       1.0  0.11464  0.14560  0.26040  1.0000
  C   C52       1.0  0.38536  0.35440  0.76040  1.0000
  C   C53       1.0  0.11464  0.85440  0.76040  1.0000
  C   C54       1.0  0.38536  0.64560  0.26040  1.0000
  C   C55       1.0  0.88536  0.85440  0.73960  1.0000
  C   C56       1.0  0.61464  0.64560  0.23960  1.0000
  C   C57       1.0  0.89978  0.95260  0.18720  1.0000
  C   C58       1.0  0.60022  0.54740  0.68720  1.0000
  C   C59       1.0  0.10022  0.95260  0.31280  1.0000
  C   C60       1.0  0.39978  0.54740  0.81280  1.0000
  C   C61       1.0  0.10022  0.04740  0.81280  1.0000
  C   C62       1.0  0.39978  0.45260  0.31280  1.0000
  C   C63       1.0  0.89978  0.04740  0.68720  1.0000
  C   C64       1.0  0.60022  0.45260  0.18720  1.0000
  C   C65       1.0  0.91800  0.75730  0.14040  1.0000
  C   C66       1.0  0.58200  0.74270  0.64040  1.0000
  C   C67       1.0  0.08200  0.75730  0.35960  1.0000
  C   C68       1.0  0.41800  0.74270  0.85960  1.0000
  C   C69       1.0  0.08200  0.24270  0.85960  1.0000
  C   C70       1.0  0.41800  0.25730  0.35960  1.0000
  C   C71       1.0  0.91800  0.24270  0.64040  1.0000
  C   C72       1.0  0.58200  0.25730  0.14040  1.0000
  C   C73       1.0  0.87090  0.25270  0.21460  1.0000
  C   C74       1.0  0.62910  0.24730  0.71460  1.0000
  C   C75       1.0  0.12910  0.25270  0.28540  1.0000
  C   C76       1.0  0.37090  0.24730  0.78540  1.0000
  C   C77       1.0  0.12910  0.74730  0.78540  1.0000
  C   C78       1.0  0.37090  0.75270  0.28540  1.0000
  C   C79       1.0  0.87090  0.74730  0.71460  1.0000
  C   C80       1.0  0.62910  0.75270  0.21460  1.0000
  C   C81       1.0  0.92290  0.13510  0.30700  1.0000
  C   C82       1.0  0.57710  0.36490  0.80700  1.0000
  C   C83       1.0  0.07710  0.13510  0.19300  1.0000
  C   C84       1.0  0.42290  0.36490  0.69300  1.0000
  C   C85       1.0  0.07710  0.86490  0.69300  1.0000
  C   C86       1.0  0.42290  0.63510  0.19300  1.0000
  C   C87       1.0  0.92290  0.86490  0.80700  1.0000
  C   C88       1.0  0.57710  0.63510  0.30700  1.0000
  H   H17       1.0  0.94020  0.94960  0.21160  1.0000
  H   H18       1.0  0.55980  0.55040  0.71160  1.0000
  H   H19       1.0  0.05980  0.94960  0.28840  1.0000
  H   H20       1.0  0.44020  0.55040  0.78840  1.0000
  H   H21       1.0  0.05980  0.05040  0.78840  1.0000
  H   H22       1.0  0.44020  0.44960  0.28840  1.0000
  H   H23       1.0  0.94020  0.05040  0.71160  1.0000
  H   H24       1.0  0.55980  0.44960  0.21160  1.0000
  O   O17       1.0  0.92069  0.70320  0.07830  1.0000
  O   O18       1.0  0.57931  0.79680  0.57830  1.0000
  O   O19       1.0  0.07931  0.70320  0.42170  1.0000
  O   O20       1.0  0.42069  0.79680  0.92170  1.0000
  O   O21       1.0  0.07931  0.29680  0.92170  1.0000
  O   O22       1.0  0.42069  0.20320  0.42170  1.0000
  O   O23       1.0  0.92069  0.29680  0.57830  1.0000
  O   O24       1.0  0.57931  0.20320  0.07830  1.0000
  O   O25       1.0  0.94560  0.73470  0.20200  1.0000
  O   O26       1.0  0.55440  0.76530  0.70200  1.0000
  O   O27       1.0  0.05440  0.73470  0.29800  1.0000
  O   O28       1.0  0.44560  0.76530  0.79800  1.0000
  O   O29       1.0  0.05440  0.26530  0.79800  1.0000
  O   O30       1.0  0.44560  0.23470  0.29800  1.0000
  O   O31       1.0  0.94560  0.26530  0.70200  1.0000
  O   O32       1.0  0.55440  0.23470  0.20200  1.0000
  H   H25       1.0  0.84630  0.26280  0.16940  1.0000
  H   H26       1.0  0.65370  0.23720  0.66940  1.0000
  H   H27       1.0  0.15370  0.26280  0.33060  1.0000
  H   H28       1.0  0.34630  0.23720  0.83060  1.0000
  H   H29       1.0  0.15370  0.73720  0.83060  1.0000
  H   H30       1.0  0.34630  0.76280  0.33060  1.0000
  H   H31       1.0  0.84630  0.73720  0.66940  1.0000
  H   H32       1.0  0.65370  0.76280  0.16940  1.0000
  C   C89       1.0  0.89240  0.34410  0.25550  1.0000
  C   C90       1.0  0.60760  0.15590  0.75550  1.0000
  C   C91       1.0  0.10760  0.34410  0.24450  1.0000
  C   C92       1.0  0.39240  0.15590  0.74450  1.0000
  C   C93       1.0  0.10760  0.65590  0.74450  1.0000
  C   C94       1.0  0.39240  0.84410  0.24450  1.0000
  C   C95       1.0  0.89240  0.65590  0.75550  1.0000
  C   C96       1.0  0.60760  0.84410  0.25550  1.0000
  H   H33       1.0  0.93370  0.06430  0.32480  1.0000
  H   H34       1.0  0.56630  0.43570  0.82480  1.0000
  H   H35       1.0  0.06630  0.06430  0.17520  1.0000
  H   H36       1.0  0.43370  0.43570  0.67520  1.0000
  H   H37       1.0  0.06630  0.93570  0.67520  1.0000
  H   H38       1.0  0.43370  0.56430  0.17520  1.0000
  H   H39       1.0  0.93370  0.93570  0.82480  1.0000
  H   H40       1.0  0.56630  0.56430  0.32480  1.0000
  C   C97       1.0  0.94440  0.22680  0.34780  1.0000
  C   C98       1.0  0.55560  0.27320  0.84780  1.0000
  C   C99       1.0  0.05560  0.22680  0.15220  1.0000
  C   C100      1.0  0.44440  0.27320  0.65220  1.0000
  C   C101      1.0  0.05560  0.77320  0.65220  1.0000
  C   C102      1.0  0.44440  0.72680  0.15220  1.0000
  C   C103      1.0  0.94440  0.77320  0.84780  1.0000
  C   C104      1.0  0.55560  0.72680  0.34780  1.0000
  Zn  Zn9       1.0  0.00000  0.62251  0.25000  1.0000
  Zn  Zn10      1.0  0.50000  0.87749  0.75000  1.0000
  Zn  Zn11      1.0  0.00000  0.37749  0.75000  1.0000
  Zn  Zn12      1.0  0.50000  0.12251  0.25000  1.0000
  H   H41       1.0  0.88200  0.41480  0.23740  1.0000
  H   H42       1.0  0.61800  0.08520  0.73740  1.0000
  H   H43       1.0  0.11800  0.41480  0.26260  1.0000
  H   H44       1.0  0.38200  0.08520  0.76260  1.0000
  H   H45       1.0  0.11800  0.58520  0.76260  1.0000
  H   H46       1.0  0.38200  0.91480  0.26260  1.0000
  H   H47       1.0  0.88200  0.58520  0.73740  1.0000
  H   H48       1.0  0.61800  0.91480  0.23740  1.0000
  C   C105      1.0  0.92922  0.33380  0.32310  1.0000
  C   C106      1.0  0.57078  0.16620  0.82310  1.0000
  C   C107      1.0  0.07078  0.33380  0.17690  1.0000
  C   C108      1.0  0.42922  0.16620  0.67690  1.0000
  C   C109      1.0  0.07078  0.66620  0.67690  1.0000
  C   C110      1.0  0.42922  0.83380  0.17690  1.0000
  C   C111      1.0  0.92922  0.66620  0.82310  1.0000
  C   C112      1.0  0.57078  0.83380  0.32310  1.0000
  H   H49       1.0  0.96940  0.21690  0.39260  1.0000
  H   H50       1.0  0.53060  0.28310  0.89260  1.0000
  H   H51       1.0  0.03060  0.21690  0.10740  1.0000
  H   H52       1.0  0.46940  0.28310  0.60740  1.0000
  H   H53       1.0  0.03060  0.78310  0.60740  1.0000
  H   H54       1.0  0.46940  0.71690  0.10740  1.0000
  H   H55       1.0  0.96940  0.78310  0.89260  1.0000
  H   H56       1.0  0.53060  0.71690  0.39260  1.0000
  O   O33       1.0  0.97659  0.44090  0.09735  1.0000
  O   O34       1.0  0.52341  0.05910  0.59735  1.0000
  O   O35       1.0  0.02341  0.44090  0.40265  1.0000
  O   O36       1.0  0.47659  0.05910  0.90265  1.0000
  O   O37       1.0  0.02341  0.55910  0.90265  1.0000
  O   O38       1.0  0.47659  0.94090  0.40265  1.0000
  O   O39       1.0  0.97659  0.55910  0.59735  1.0000
  O   O40       1.0  0.52341  0.94090  0.09735  1.0000
  O   O41       1.0  0.90648  0.53250  0.94483  1.0000
  O   O42       1.0  0.59352  0.96750  0.44483  1.0000
  O   O43       1.0  0.09352  0.53250  0.55517  1.0000
  O   O44       1.0  0.40648  0.96750  0.05517  1.0000
  O   O45       1.0  0.09352  0.46750  0.05517  1.0000
  O   O46       1.0  0.40648  0.03250  0.55517  1.0000
  O   O47       1.0  0.90648  0.46750  0.44483  1.0000
  O   O48       1.0  0.59352  0.03250  0.94483  1.0000
  P   P1        1.0  0.95344  0.45530  0.37745  1.0000
  P   P2        1.0  0.54656  0.04470  0.87745  1.0000
  P   P3        1.0  0.04656  0.45530  0.12255  1.0000
  P   P4        1.0  0.45344  0.04470  0.62255  1.0000
  P   P5        1.0  0.04656  0.54470  0.62255  1.0000
  P   P6        1.0  0.45344  0.95530  0.12255  1.0000
  P   P7        1.0  0.95344  0.54470  0.87745  1.0000
  P   P8        1.0  0.54656  0.95530  0.37745  1.0000
  O   O49       1.0  0.94395  0.55360  0.32230  1.0000
  O   O50       1.0  0.55605  0.94640  0.82230  1.0000
  O   O51       1.0  0.05605  0.55360  0.17770  1.0000
  O   O52       1.0  0.44395  0.94640  0.67770  1.0000
  O   O53       1.0  0.05605  0.44640  0.67770  1.0000
  O   O54       1.0  0.44395  0.05360  0.17770  1.0000
  O   O55       1.0  0.94395  0.44640  0.82230  1.0000
  O   O56       1.0  0.55605  0.05360  0.32230  1.0000
