data_image0
_chemical_formula_structural       Zn12P8O56C16H8C8H8C24H8C16H8C16H8C8H8C8H8C16
_chemical_formula_sum              "Zn12 P8 O56 C112 H56"
_cell_length_a       20.4782
_cell_length_b       12.0724
_cell_length_c       16.9099
_cell_angle_alpha    90
_cell_angle_beta     90
_cell_angle_gamma    90

_space_group_name_H-M_alt    "P 1"
_space_group_IT_number       1

loop_
  _space_group_symop_operation_xyz
  'x, y, z'

loop_
  _atom_site_type_symbol
  _atom_site_label
  _atom_site_symmetry_multiplicity
  _atom_site_fract_x
  _atom_site_fract_y
  _atom_site_fract_z
  _atom_site_occupancy
  Zn  Zn1       1.0  0.58747  0.04387  0.05703  1.0000
  Zn  Zn2       1.0  0.91253  0.45613  0.55703  1.0000
  Zn  Zn3       1.0  0.41253  0.04387  0.44297  1.0000
  Zn  Zn4       1.0  0.08747  0.45613  0.94297  1.0000
  Zn  Zn5       1.0  0.41253  0.95613  0.94297  1.0000
  Zn  Zn6       1.0  0.08747  0.54387  0.44297  1.0000
  Zn  Zn7       1.0  0.58747  0.95613  0.55703  1.0000
  Zn  Zn8       1.0  0.91253  0.54387  0.05703  1.0000
  Zn  Zn9       1.0  1.00000  0.62287  0.25000  1.0000
  Zn  Zn10      1.0  0.50000  0.87713  0.75000  1.0000
  Zn  Zn11      1.0  0.00000  0.37713  0.75000  1.0000
  Zn  Zn12      1.0  0.50000  0.12287  0.25000  1.0000
  P   P1        1.0  0.95311  0.45499  0.37653  1.0000
  P   P2        1.0  0.54689  0.04501  0.87653  1.0000
  P   P3        1.0  0.04689  0.45499  0.12347  1.0000
  P   P4        1.0  0.45311  0.04501  0.62347  1.0000
  P   P5        1.0  0.04689  0.54501  0.62347  1.0000
  P   P6        1.0  0.45311  0.95499  0.12347  1.0000
  P   P7        1.0  0.95311  0.54501  0.87653  1.0000
  P   P8        1.0  0.54689  0.95499  0.37653  1.0000
  O   O1        1.0  0.94214  0.73270  0.20604  1.0000
  O   O2        1.0  0.55786  0.76730  0.70604  1.0000
  O   O3        1.0  0.05786  0.73270  0.29396  1.0000
  O   O4        1.0  0.44214  0.76730  0.79396  1.0000
  O   O5        1.0  0.05786  0.26730  0.79396  1.0000
  O   O6        1.0  0.44214  0.23270  0.29396  1.0000
  O   O7        1.0  0.94214  0.26730  0.70604  1.0000
  O   O8        1.0  0.55786  0.23270  0.20604  1.0000
  O   O9        1.0  0.92257  0.70538  0.07919  1.0000
  O   O10       1.0  0.57743  0.79462  0.57919  1.0000
  O   O11       1.0  0.07743  0.70538  0.42081  1.0000
  O   O12       1.0  0.42257  0.79462  0.92081  1.0000
  O   O13       1.0  0.07743  0.29462  0.92081  1.0000
  O   O14       1.0  0.42257  0.20538  0.42081  1.0000
  O   O15       1.0  0.92257  0.29462  0.57919  1.0000
  O   O16       1.0  0.57743  0.20538  0.07919  1.0000
  O   O17       1.0  0.69408  0.87982  0.03987  1.0000
  O   O18       1.0  0.80592  0.62018  0.53987  1.0000
  O   O19       1.0  0.30592  0.87982  0.46013  1.0000
  O   O20       1.0  0.19408  0.62018  0.96013  1.0000
  O   O21       1.0  0.30592  0.12018  0.96013  1.0000
  O   O22       1.0  0.19408  0.37982  0.46013  1.0000
  O   O23       1.0  0.69408  0.12018  0.53987  1.0000
  O   O24       1.0  0.80592  0.37982  0.03987  1.0000
  O   O25       1.0  0.67372  0.03509  0.10453  1.0000
  O   O26       1.0  0.82628  0.46491  0.60453  1.0000
  O   O27       1.0  0.32628  0.03509  0.39547  1.0000
  O   O28       1.0  0.17372  0.46491  0.89547  1.0000
  O   O29       1.0  0.32628  0.96491  0.89547  1.0000
  O   O30       1.0  0.17372  0.53509  0.39547  1.0000
  O   O31       1.0  0.67372  0.96491  0.60453  1.0000
  O   O32       1.0  0.82628  0.53509  0.10453  1.0000
  O   O33       1.0  0.94183  0.55392  0.32150  1.0000
  O   O34       1.0  0.55817  0.94608  0.82150  1.0000
  O   O35       1.0  0.05817  0.55392  0.17850  1.0000
  O   O36       1.0  0.44183  0.94608  0.67850  1.0000
  O   O37       1.0  0.05817  0.44608  0.67850  1.0000
  O   O38       1.0  0.44183  0.05392  0.17850  1.0000
  O   O39       1.0  0.94183  0.44608  0.82150  1.0000
  O   O40       1.0  0.55817  0.05392  0.32150  1.0000
  O   O41       1.0  0.90631  0.46580  0.44522  1.0000
  O   O42       1.0  0.59369  0.03420  0.94522  1.0000
  O   O43       1.0  0.09369  0.46580  0.05478  1.0000
  O   O44       1.0  0.40631  0.03420  0.55478  1.0000
  O   O45       1.0  0.09369  0.53420  0.55478  1.0000
  O   O46       1.0  0.40631  0.96580  0.05478  1.0000
  O   O47       1.0  0.90631  0.53420  0.94522  1.0000
  O   O48       1.0  0.59369  0.96580  0.44522  1.0000
  O   O49       1.0  0.02391  0.44426  0.40037  1.0000
  O   O50       1.0  0.47609  0.05574  0.90037  1.0000
  O   O51       1.0  0.97609  0.44426  0.09963  1.0000
  O   O52       1.0  0.52391  0.05574  0.59963  1.0000
  O   O53       1.0  0.97609  0.55574  0.59963  1.0000
  O   O54       1.0  0.52391  0.94426  0.09963  1.0000
  O   O55       1.0  0.02391  0.55574  0.90037  1.0000
  O   O56       1.0  0.47609  0.94426  0.40037  1.0000
  C   C1        1.0  0.92970  0.33340  0.32214  1.0000
  C   C2        1.0  0.57030  0.16660  0.82214  1.0000
  C   C3        1.0  0.07030  0.33340  0.17786  1.0000
  C   C4        1.0  0.42970  0.16660  0.67786  1.0000
  C   C5        1.0  0.07030  0.66660  0.67786  1.0000
  C   C6        1.0  0.42970  0.83340  0.17786  1.0000
  C   C7        1.0  0.92970  0.66660  0.82214  1.0000
  C   C8        1.0  0.57030  0.83340  0.32214  1.0000
  C   C9        1.0  0.94435  0.22840  0.34849  1.0000
  C   C10       1.0  0.55565  0.27160  0.84849  1.0000
  C   C11       1.0  0.05565  0.22840  0.15151  1.0000
  C   C12       1.0  0.44435  0.27160  0.65151  1.0000
  C   C13       1.0  0.05565  0.77160  0.65151  1.0000
  C   C14       1.0  0.44435  0.72840  0.15151  1.0000
  C   C15       1.0  0.94435  0.77160  0.84849  1.0000
  C   C16       1.0  0.55565  0.72840  0.34849  1.0000
  H   H1        1.0  0.96910  0.21960  0.39420  1.0000
  H   H2        1.0  0.53090  0.28040  0.89420  1.0000
  H   H3        1.0  0.03090  0.21960  0.10580  1.0000
  H   H4        1.0  0.46910  0.28040  0.60580  1.0000
  H   H5        1.0  0.03090  0.78040  0.60580  1.0000
  H   H6        1.0  0.46910  0.71960  0.10580  1.0000
  H   H7        1.0  0.96910  0.78040  0.89420  1.0000
  H   H8        1.0  0.53090  0.71960  0.39420  1.0000
  C   C17       1.0  0.92289  0.13600  0.30821  1.0000
  C   C18       1.0  0.57711  0.36400  0.80821  1.0000
  C   C19       1.0  0.07711  0.13600  0.19179  1.0000
  C   C20       1.0  0.42289  0.36400  0.69179  1.0000
  C   C21       1.0  0.07711  0.86400  0.69179  1.0000
  C   C22       1.0  0.42289  0.63600  0.19179  1.0000
  C   C23       1.0  0.92289  0.86400  0.80821  1.0000
  C   C24       1.0  0.57711  0.63600  0.30821  1.0000
  H   H9        1.0  0.93350  0.06590  0.32710  1.0000
  H   H10       1.0  0.56650  0.43410  0.82710  1.0000
  H   H11       1.0  0.06650  0.06590  0.17290  1.0000
  H   H12       1.0  0.43350  0.43410  0.67290  1.0000
  H   H13       1.0  0.06650  0.93410  0.67290  1.0000
  H   H14       1.0  0.43350  0.56590  0.17290  1.0000
  H   H15       1.0  0.93350  0.93410  0.82710  1.0000
  H   H16       1.0  0.56650  0.56590  0.32710  1.0000
  C   C25       1.0  0.88563  0.14590  0.23980  1.0000
  C   C26       1.0  0.61437  0.35410  0.73980  1.0000
  C   C27       1.0  0.11437  0.14590  0.26020  1.0000
  C   C28       1.0  0.38563  0.35410  0.76020  1.0000
  C   C29       1.0  0.11437  0.85410  0.76020  1.0000
  C   C30       1.0  0.38563  0.64590  0.26020  1.0000
  C   C31       1.0  0.88563  0.85410  0.73980  1.0000
  C   C32       1.0  0.61437  0.64590  0.23980  1.0000
  C   C33       1.0  0.86189  0.04730  0.19573  1.0000
  C   C34       1.0  0.63811  0.45270  0.69573  1.0000
  C   C35       1.0  0.13811  0.04730  0.30427  1.0000
  C   C36       1.0  0.36189  0.45270  0.80427  1.0000
  C   C37       1.0  0.13811  0.95270  0.80427  1.0000
  C   C38       1.0  0.36189  0.54730  0.30427  1.0000
  C   C39       1.0  0.86189  0.95270  0.69573  1.0000
  C   C40       1.0  0.63811  0.54730  0.19573  1.0000
  C   C41       1.0  0.89982  0.95220  0.18860  1.0000
  C   C42       1.0  0.60018  0.54780  0.68860  1.0000
  C   C43       1.0  0.10018  0.95220  0.31140  1.0000
  C   C44       1.0  0.39982  0.54780  0.81140  1.0000
  C   C45       1.0  0.10018  0.04780  0.81140  1.0000
  C   C46       1.0  0.39982  0.45220  0.31140  1.0000
  C   C47       1.0  0.89982  0.04780  0.68860  1.0000
  C   C48       1.0  0.60018  0.45220  0.18860  1.0000
  H   H17       1.0  0.94000  0.94860  0.21410  1.0000
  H   H18       1.0  0.56000  0.55140  0.71410  1.0000
  H   H19       1.0  0.06000  0.94860  0.28590  1.0000
  H   H20       1.0  0.44000  0.55140  0.78590  1.0000
  H   H21       1.0  0.06000  0.05140  0.78590  1.0000
  H   H22       1.0  0.44000  0.44860  0.28590  1.0000
  H   H23       1.0  0.94000  0.05140  0.71410  1.0000
  H   H24       1.0  0.56000  0.44860  0.21410  1.0000
  C   C49       1.0  0.87855  0.86270  0.14384  1.0000
  C   C50       1.0  0.62145  0.63730  0.64384  1.0000
  C   C51       1.0  0.12145  0.86270  0.35616  1.0000
  C   C52       1.0  0.37855  0.63730  0.85616  1.0000
  C   C53       1.0  0.12145  0.13730  0.85616  1.0000
  C   C54       1.0  0.37855  0.36270  0.35616  1.0000
  C   C55       1.0  0.87855  0.13730  0.64384  1.0000
  C   C56       1.0  0.62145  0.36270  0.14384  1.0000
  C   C57       1.0  0.81803  0.86550  0.10718  1.0000
  C   C58       1.0  0.68197  0.63450  0.60718  1.0000
  C   C59       1.0  0.18197  0.86550  0.39282  1.0000
  C   C60       1.0  0.31803  0.63450  0.89282  1.0000
  C   C61       1.0  0.18197  0.13450  0.89282  1.0000
  C   C62       1.0  0.31803  0.36550  0.39282  1.0000
  C   C63       1.0  0.81803  0.13450  0.60718  1.0000
  C   C64       1.0  0.68197  0.36550  0.10718  1.0000
  H   H25       1.0  0.80420  0.80660  0.07590  1.0000
  H   H26       1.0  0.69580  0.69340  0.57590  1.0000
  H   H27       1.0  0.19580  0.80660  0.42410  1.0000
  H   H28       1.0  0.30420  0.69340  0.92410  1.0000
  H   H29       1.0  0.19580  0.19340  0.92410  1.0000
  H   H30       1.0  0.30420  0.30660  0.42410  1.0000
  H   H31       1.0  0.80420  0.19340  0.57590  1.0000
  H   H32       1.0  0.69580  0.30660  0.07590  1.0000
  C   C65       1.0  0.77832  0.95740  0.11775  1.0000
  C   C66       1.0  0.72168  0.54260  0.61775  1.0000
  C   C67       1.0  0.22168  0.95740  0.38225  1.0000
  C   C68       1.0  0.27832  0.54260  0.88225  1.0000
  C   C69       1.0  0.22168  0.04260  0.88225  1.0000
  C   C70       1.0  0.27832  0.45740  0.38225  1.0000
  C   C71       1.0  0.77832  0.04260  0.61775  1.0000
  C   C72       1.0  0.72168  0.45740  0.11775  1.0000
  C   C73       1.0  0.80045  0.04760  0.16035  1.0000
  C   C74       1.0  0.69955  0.45240  0.66035  1.0000
  C   C75       1.0  0.19955  0.04760  0.33965  1.0000
  C   C76       1.0  0.30045  0.45240  0.83965  1.0000
  C   C77       1.0  0.19955  0.95240  0.83965  1.0000
  C   C78       1.0  0.30045  0.54760  0.33965  1.0000
  C   C79       1.0  0.80045  0.95240  0.66035  1.0000
  C   C80       1.0  0.69955  0.54760  0.16035  1.0000
  H   H33       1.0  0.77380  0.10960  0.16550  1.0000
  H   H34       1.0  0.72620  0.39040  0.66550  1.0000
  H   H35       1.0  0.22620  0.10960  0.33450  1.0000
  H   H36       1.0  0.27380  0.39040  0.83450  1.0000
  H   H37       1.0  0.22620  0.89040  0.83450  1.0000
  H   H38       1.0  0.27380  0.60960  0.33450  1.0000
  H   H39       1.0  0.77380  0.89040  0.66550  1.0000
  H   H40       1.0  0.72620  0.60960  0.16550  1.0000
  C   C81       1.0  0.87154  0.25140  0.21325  1.0000
  C   C82       1.0  0.62846  0.24860  0.71325  1.0000
  C   C83       1.0  0.12846  0.25140  0.28675  1.0000
  C   C84       1.0  0.37154  0.24860  0.78675  1.0000
  C   C85       1.0  0.12846  0.74860  0.78675  1.0000
  C   C86       1.0  0.37154  0.75140  0.28675  1.0000
  C   C87       1.0  0.87154  0.74860  0.71325  1.0000
  C   C88       1.0  0.62846  0.75140  0.21325  1.0000
  H   H41       1.0  0.84710  0.26020  0.16730  1.0000
  H   H42       1.0  0.65290  0.23980  0.66730  1.0000
  H   H43       1.0  0.15290  0.26020  0.33270  1.0000
  H   H44       1.0  0.34710  0.23980  0.83270  1.0000
  H   H45       1.0  0.15290  0.73980  0.83270  1.0000
  H   H46       1.0  0.34710  0.76020  0.33270  1.0000
  H   H47       1.0  0.84710  0.73980  0.66730  1.0000
  H   H48       1.0  0.65290  0.76020  0.16730  1.0000
  C   C89       1.0  0.89294  0.34400  0.25333  1.0000
  C   C90       1.0  0.60706  0.15600  0.75333  1.0000
  C   C91       1.0  0.10706  0.34400  0.24667  1.0000
  C   C92       1.0  0.39294  0.15600  0.74667  1.0000
  C   C93       1.0  0.10706  0.65600  0.74667  1.0000
  C   C94       1.0  0.39294  0.84400  0.24667  1.0000
  C   C95       1.0  0.89294  0.65600  0.75333  1.0000
  C   C96       1.0  0.60706  0.84400  0.25333  1.0000
  H   H49       1.0  0.88270  0.41420  0.23420  1.0000
  H   H50       1.0  0.61730  0.08580  0.73420  1.0000
  H   H51       1.0  0.11730  0.41420  0.26580  1.0000
  H   H52       1.0  0.38270  0.08580  0.76580  1.0000
  H   H53       1.0  0.11730  0.58580  0.76580  1.0000
  H   H54       1.0  0.38270  0.91420  0.26580  1.0000
  H   H55       1.0  0.88270  0.58580  0.73420  1.0000
  H   H56       1.0  0.61730  0.91420  0.23420  1.0000
  C   C97       1.0  0.91761  0.75810  0.14173  1.0000
  C   C98       1.0  0.58239  0.74190  0.64173  1.0000
  C   C99       1.0  0.08239  0.75810  0.35827  1.0000
  C   C100      1.0  0.41761  0.74190  0.85827  1.0000
  C   C101      1.0  0.08239  0.24190  0.85827  1.0000
  C   C102      1.0  0.41761  0.25810  0.35827  1.0000
  C   C103      1.0  0.91761  0.24190  0.64173  1.0000
  C   C104      1.0  0.58239  0.25810  0.14173  1.0000
  C   C105      1.0  0.71018  0.95640  0.08365  1.0000
  C   C106      1.0  0.78982  0.54360  0.58365  1.0000
  C   C107      1.0  0.28982  0.95640  0.41635  1.0000
  C   C108      1.0  0.21018  0.54360  0.91635  1.0000
  C   C109      1.0  0.28982  0.04360  0.91635  1.0000
  C   C110      1.0  0.21018  0.45640  0.41635  1.0000
  C   C111      1.0  0.71018  0.04360  0.58365  1.0000
  C   C112      1.0  0.78982  0.45640  0.08365  1.0000
