data_image0
_chemical_formula_structural       Cd6O4C8O8C4O8C8O4C12O4C4H12C16O4C4H4N4C4O4H4O4H4O8H4O4H4O4H4C4H12C4H12O4
_chemical_formula_sum              "Cd6 O60 C68 H60 N4"
_cell_length_a       18.1128
_cell_length_b       8.7931
_cell_length_c       19.2053
_cell_angle_alpha    90
_cell_angle_beta     102.909
_cell_angle_gamma    90

_space_group_name_H-M_alt    "P 1"
_space_group_IT_number       1

loop_
  _space_group_symop_operation_xyz
  'x, y, z'

loop_
  _atom_site_type_symbol
  _atom_site_label
  _atom_site_symmetry_multiplicity
  _atom_site_fract_x
  _atom_site_fract_y
  _atom_site_fract_z
  _atom_site_occupancy
  Cd  Cd1       1.0  0.20866  0.90703  0.04758  1.0000
  Cd  Cd2       1.0  0.79134  0.40703  0.45242  1.0000
  Cd  Cd3       1.0  0.79134  0.09297  0.95242  1.0000
  Cd  Cd4       1.0  0.20866  0.59297  0.54758  1.0000
  Cd  Cd5       1.0  0.00000  0.00000  0.00000  1.0000
  Cd  Cd6       1.0  0.00000  0.50000  0.50000  1.0000
  O   O1        1.0  0.07630  0.15980  0.95520  1.0000
  O   O2        1.0  0.92370  0.65980  0.54480  1.0000
  O   O3        1.0  0.92370  0.84020  0.04480  1.0000
  O   O4        1.0  0.07630  0.34020  0.45520  1.0000
  C   C1        1.0  0.11710  0.41960  0.65060  1.0000
  C   C2        1.0  0.88290  0.91960  0.84940  1.0000
  C   C3        1.0  0.88290  0.58040  0.34940  1.0000
  C   C4        1.0  0.11710  0.08040  0.15060  1.0000
  C   C5        1.0  0.12930  0.21730  0.85600  1.0000
  C   C6        1.0  0.87070  0.71730  0.64400  1.0000
  C   C7        1.0  0.87070  0.78270  0.14400  1.0000
  C   C8        1.0  0.12930  0.28270  0.35600  1.0000
  O   O5        1.0  0.17830  0.43420  0.62970  1.0000
  O   O6        1.0  0.82170  0.93420  0.87030  1.0000
  O   O7        1.0  0.82170  0.56580  0.37030  1.0000
  O   O8        1.0  0.17830  0.06580  0.12970  1.0000
  O   O9        1.0  0.19080  0.06650  0.95280  1.0000
  O   O10       1.0  0.80920  0.56650  0.54720  1.0000
  O   O11       1.0  0.80920  0.93350  0.04720  1.0000
  O   O12       1.0  0.19080  0.43350  0.45280  1.0000
  C   C9        1.0  0.05860  0.34920  0.75250  1.0000
  C   C10       1.0  0.94140  0.84920  0.74750  1.0000
  C   C11       1.0  0.94140  0.65080  0.24750  1.0000
  C   C12       1.0  0.05860  0.15080  0.25250  1.0000
  O   O13       1.0  0.05360  0.46130  0.61630  1.0000
  O   O14       1.0  0.94640  0.96130  0.88370  1.0000
  O   O15       1.0  0.94640  0.53870  0.38370  1.0000
  O   O16       1.0  0.05360  0.03870  0.11630  1.0000
  O   O17       1.0  0.08740  0.81500  0.00540  1.0000
  O   O18       1.0  0.91260  0.31500  0.49460  1.0000
  O   O19       1.0  0.91260  0.18500  0.99460  1.0000
  O   O20       1.0  0.08740  0.68500  0.50540  1.0000
  C   C13       1.0  0.06200  0.28260  0.81840  1.0000
  C   C14       1.0  0.93800  0.78260  0.68160  1.0000
  C   C15       1.0  0.93800  0.71740  0.18160  1.0000
  C   C16       1.0  0.06200  0.21740  0.31840  1.0000
  C   C17       1.0  0.09790  0.69630  0.97140  1.0000
  C   C18       1.0  0.90210  0.19630  0.52860  1.0000
  C   C19       1.0  0.90210  0.30370  0.02860  1.0000
  C   C20       1.0  0.09790  0.80370  0.47140  1.0000
  O   O21       1.0  0.31690  0.82640  0.00870  1.0000
  O   O22       1.0  0.68310  0.32640  0.49130  1.0000
  O   O23       1.0  0.68310  0.17360  0.99130  1.0000
  O   O24       1.0  0.31690  0.67360  0.50870  1.0000
  C   C21       1.0  0.18860  0.28690  0.76060  1.0000
  C   C22       1.0  0.81140  0.78690  0.73940  1.0000
  C   C23       1.0  0.81140  0.71310  0.23940  1.0000
  C   C24       1.0  0.18860  0.21310  0.26060  1.0000
  C   C25       1.0  0.13270  0.14250  0.92670  1.0000
  C   C26       1.0  0.86730  0.64250  0.57330  1.0000
  C   C27       1.0  0.86730  0.85750  0.07330  1.0000
  C   C28       1.0  0.13270  0.35750  0.42670  1.0000
  C   C29       1.0  0.47650  0.09000  0.04820  1.0000
  C   C30       1.0  0.52350  0.59000  0.45180  1.0000
  C   C31       1.0  0.52350  0.91000  0.95180  1.0000
  C   C32       1.0  0.47650  0.41000  0.54820  1.0000
  O   O25       1.0  0.33420  0.02390  0.08010  1.0000
  O   O26       1.0  0.66580  0.52390  0.41990  1.0000
  O   O27       1.0  0.66580  0.97610  0.91990  1.0000
  O   O28       1.0  0.33420  0.47610  0.58010  1.0000
  C   C33       1.0  0.03100  0.61670  0.92910  1.0000
  C   C34       1.0  0.96900  0.11670  0.57090  1.0000
  C   C35       1.0  0.96900  0.38330  0.07090  1.0000
  C   C36       1.0  0.03100  0.88330  0.42910  1.0000
  H   H1        1.0  0.98790  0.63650  0.94920  1.0000
  H   H2        1.0  0.01210  0.13650  0.55080  1.0000
  H   H3        1.0  0.01210  0.36350  0.05080  1.0000
  H   H4        1.0  0.98790  0.86350  0.44920  1.0000
  H   H5        1.0  0.04060  0.50930  0.92990  1.0000
  H   H6        1.0  0.95940  0.00930  0.57010  1.0000
  H   H7        1.0  0.95940  0.49070  0.07010  1.0000
  H   H8        1.0  0.04060  0.99070  0.42990  1.0000
  H   H9        1.0  0.02080  0.65240  0.88070  1.0000
  H   H10       1.0  0.97920  0.15240  0.61930  1.0000
  H   H11       1.0  0.97920  0.34760  0.11930  1.0000
  H   H12       1.0  0.02080  0.84760  0.38070  1.0000
  C   C37       1.0  0.19200  0.21810  0.82620  1.0000
  C   C38       1.0  0.80800  0.71810  0.67380  1.0000
  C   C39       1.0  0.80800  0.78190  0.17380  1.0000
  C   C40       1.0  0.19200  0.28190  0.32620  1.0000
  C   C41       1.0  0.12200  0.35080  0.72280  1.0000
  C   C42       1.0  0.87800  0.85080  0.77720  1.0000
  C   C43       1.0  0.87800  0.64920  0.27720  1.0000
  C   C44       1.0  0.12200  0.14920  0.22280  1.0000
  C   C45       1.0  0.35580  0.93710  0.03760  1.0000
  C   C46       1.0  0.64420  0.43710  0.46240  1.0000
  C   C47       1.0  0.64420  0.06290  0.96240  1.0000
  C   C48       1.0  0.35580  0.56290  0.53760  1.0000
  C   C49       1.0  0.43170  0.97000  0.01890  1.0000
  C   C50       1.0  0.56830  0.47000  0.48110  1.0000
  C   C51       1.0  0.56830  0.03000  0.98110  1.0000
  C   C52       1.0  0.43170  0.53000  0.51890  1.0000
  O   O29       1.0  0.23580  0.73370  0.14150  1.0000
  O   O30       1.0  0.76420  0.23370  0.35850  1.0000
  O   O31       1.0  0.76420  0.26630  0.85850  1.0000
  O   O32       1.0  0.23580  0.76630  0.64150  1.0000
  C   C53       1.0  0.20130  0.73860  0.19270  1.0000
  C   C54       1.0  0.79870  0.23860  0.30730  1.0000
  C   C55       1.0  0.79870  0.26140  0.80730  1.0000
  C   C56       1.0  0.20130  0.76140  0.69270  1.0000
  H   H13       1.0  0.14920  0.75170  0.17780  1.0000
  H   H14       1.0  0.85080  0.25170  0.32220  1.0000
  H   H15       1.0  0.85080  0.24830  0.82220  1.0000
  H   H16       1.0  0.14920  0.74830  0.67780  1.0000
  N   N1        1.0  0.22300  0.72960  0.25580  1.0000
  N   N2        1.0  0.77700  0.22960  0.24420  1.0000
  N   N3        1.0  0.77700  0.27040  0.74420  1.0000
  N   N4        1.0  0.22300  0.77040  0.75580  1.0000
  C   C57       1.0  0.54390  0.11920  0.03130  1.0000
  C   C58       1.0  0.45610  0.61920  0.46870  1.0000
  C   C59       1.0  0.45610  0.88080  0.96870  1.0000
  C   C60       1.0  0.54390  0.38080  0.53130  1.0000
  O   O33       1.0  0.25920  0.14060  0.85500  1.0000
  O   O34       1.0  0.74080  0.64060  0.64500  1.0000
  O   O35       1.0  0.74080  0.85940  0.14500  1.0000
  O   O36       1.0  0.25920  0.35940  0.35500  1.0000
  H   H17       1.0  0.25700  0.10490  0.89400  1.0000
  H   H18       1.0  0.74300  0.60490  0.60600  1.0000
  H   H19       1.0  0.74300  0.89510  0.10600  1.0000
  H   H20       1.0  0.25700  0.39510  0.39400  1.0000
  O   O37       1.0  0.99300  0.40870  0.72220  1.0000
  O   O38       1.0  0.00700  0.90870  0.77780  1.0000
  O   O39       1.0  0.00700  0.59130  0.27780  1.0000
  O   O40       1.0  0.99300  0.09130  0.22220  1.0000
  H   H21       1.0  0.99440  0.44000  0.68230  1.0000
  H   H22       1.0  0.00560  0.94000  0.81770  1.0000
  H   H23       1.0  0.00560  0.56000  0.31770  1.0000
  H   H24       1.0  0.99440  0.06000  0.18230  1.0000
  O   O41       1.0  0.46210  0.16610  0.10100  1.0000
  O   O42       1.0  0.53790  0.66610  0.39900  1.0000
  O   O43       1.0  0.53790  0.83390  0.89900  1.0000
  O   O44       1.0  0.46210  0.33390  0.60100  1.0000
  O   O45       1.0  0.99230  0.28280  0.83800  1.0000
  O   O46       1.0  0.00770  0.78280  0.66200  1.0000
  O   O47       1.0  0.00770  0.71720  0.16200  1.0000
  O   O48       1.0  0.99230  0.21720  0.33800  1.0000
  H   H25       1.0  0.99340  0.22140  0.87030  1.0000
  H   H26       1.0  0.00660  0.72140  0.62970  1.0000
  H   H27       1.0  0.00660  0.77860  0.12970  1.0000
  H   H28       1.0  0.99340  0.27860  0.37030  1.0000
  O   O49       1.0  0.25510  0.30500  0.73980  1.0000
  O   O50       1.0  0.74490  0.80500  0.76020  1.0000
  O   O51       1.0  0.74490  0.69500  0.26020  1.0000
  O   O52       1.0  0.25510  0.19500  0.23980  1.0000
  H   H29       1.0  0.24630  0.32320  0.69680  1.0000
  H   H30       1.0  0.75370  0.82320  0.80320  1.0000
  H   H31       1.0  0.75370  0.67680  0.30320  1.0000
  H   H32       1.0  0.24630  0.17680  0.19680  1.0000
  O   O53       1.0  0.58020  0.24930  0.05810  1.0000
  O   O54       1.0  0.41980  0.74930  0.44190  1.0000
  O   O55       1.0  0.41980  0.75070  0.94190  1.0000
  O   O56       1.0  0.58020  0.25070  0.55810  1.0000
  H   H33       1.0  0.61810  0.26060  0.04190  1.0000
  H   H34       1.0  0.38190  0.76060  0.45810  1.0000
  H   H35       1.0  0.38190  0.73940  0.95810  1.0000
  H   H36       1.0  0.61810  0.23940  0.54190  1.0000
  C   C61       1.0  0.18190  0.74200  0.31130  1.0000
  C   C62       1.0  0.81810  0.24200  0.18870  1.0000
  C   C63       1.0  0.81810  0.25800  0.68870  1.0000
  C   C64       1.0  0.18190  0.75800  0.81130  1.0000
  H   H37       1.0  0.20300  0.82280  0.34330  1.0000
  H   H38       1.0  0.79700  0.32280  0.15670  1.0000
  H   H39       1.0  0.79700  0.17720  0.65670  1.0000
  H   H40       1.0  0.20300  0.67720  0.84330  1.0000
  H   H41       1.0  0.18540  0.64810  0.33720  1.0000
  H   H42       1.0  0.81460  0.14810  0.16280  1.0000
  H   H43       1.0  0.81460  0.35190  0.66280  1.0000
  H   H44       1.0  0.18540  0.85190  0.83720  1.0000
  H   H45       1.0  0.12970  0.76410  0.29050  1.0000
  H   H46       1.0  0.87030  0.26410  0.20950  1.0000
  H   H47       1.0  0.87030  0.23590  0.70950  1.0000
  H   H48       1.0  0.12970  0.73590  0.79050  1.0000
  C   C65       1.0  0.30380  0.68800  0.28330  1.0000
  C   C66       1.0  0.69620  0.18800  0.21670  1.0000
  C   C67       1.0  0.69620  0.31200  0.71670  1.0000
  C   C68       1.0  0.30380  0.81200  0.78330  1.0000
  H   H49       1.0  0.33140  0.70580  0.24690  1.0000
  H   H50       1.0  0.66860  0.20580  0.25310  1.0000
  H   H51       1.0  0.66860  0.29420  0.75310  1.0000
  H   H52       1.0  0.33140  0.79420  0.74690  1.0000
  H   H53       1.0  0.30720  0.58220  0.29630  1.0000
  H   H54       1.0  0.69280  0.08220  0.20370  1.0000
  H   H55       1.0  0.69280  0.41780  0.70370  1.0000
  H   H56       1.0  0.30720  0.91780  0.79630  1.0000
  H   H57       1.0  0.32480  0.74860  0.32450  1.0000
  H   H58       1.0  0.67520  0.24860  0.17550  1.0000
  H   H59       1.0  0.67520  0.25140  0.67550  1.0000
  H   H60       1.0  0.32480  0.75140  0.82450  1.0000
  O   O57       1.0  0.16350  0.65400  0.97220  1.0000
  O   O58       1.0  0.83650  0.15400  0.52780  1.0000
  O   O59       1.0  0.83650  0.34600  0.02780  1.0000
  O   O60       1.0  0.16350  0.84600  0.47220  1.0000
