data_image0
_chemical_formula_structural       Cu4Na4O32C16H8C8H8C16H8C8H8C16
_chemical_formula_sum              "Cu4 Na4 O32 C64 H32"
_cell_length_a       17.7637
_cell_length_b       11.7135
_cell_length_c       11.2193
_cell_angle_alpha    90
_cell_angle_beta     109.508
_cell_angle_gamma    90

_space_group_name_H-M_alt    "P 1"
_space_group_IT_number       1

loop_
  _space_group_symop_operation_xyz
  'x, y, z'

loop_
  _atom_site_type_symbol
  _atom_site_label
  _atom_site_symmetry_multiplicity
  _atom_site_fract_x
  _atom_site_fract_y
  _atom_site_fract_z
  _atom_site_occupancy
  Cu  Cu1       1.0  0.00000  0.86472  0.25000  1.0000
  Cu  Cu2       1.0  0.50000  0.36472  0.25000  1.0000
  Cu  Cu3       1.0  0.00000  0.13528  0.75000  1.0000
  Cu  Cu4       1.0  0.50000  0.63528  0.75000  1.0000
  Na  Na1       1.0  0.00000  0.00000  0.50000  1.0000
  Na  Na2       1.0  0.00000  0.00000  0.00000  1.0000
  Na  Na3       1.0  0.50000  0.50000  0.50000  1.0000
  Na  Na4       1.0  0.50000  0.50000  0.00000  1.0000
  O   O1        1.0  0.07353  0.98443  0.22779  1.0000
  O   O2        1.0  0.92647  0.98443  0.27221  1.0000
  O   O3        1.0  0.57353  0.48443  0.22779  1.0000
  O   O4        1.0  0.42647  0.48443  0.27221  1.0000
  O   O5        1.0  0.92647  0.01557  0.77221  1.0000
  O   O6        1.0  0.07353  0.01557  0.72779  1.0000
  O   O7        1.0  0.42647  0.51557  0.77221  1.0000
  O   O8        1.0  0.57353  0.51557  0.72779  1.0000
  O   O9        1.0  0.11396  0.95262  0.43388  1.0000
  O   O10       1.0  0.88604  0.95262  0.06612  1.0000
  O   O11       1.0  0.61396  0.45262  0.43388  1.0000
  O   O12       1.0  0.38604  0.45262  0.06612  1.0000
  O   O13       1.0  0.88604  0.04738  0.56612  1.0000
  O   O14       1.0  0.11396  0.04738  0.93388  1.0000
  O   O15       1.0  0.38604  0.54738  0.56612  1.0000
  O   O16       1.0  0.61396  0.54738  0.93388  1.0000
  O   O17       1.0  0.44317  0.30870  0.47574  1.0000
  O   O18       1.0  0.55683  0.30870  0.02426  1.0000
  O   O19       1.0  0.94317  0.80870  0.47574  1.0000
  O   O20       1.0  0.05683  0.80870  0.02426  1.0000
  O   O21       1.0  0.55683  0.69130  0.52426  1.0000
  O   O22       1.0  0.44317  0.69130  0.97574  1.0000
  O   O23       1.0  0.05683  0.19130  0.52426  1.0000
  O   O24       1.0  0.94317  0.19130  0.97574  1.0000
  O   O25       1.0  0.43194  0.24915  0.28090  1.0000
  O   O26       1.0  0.56806  0.24915  0.21910  1.0000
  O   O27       1.0  0.93194  0.74915  0.28090  1.0000
  O   O28       1.0  0.06806  0.74915  0.21910  1.0000
  O   O29       1.0  0.56806  0.75085  0.71910  1.0000
  O   O30       1.0  0.43194  0.75085  0.78090  1.0000
  O   O31       1.0  0.06806  0.25085  0.71910  1.0000
  O   O32       1.0  0.93194  0.25085  0.78090  1.0000
  C   C1        1.0  0.20056  0.05570  0.35010  1.0000
  C   C2        1.0  0.79944  0.05570  0.14990  1.0000
  C   C3        1.0  0.70056  0.55570  0.35010  1.0000
  C   C4        1.0  0.29944  0.55570  0.14990  1.0000
  C   C5        1.0  0.79944  0.94430  0.64990  1.0000
  C   C6        1.0  0.20056  0.94430  0.85010  1.0000
  C   C7        1.0  0.29944  0.44430  0.64990  1.0000
  C   C8        1.0  0.70056  0.44430  0.85010  1.0000
  C   C9        1.0  0.22059  0.07910  0.24320  1.0000
  C   C10       1.0  0.77941  0.07910  0.25680  1.0000
  C   C11       1.0  0.72059  0.57910  0.24320  1.0000
  C   C12       1.0  0.27941  0.57910  0.25680  1.0000
  C   C13       1.0  0.77941  0.92090  0.75680  1.0000
  C   C14       1.0  0.22059  0.92090  0.74320  1.0000
  C   C15       1.0  0.27941  0.42090  0.75680  1.0000
  C   C16       1.0  0.72059  0.42090  0.74320  1.0000
  H   H1        1.0  0.18770  0.05380  0.16450  1.0000
  H   H2        1.0  0.81230  0.05380  0.33550  1.0000
  H   H3        1.0  0.68770  0.55380  0.16450  1.0000
  H   H4        1.0  0.31230  0.55380  0.33550  1.0000
  H   H5        1.0  0.81230  0.94620  0.83550  1.0000
  H   H6        1.0  0.18770  0.94620  0.66450  1.0000
  H   H7        1.0  0.31230  0.44620  0.83550  1.0000
  H   H8        1.0  0.68770  0.44620  0.66450  1.0000
  C   C17       1.0  0.28932  0.13990  0.25280  1.0000
  C   C18       1.0  0.71068  0.13990  0.24720  1.0000
  C   C19       1.0  0.78932  0.63990  0.25280  1.0000
  C   C20       1.0  0.21068  0.63990  0.24720  1.0000
  C   C21       1.0  0.71068  0.86010  0.74720  1.0000
  C   C22       1.0  0.28932  0.86010  0.75280  1.0000
  C   C23       1.0  0.21068  0.36010  0.74720  1.0000
  C   C24       1.0  0.78932  0.36010  0.75280  1.0000
  H   H9        1.0  0.30280  0.15340  0.18080  1.0000
  H   H10       1.0  0.69720  0.15340  0.31920  1.0000
  H   H11       1.0  0.80280  0.65340  0.18080  1.0000
  H   H12       1.0  0.19720  0.65340  0.31920  1.0000
  H   H13       1.0  0.69720  0.84660  0.81920  1.0000
  H   H14       1.0  0.30280  0.84660  0.68080  1.0000
  H   H15       1.0  0.19720  0.34660  0.81920  1.0000
  H   H16       1.0  0.80280  0.34660  0.68080  1.0000
  C   C25       1.0  0.33833  0.18080  0.36910  1.0000
  C   C26       1.0  0.66167  0.18080  0.13090  1.0000
  C   C27       1.0  0.83833  0.68080  0.36910  1.0000
  C   C28       1.0  0.16167  0.68080  0.13090  1.0000
  C   C29       1.0  0.66167  0.81920  0.63090  1.0000
  C   C30       1.0  0.33833  0.81920  0.86910  1.0000
  C   C31       1.0  0.16167  0.31920  0.63090  1.0000
  C   C32       1.0  0.83833  0.31920  0.86910  1.0000
  C   C33       1.0  0.31828  0.15610  0.47580  1.0000
  C   C34       1.0  0.68172  0.15610  0.02420  1.0000
  C   C35       1.0  0.81828  0.65610  0.47580  1.0000
  C   C36       1.0  0.18172  0.65610  0.02420  1.0000
  C   C37       1.0  0.68172  0.84390  0.52420  1.0000
  C   C38       1.0  0.31828  0.84390  0.97580  1.0000
  C   C39       1.0  0.18172  0.34390  0.52420  1.0000
  C   C40       1.0  0.81828  0.34390  0.97580  1.0000
  H   H17       1.0  0.35070  0.18230  0.55450  1.0000
  H   H18       1.0  0.64930  0.18230  0.94550  1.0000
  H   H19       1.0  0.85070  0.68230  0.55450  1.0000
  H   H20       1.0  0.14930  0.68230  0.94550  1.0000
  H   H21       1.0  0.64930  0.81770  0.44550  1.0000
  H   H22       1.0  0.35070  0.81770  0.05450  1.0000
  H   H23       1.0  0.14930  0.31770  0.44550  1.0000
  H   H24       1.0  0.85070  0.31770  0.05450  1.0000
  C   C41       1.0  0.25060  0.09290  0.46670  1.0000
  C   C42       1.0  0.74940  0.09290  0.03330  1.0000
  C   C43       1.0  0.75060  0.59290  0.46670  1.0000
  C   C44       1.0  0.24940  0.59290  0.03330  1.0000
  C   C45       1.0  0.74940  0.90710  0.53330  1.0000
  C   C46       1.0  0.25060  0.90710  0.96670  1.0000
  C   C47       1.0  0.24940  0.40710  0.53330  1.0000
  C   C48       1.0  0.75060  0.40710  0.96670  1.0000
  H   H25       1.0  0.23870  0.07550  0.53930  1.0000
  H   H26       1.0  0.76130  0.07550  0.96070  1.0000
  H   H27       1.0  0.73870  0.57550  0.53930  1.0000
  H   H28       1.0  0.26130  0.57550  0.96070  1.0000
  H   H29       1.0  0.76130  0.92450  0.46070  1.0000
  H   H30       1.0  0.23870  0.92450  0.03930  1.0000
  H   H31       1.0  0.26130  0.42450  0.46070  1.0000
  H   H32       1.0  0.73870  0.42450  0.03930  1.0000
  C   C49       1.0  0.12446  0.99320  0.33870  1.0000
  C   C50       1.0  0.87554  0.99320  0.16130  1.0000
  C   C51       1.0  0.62446  0.49320  0.33870  1.0000
  C   C52       1.0  0.37554  0.49320  0.16130  1.0000
  C   C53       1.0  0.87554  0.00680  0.66130  1.0000
  C   C54       1.0  0.12446  0.00680  0.83870  1.0000
  C   C55       1.0  0.37554  0.50680  0.66130  1.0000
  C   C56       1.0  0.62446  0.50680  0.83870  1.0000
  C   C57       1.0  0.41069  0.25320  0.37960  1.0000
  C   C58       1.0  0.58931  0.25320  0.12040  1.0000
  C   C59       1.0  0.91069  0.75320  0.37960  1.0000
  C   C60       1.0  0.08931  0.75320  0.12040  1.0000
  C   C61       1.0  0.58931  0.74680  0.62040  1.0000
  C   C62       1.0  0.41069  0.74680  0.87960  1.0000
  C   C63       1.0  0.08931  0.24680  0.62040  1.0000
  C   C64       1.0  0.91069  0.24680  0.87960  1.0000
