data_image0
_chemical_formula_structural       La4O32C16H8C16H8C24H8C8H8C16H8C8H8C16H8C8H8
_chemical_formula_sum              "La4 O32 C112 H64"
_cell_length_a       28.1888
_cell_length_b       11.7883
_cell_length_c       7.7777
_cell_angle_alpha    90
_cell_angle_beta     90
_cell_angle_gamma    90

_space_group_name_H-M_alt    "P 1"
_space_group_IT_number       1

loop_
  _space_group_symop_operation_xyz
  'x, y, z'

loop_
  _atom_site_type_symbol
  _atom_site_label
  _atom_site_symmetry_multiplicity
  _atom_site_fract_x
  _atom_site_fract_y
  _atom_site_fract_z
  _atom_site_occupancy
  La  La1       1.0  0.00000  0.33203  0.25000  1.0000
  La  La2       1.0  0.50000  0.16797  0.75000  1.0000
  La  La3       1.0  0.00000  0.66797  0.75000  1.0000
  La  La4       1.0  0.50000  0.83203  0.25000  1.0000
  O   O1        1.0  0.44369  0.74420  0.47540  1.0000
  O   O2        1.0  0.05631  0.75580  0.97540  1.0000
  O   O3        1.0  0.55631  0.74420  0.02460  1.0000
  O   O4        1.0  0.94369  0.75580  0.52460  1.0000
  O   O5        1.0  0.55631  0.25580  0.52460  1.0000
  O   O6        1.0  0.94369  0.24420  0.02460  1.0000
  O   O7        1.0  0.44369  0.25580  0.97540  1.0000
  O   O8        1.0  0.05631  0.24420  0.47540  1.0000
  O   O9        1.0  0.44125  0.66260  0.22250  1.0000
  O   O10       1.0  0.05875  0.83740  0.72250  1.0000
  O   O11       1.0  0.55875  0.66260  0.27750  1.0000
  O   O12       1.0  0.94125  0.83740  0.77750  1.0000
  O   O13       1.0  0.55875  0.33740  0.77750  1.0000
  O   O14       1.0  0.94125  0.16260  0.27750  1.0000
  O   O15       1.0  0.44125  0.33740  0.72250  1.0000
  O   O16       1.0  0.05875  0.16260  0.22250  1.0000
  O   O17       1.0  0.04213  0.63980  0.48150  1.0000
  O   O18       1.0  0.45787  0.86020  0.98150  1.0000
  O   O19       1.0  0.95787  0.63980  0.01850  1.0000
  O   O20       1.0  0.54213  0.86020  0.51850  1.0000
  O   O21       1.0  0.95787  0.36020  0.51850  1.0000
  O   O22       1.0  0.54213  0.13980  0.01850  1.0000
  O   O23       1.0  0.04213  0.36020  0.98150  1.0000
  O   O24       1.0  0.45787  0.13980  0.48150  1.0000
  O   O25       1.0  0.05286  0.48230  0.32850  1.0000
  O   O26       1.0  0.44714  0.01770  0.82850  1.0000
  O   O27       1.0  0.94714  0.48230  0.17150  1.0000
  O   O28       1.0  0.55286  0.01770  0.67150  1.0000
  O   O29       1.0  0.94714  0.51770  0.67150  1.0000
  O   O30       1.0  0.55286  0.98230  0.17150  1.0000
  O   O31       1.0  0.05286  0.51770  0.82850  1.0000
  O   O32       1.0  0.44714  0.98230  0.32850  1.0000
  C   C1        1.0  0.06780  0.56660  0.40870  1.0000
  C   C2        1.0  0.43220  0.93340  0.90870  1.0000
  C   C3        1.0  0.93220  0.56660  0.09130  1.0000
  C   C4        1.0  0.56780  0.93340  0.59130  1.0000
  C   C5        1.0  0.93220  0.43340  0.59130  1.0000
  C   C6        1.0  0.56780  0.06660  0.09130  1.0000
  C   C7        1.0  0.06780  0.43340  0.90870  1.0000
  C   C8        1.0  0.43220  0.06660  0.40870  1.0000
  C   C9        1.0  0.15070  0.49380  0.35980  1.0000
  C   C10       1.0  0.34930  0.00620  0.85980  1.0000
  C   C11       1.0  0.84930  0.49380  0.14020  1.0000
  C   C12       1.0  0.65070  0.00620  0.64020  1.0000
  C   C13       1.0  0.84930  0.50620  0.64020  1.0000
  C   C14       1.0  0.65070  0.99380  0.14020  1.0000
  C   C15       1.0  0.15070  0.50620  0.85980  1.0000
  C   C16       1.0  0.34930  0.99380  0.35980  1.0000
  H   H1        1.0  0.13760  0.42680  0.31830  1.0000
  H   H2        1.0  0.36240  0.07320  0.81830  1.0000
  H   H3        1.0  0.86240  0.42680  0.18170  1.0000
  H   H4        1.0  0.63760  0.07320  0.68170  1.0000
  H   H5        1.0  0.86240  0.57320  0.68170  1.0000
  H   H6        1.0  0.63760  0.92680  0.18170  1.0000
  H   H7        1.0  0.13760  0.57320  0.81830  1.0000
  H   H8        1.0  0.36240  0.92680  0.31830  1.0000
  C   C17       1.0  0.42180  0.68850  0.36230  1.0000
  C   C18       1.0  0.07820  0.81150  0.86230  1.0000
  C   C19       1.0  0.57820  0.68850  0.13770  1.0000
  C   C20       1.0  0.92180  0.81150  0.63770  1.0000
  C   C21       1.0  0.57820  0.31150  0.63770  1.0000
  C   C22       1.0  0.92180  0.18850  0.13770  1.0000
  C   C23       1.0  0.42180  0.31150  0.86230  1.0000
  C   C24       1.0  0.07820  0.18850  0.36230  1.0000
  C   C25       1.0  0.19940  0.50640  0.36550  1.0000
  C   C26       1.0  0.30060  0.99360  0.86550  1.0000
  C   C27       1.0  0.80060  0.50640  0.13450  1.0000
  C   C28       1.0  0.69940  0.99360  0.63450  1.0000
  C   C29       1.0  0.80060  0.49360  0.63450  1.0000
  C   C30       1.0  0.69940  0.00640  0.13450  1.0000
  C   C31       1.0  0.19940  0.49360  0.86550  1.0000
  C   C32       1.0  0.30060  0.00640  0.36550  1.0000
  H   H9        1.0  0.21860  0.44640  0.33110  1.0000
  H   H10       1.0  0.28140  0.05360  0.83110  1.0000
  H   H11       1.0  0.78140  0.44640  0.16890  1.0000
  H   H12       1.0  0.71860  0.05360  0.66890  1.0000
  H   H13       1.0  0.78140  0.55360  0.66890  1.0000
  H   H14       1.0  0.71860  0.94640  0.16890  1.0000
  H   H15       1.0  0.21860  0.55360  0.83110  1.0000
  H   H16       1.0  0.28140  0.94640  0.33110  1.0000
  C   C33       1.0  0.12130  0.58060  0.41580  1.0000
  C   C34       1.0  0.37870  0.91940  0.91580  1.0000
  C   C35       1.0  0.87870  0.58060  0.08420  1.0000
  C   C36       1.0  0.62130  0.91940  0.58420  1.0000
  C   C37       1.0  0.87870  0.41940  0.58420  1.0000
  C   C38       1.0  0.62130  0.08060  0.08420  1.0000
  C   C39       1.0  0.12130  0.41940  0.91580  1.0000
  C   C40       1.0  0.37870  0.08060  0.41580  1.0000
  C   C41       1.0  0.22020  0.60650  0.42130  1.0000
  C   C42       1.0  0.27980  0.89350  0.92130  1.0000
  C   C43       1.0  0.77980  0.60650  0.07870  1.0000
  C   C44       1.0  0.72020  0.89350  0.57870  1.0000
  C   C45       1.0  0.77980  0.39350  0.57870  1.0000
  C   C46       1.0  0.72020  0.10650  0.07870  1.0000
  C   C47       1.0  0.22020  0.39350  0.92130  1.0000
  C   C48       1.0  0.27980  0.10650  0.42130  1.0000
  C   C49       1.0  0.19090  0.69360  0.47700  1.0000
  C   C50       1.0  0.30910  0.80640  0.97700  1.0000
  C   C51       1.0  0.80910  0.69360  0.02300  1.0000
  C   C52       1.0  0.69090  0.80640  0.52300  1.0000
  C   C53       1.0  0.80910  0.30640  0.52300  1.0000
  C   C54       1.0  0.69090  0.19360  0.02300  1.0000
  C   C55       1.0  0.19090  0.30640  0.97700  1.0000
  C   C56       1.0  0.30910  0.19360  0.47700  1.0000
  H   H17       1.0  0.20410  0.76170  0.51390  1.0000
  H   H18       1.0  0.29590  0.73830  0.01390  1.0000
  H   H19       1.0  0.79590  0.76170  0.98610  1.0000
  H   H20       1.0  0.70410  0.73830  0.48610  1.0000
  H   H21       1.0  0.79590  0.23830  0.48610  1.0000
  H   H22       1.0  0.70410  0.26170  0.98610  1.0000
  H   H23       1.0  0.20410  0.23830  0.01390  1.0000
  H   H24       1.0  0.29590  0.26170  0.51390  1.0000
  C   C57       1.0  0.34780  0.58590  0.27510  1.0000
  C   C58       1.0  0.15220  0.91410  0.77510  1.0000
  C   C59       1.0  0.65220  0.58590  0.22490  1.0000
  C   C60       1.0  0.84780  0.91410  0.72490  1.0000
  C   C61       1.0  0.65220  0.41410  0.72490  1.0000
  C   C62       1.0  0.84780  0.08590  0.22490  1.0000
  C   C63       1.0  0.34780  0.41410  0.77510  1.0000
  C   C64       1.0  0.15220  0.08590  0.27510  1.0000
  H   H25       1.0  0.36490  0.55010  0.18850  1.0000
  H   H26       1.0  0.13510  0.94990  0.68850  1.0000
  H   H27       1.0  0.63510  0.55010  0.31150  1.0000
  H   H28       1.0  0.86490  0.94990  0.81150  1.0000
  H   H29       1.0  0.63510  0.44990  0.81150  1.0000
  H   H30       1.0  0.86490  0.05010  0.31150  1.0000
  H   H31       1.0  0.36490  0.44990  0.68850  1.0000
  H   H32       1.0  0.13510  0.05010  0.18850  1.0000
  C   C65       1.0  0.37110  0.65800  0.39040  1.0000
  C   C66       1.0  0.12890  0.84200  0.89040  1.0000
  C   C67       1.0  0.62890  0.65800  0.10960  1.0000
  C   C68       1.0  0.87110  0.84200  0.60960  1.0000
  C   C69       1.0  0.62890  0.34200  0.60960  1.0000
  C   C70       1.0  0.87110  0.15800  0.10960  1.0000
  C   C71       1.0  0.37110  0.34200  0.89040  1.0000
  C   C72       1.0  0.12890  0.15800  0.39040  1.0000
  C   C73       1.0  0.14160  0.68000  0.47800  1.0000
  C   C74       1.0  0.35840  0.82000  0.97800  1.0000
  C   C75       1.0  0.85840  0.68000  0.02200  1.0000
  C   C76       1.0  0.64160  0.82000  0.52200  1.0000
  C   C77       1.0  0.85840  0.32000  0.52200  1.0000
  C   C78       1.0  0.64160  0.18000  0.02200  1.0000
  C   C79       1.0  0.14160  0.32000  0.97800  1.0000
  C   C80       1.0  0.35840  0.18000  0.47800  1.0000
  H   H33       1.0  0.12240  0.73760  0.52050  1.0000
  H   H34       1.0  0.37760  0.76240  0.02050  1.0000
  H   H35       1.0  0.87760  0.73760  0.97950  1.0000
  H   H36       1.0  0.62240  0.76240  0.47950  1.0000
  H   H37       1.0  0.87760  0.26240  0.47950  1.0000
  H   H38       1.0  0.62240  0.23760  0.97950  1.0000
  H   H39       1.0  0.12240  0.26240  0.02050  1.0000
  H   H40       1.0  0.37760  0.23760  0.52050  1.0000
  C   C81       1.0  0.34480  0.71060  0.51680  1.0000
  C   C82       1.0  0.15520  0.78940  0.01680  1.0000
  C   C83       1.0  0.65520  0.71060  0.98320  1.0000
  C   C84       1.0  0.84480  0.78940  0.48320  1.0000
  C   C85       1.0  0.65520  0.28940  0.48320  1.0000
  C   C86       1.0  0.84480  0.21060  0.98320  1.0000
  C   C87       1.0  0.34480  0.28940  0.01680  1.0000
  C   C88       1.0  0.15520  0.21060  0.51680  1.0000
  H   H41       1.0  0.35970  0.75840  0.59490  1.0000
  H   H42       1.0  0.14030  0.74160  0.09490  1.0000
  H   H43       1.0  0.64030  0.75840  0.90510  1.0000
  H   H44       1.0  0.85970  0.74160  0.40510  1.0000
  H   H45       1.0  0.64030  0.24160  0.40510  1.0000
  H   H46       1.0  0.85970  0.25840  0.90510  1.0000
  H   H47       1.0  0.35970  0.24160  0.09490  1.0000
  H   H48       1.0  0.14030  0.25840  0.59490  1.0000
  C   C89       1.0  0.27260  0.62210  0.41550  1.0000
  C   C90       1.0  0.22740  0.87790  0.91550  1.0000
  C   C91       1.0  0.72740  0.62210  0.08450  1.0000
  C   C92       1.0  0.77260  0.87790  0.58450  1.0000
  C   C93       1.0  0.72740  0.37790  0.58450  1.0000
  C   C94       1.0  0.77260  0.12210  0.08450  1.0000
  C   C95       1.0  0.27260  0.37790  0.91550  1.0000
  C   C96       1.0  0.22740  0.12210  0.41550  1.0000
  C   C97       1.0  0.29940  0.56710  0.28870  1.0000
  C   C98       1.0  0.20060  0.93290  0.78870  1.0000
  C   C99       1.0  0.70060  0.56710  0.21130  1.0000
  C   C100      1.0  0.79940  0.93290  0.71130  1.0000
  C   C101      1.0  0.70060  0.43290  0.71130  1.0000
  C   C102      1.0  0.79940  0.06710  0.21130  1.0000
  C   C103      1.0  0.29940  0.43290  0.78870  1.0000
  C   C104      1.0  0.20060  0.06710  0.28870  1.0000
  H   H49       1.0  0.28450  0.51750  0.21280  1.0000
  H   H50       1.0  0.21550  0.98250  0.71280  1.0000
  H   H51       1.0  0.71550  0.51750  0.28720  1.0000
  H   H52       1.0  0.78450  0.98250  0.78720  1.0000
  H   H53       1.0  0.71550  0.48250  0.78720  1.0000
  H   H54       1.0  0.78450  0.01750  0.28720  1.0000
  H   H55       1.0  0.28450  0.48250  0.71280  1.0000
  H   H56       1.0  0.21550  0.01750  0.21280  1.0000
  C   C105      1.0  0.29640  0.69280  0.52840  1.0000
  C   C106      1.0  0.20360  0.80720  0.02840  1.0000
  C   C107      1.0  0.70360  0.69280  0.97160  1.0000
  C   C108      1.0  0.79640  0.80720  0.47160  1.0000
  C   C109      1.0  0.70360  0.30720  0.47160  1.0000
  C   C110      1.0  0.79640  0.19280  0.97160  1.0000
  C   C111      1.0  0.29640  0.30720  0.02840  1.0000
  C   C112      1.0  0.20360  0.19280  0.52840  1.0000
  H   H57       1.0  0.27940  0.72940  0.61440  1.0000
  H   H58       1.0  0.22060  0.77060  0.11440  1.0000
  H   H59       1.0  0.72060  0.72940  0.88560  1.0000
  H   H60       1.0  0.77940  0.77060  0.38560  1.0000
  H   H61       1.0  0.72060  0.27060  0.38560  1.0000
  H   H62       1.0  0.77940  0.22940  0.88560  1.0000
  H   H63       1.0  0.27940  0.27060  0.11440  1.0000
  H   H64       1.0  0.22060  0.22940  0.61440  1.0000
