data_image0
_chemical_formula_structural       Ce4O32C88H8C24H56
_chemical_formula_sum              "Ce4 O32 C112 H64"
_cell_length_a       28.0397
_cell_length_b       11.7767
_cell_length_c       7.7568
_cell_angle_alpha    90
_cell_angle_beta     90
_cell_angle_gamma    90

_space_group_name_H-M_alt    "P 1"
_space_group_IT_number       1

loop_
  _space_group_symop_operation_xyz
  'x, y, z'

loop_
  _atom_site_type_symbol
  _atom_site_label
  _atom_site_symmetry_multiplicity
  _atom_site_fract_x
  _atom_site_fract_y
  _atom_site_fract_z
  _atom_site_occupancy
  Ce  Ce1       1.0  0.50000  0.66735  0.25000  1.0000
  Ce  Ce2       1.0  0.00000  0.83265  0.75000  1.0000
  Ce  Ce3       1.0  0.50000  0.33265  0.75000  1.0000
  Ce  Ce4       1.0  0.00000  0.16735  0.25000  1.0000
  O   O1        1.0  0.05815  0.33700  0.21840  1.0000
  O   O2        1.0  0.44185  0.16300  0.71840  1.0000
  O   O3        1.0  0.94185  0.33700  0.28160  1.0000
  O   O4        1.0  0.55815  0.16300  0.78160  1.0000
  O   O5        1.0  0.94185  0.66300  0.78160  1.0000
  O   O6        1.0  0.55815  0.83700  0.28160  1.0000
  O   O7        1.0  0.05815  0.66300  0.71840  1.0000
  O   O8        1.0  0.44185  0.83700  0.21840  1.0000
  O   O9        1.0  0.44777  0.51850  0.32700  1.0000
  O   O10       1.0  0.05223  0.98150  0.82700  1.0000
  O   O11       1.0  0.55223  0.51850  0.17300  1.0000
  O   O12       1.0  0.94777  0.98150  0.67300  1.0000
  O   O13       1.0  0.55223  0.48150  0.67300  1.0000
  O   O14       1.0  0.94777  0.01850  0.17300  1.0000
  O   O15       1.0  0.44777  0.48150  0.82700  1.0000
  O   O16       1.0  0.05223  0.01850  0.32700  1.0000
  O   O17       1.0  0.45851  0.36160  0.48100  1.0000
  O   O18       1.0  0.04149  0.13840  0.98100  1.0000
  O   O19       1.0  0.54149  0.36160  0.01900  1.0000
  O   O20       1.0  0.95851  0.13840  0.51900  1.0000
  O   O21       1.0  0.54149  0.63840  0.51900  1.0000
  O   O22       1.0  0.95851  0.86160  0.01900  1.0000
  O   O23       1.0  0.45851  0.63840  0.98100  1.0000
  O   O24       1.0  0.04149  0.86160  0.48100  1.0000
  O   O25       1.0  0.05567  0.25520  0.47360  1.0000
  O   O26       1.0  0.44433  0.24480  0.97360  1.0000
  O   O27       1.0  0.94433  0.25520  0.02640  1.0000
  O   O28       1.0  0.55567  0.24480  0.52640  1.0000
  O   O29       1.0  0.94433  0.74480  0.52640  1.0000
  O   O30       1.0  0.55567  0.75520  0.02640  1.0000
  O   O31       1.0  0.05567  0.74480  0.97360  1.0000
  O   O32       1.0  0.44433  0.75520  0.47360  1.0000
  C   C1        1.0  0.43226  0.43440  0.40880  1.0000
  C   C2        1.0  0.06774  0.06560  0.90880  1.0000
  C   C3        1.0  0.56774  0.43440  0.09120  1.0000
  C   C4        1.0  0.93226  0.06560  0.59120  1.0000
  C   C5        1.0  0.56774  0.56560  0.59120  1.0000
  C   C6        1.0  0.93226  0.93440  0.09120  1.0000
  C   C7        1.0  0.43226  0.56560  0.90880  1.0000
  C   C8        1.0  0.06774  0.93440  0.40880  1.0000
  C   C9        1.0  0.37940  0.41970  0.41490  1.0000
  C   C10       1.0  0.12060  0.08030  0.91490  1.0000
  C   C11       1.0  0.62060  0.41970  0.08510  1.0000
  C   C12       1.0  0.87940  0.08030  0.58510  1.0000
  C   C13       1.0  0.62060  0.58030  0.58510  1.0000
  C   C14       1.0  0.87940  0.91970  0.08510  1.0000
  C   C15       1.0  0.37940  0.58030  0.91490  1.0000
  C   C16       1.0  0.12060  0.91970  0.41490  1.0000
  C   C17       1.0  0.07715  0.31240  0.35960  1.0000
  C   C18       1.0  0.42285  0.18760  0.85960  1.0000
  C   C19       1.0  0.92285  0.31240  0.14040  1.0000
  C   C20       1.0  0.57715  0.18760  0.64040  1.0000
  C   C21       1.0  0.92285  0.68760  0.64040  1.0000
  C   C22       1.0  0.57715  0.81240  0.14040  1.0000
  C   C23       1.0  0.07715  0.68760  0.85960  1.0000
  C   C24       1.0  0.42285  0.81240  0.35960  1.0000
  C   C25       1.0  0.12882  0.34140  0.38770  1.0000
  C   C26       1.0  0.37118  0.15860  0.88770  1.0000
  C   C27       1.0  0.87118  0.34140  0.11230  1.0000
  C   C28       1.0  0.62882  0.15860  0.61230  1.0000
  C   C29       1.0  0.87118  0.65860  0.61230  1.0000
  C   C30       1.0  0.62882  0.84140  0.11230  1.0000
  C   C31       1.0  0.12882  0.65860  0.88770  1.0000
  C   C32       1.0  0.37118  0.84140  0.38770  1.0000
  C   C33       1.0  0.34963  0.50630  0.35970  1.0000
  C   C34       1.0  0.15037  0.99370  0.85970  1.0000
  C   C35       1.0  0.65037  0.50630  0.14030  1.0000
  C   C36       1.0  0.84963  0.99370  0.64030  1.0000
  C   C37       1.0  0.65037  0.49370  0.64030  1.0000
  C   C38       1.0  0.84963  0.00630  0.14030  1.0000
  C   C39       1.0  0.34963  0.49370  0.85970  1.0000
  C   C40       1.0  0.15037  0.00630  0.35970  1.0000
  C   C41       1.0  0.27990  0.39310  0.41930  1.0000
  C   C42       1.0  0.22010  0.10690  0.91930  1.0000
  C   C43       1.0  0.72010  0.39310  0.08070  1.0000
  C   C44       1.0  0.77990  0.10690  0.58070  1.0000
  C   C45       1.0  0.72010  0.60690  0.58070  1.0000
  C   C46       1.0  0.77990  0.89310  0.08070  1.0000
  C   C47       1.0  0.27990  0.60690  0.91930  1.0000
  C   C48       1.0  0.22010  0.89310  0.41930  1.0000
  C   C49       1.0  0.22743  0.37770  0.41260  1.0000
  C   C50       1.0  0.27257  0.12230  0.91260  1.0000
  C   C51       1.0  0.77257  0.37770  0.08740  1.0000
  C   C52       1.0  0.72743  0.12230  0.58740  1.0000
  C   C53       1.0  0.77257  0.62230  0.58740  1.0000
  C   C54       1.0  0.72743  0.87770  0.08740  1.0000
  C   C55       1.0  0.22743  0.62230  0.91260  1.0000
  C   C56       1.0  0.27257  0.87770  0.41260  1.0000
  C   C57       1.0  0.30068  0.49460  0.36260  1.0000
  C   C58       1.0  0.19932  0.00540  0.86260  1.0000
  C   C59       1.0  0.69932  0.49460  0.13740  1.0000
  C   C60       1.0  0.80068  0.00540  0.63740  1.0000
  C   C61       1.0  0.69932  0.50540  0.63740  1.0000
  C   C62       1.0  0.80068  0.99460  0.13740  1.0000
  C   C63       1.0  0.30068  0.50540  0.86260  1.0000
  C   C64       1.0  0.19932  0.99460  0.36260  1.0000
  C   C65       1.0  0.35872  0.32020  0.47620  1.0000
  C   C66       1.0  0.14128  0.17980  0.97620  1.0000
  C   C67       1.0  0.64128  0.32020  0.02380  1.0000
  C   C68       1.0  0.85872  0.17980  0.52380  1.0000
  C   C69       1.0  0.64128  0.67980  0.52380  1.0000
  C   C70       1.0  0.85872  0.82020  0.02380  1.0000
  C   C71       1.0  0.35872  0.67980  0.97620  1.0000
  C   C72       1.0  0.14128  0.82020  0.47620  1.0000
  C   C73       1.0  0.30987  0.30640  0.47690  1.0000
  C   C74       1.0  0.19013  0.19360  0.97690  1.0000
  C   C75       1.0  0.69013  0.30640  0.02310  1.0000
  C   C76       1.0  0.80987  0.19360  0.52310  1.0000
  C   C77       1.0  0.69013  0.69360  0.52310  1.0000
  C   C78       1.0  0.80987  0.80640  0.02310  1.0000
  C   C79       1.0  0.30987  0.69360  0.97690  1.0000
  C   C80       1.0  0.19013  0.80640  0.47690  1.0000
  C   C81       1.0  0.15186  0.41490  0.27390  1.0000
  C   C82       1.0  0.34814  0.08510  0.77390  1.0000
  C   C83       1.0  0.84814  0.41490  0.22610  1.0000
  C   C84       1.0  0.65186  0.08510  0.72610  1.0000
  C   C85       1.0  0.84814  0.58510  0.72610  1.0000
  C   C86       1.0  0.65186  0.91490  0.22610  1.0000
  C   C87       1.0  0.15186  0.58510  0.77390  1.0000
  C   C88       1.0  0.34814  0.91490  0.27390  1.0000
  H   H1        1.0  0.13440  0.45190  0.18870  1.0000
  H   H2        1.0  0.36560  0.04810  0.68870  1.0000
  H   H3        1.0  0.86560  0.45190  0.31130  1.0000
  H   H4        1.0  0.63440  0.04810  0.81130  1.0000
  H   H5        1.0  0.86560  0.54810  0.81130  1.0000
  H   H6        1.0  0.63440  0.95190  0.31130  1.0000
  H   H7        1.0  0.13440  0.54810  0.68870  1.0000
  H   H8        1.0  0.36560  0.95190  0.18870  1.0000
  C   C89       1.0  0.15501  0.28960  0.51690  1.0000
  C   C90       1.0  0.34499  0.21040  0.01690  1.0000
  C   C91       1.0  0.84499  0.28960  0.98310  1.0000
  C   C92       1.0  0.65501  0.21040  0.48310  1.0000
  C   C93       1.0  0.84499  0.71040  0.48310  1.0000
  C   C94       1.0  0.65501  0.78960  0.98310  1.0000
  C   C95       1.0  0.15501  0.71040  0.01690  1.0000
  C   C96       1.0  0.34499  0.78960  0.51690  1.0000
  C   C97       1.0  0.20032  0.43300  0.28700  1.0000
  C   C98       1.0  0.29968  0.06700  0.78700  1.0000
  C   C99       1.0  0.79968  0.43300  0.21300  1.0000
  C   C100      1.0  0.70032  0.06700  0.71300  1.0000
  C   C101      1.0  0.79968  0.56700  0.71300  1.0000
  C   C102      1.0  0.70032  0.93300  0.21300  1.0000
  C   C103      1.0  0.20032  0.56700  0.78700  1.0000
  C   C104      1.0  0.29968  0.93300  0.28700  1.0000
  C   C105      1.0  0.20368  0.30660  0.52800  1.0000
  C   C106      1.0  0.29632  0.19340  0.02800  1.0000
  C   C107      1.0  0.79632  0.30660  0.97200  1.0000
  C   C108      1.0  0.70368  0.19340  0.47200  1.0000
  C   C109      1.0  0.79632  0.69340  0.47200  1.0000
  C   C110      1.0  0.70368  0.80660  0.97200  1.0000
  C   C111      1.0  0.20368  0.69340  0.02800  1.0000
  C   C112      1.0  0.29632  0.80660  0.52800  1.0000
  H   H9        1.0  0.29600  0.24100  0.51400  1.0000
  H   H10       1.0  0.20400  0.25900  0.01400  1.0000
  H   H11       1.0  0.70400  0.24100  0.98600  1.0000
  H   H12       1.0  0.79600  0.25900  0.48600  1.0000
  H   H13       1.0  0.70400  0.75900  0.48600  1.0000
  H   H14       1.0  0.79600  0.74100  0.98600  1.0000
  H   H15       1.0  0.29600  0.75900  0.01400  1.0000
  H   H16       1.0  0.20400  0.74100  0.51400  1.0000
  H   H17       1.0  0.36320  0.57100  0.32200  1.0000
  H   H18       1.0  0.13680  0.92900  0.82200  1.0000
  H   H19       1.0  0.63680  0.57100  0.17800  1.0000
  H   H20       1.0  0.86320  0.92900  0.67800  1.0000
  H   H21       1.0  0.63680  0.42900  0.67800  1.0000
  H   H22       1.0  0.86320  0.07100  0.17800  1.0000
  H   H23       1.0  0.36320  0.42900  0.82200  1.0000
  H   H24       1.0  0.13680  0.07100  0.32200  1.0000
  H   H25       1.0  0.28290  0.55600  0.32900  1.0000
  H   H26       1.0  0.21710  0.94400  0.82900  1.0000
  H   H27       1.0  0.71710  0.55600  0.17100  1.0000
  H   H28       1.0  0.78290  0.94400  0.67100  1.0000
  H   H29       1.0  0.71710  0.44400  0.67100  1.0000
  H   H30       1.0  0.78290  0.05600  0.17100  1.0000
  H   H31       1.0  0.28290  0.44400  0.82900  1.0000
  H   H32       1.0  0.21710  0.05600  0.32900  1.0000
  H   H33       1.0  0.21380  0.47600  0.21100  1.0000
  H   H34       1.0  0.28620  0.02400  0.71100  1.0000
  H   H35       1.0  0.78620  0.47600  0.28900  1.0000
  H   H36       1.0  0.71380  0.02400  0.78900  1.0000
  H   H37       1.0  0.78620  0.52400  0.78900  1.0000
  H   H38       1.0  0.71380  0.97600  0.28900  1.0000
  H   H39       1.0  0.21380  0.52400  0.71100  1.0000
  H   H40       1.0  0.28620  0.97600  0.21100  1.0000
  H   H41       1.0  0.37490  0.26800  0.50800  1.0000
  H   H42       1.0  0.12510  0.23200  0.00800  1.0000
  H   H43       1.0  0.62510  0.26800  0.99200  1.0000
  H   H44       1.0  0.87490  0.23200  0.49200  1.0000
  H   H45       1.0  0.62510  0.73200  0.49200  1.0000
  H   H46       1.0  0.87490  0.76800  0.99200  1.0000
  H   H47       1.0  0.37490  0.73200  0.00800  1.0000
  H   H48       1.0  0.12510  0.76800  0.50800  1.0000
  H   H49       1.0  0.14000  0.24200  0.59300  1.0000
  H   H50       1.0  0.36000  0.25800  0.09300  1.0000
  H   H51       1.0  0.86000  0.24200  0.90700  1.0000
  H   H52       1.0  0.64000  0.25800  0.40700  1.0000
  H   H53       1.0  0.86000  0.75800  0.40700  1.0000
  H   H54       1.0  0.64000  0.74200  0.90700  1.0000
  H   H55       1.0  0.14000  0.75800  0.09300  1.0000
  H   H56       1.0  0.36000  0.74200  0.59300  1.0000
  H   H57       1.0  0.21900  0.27100  0.60800  1.0000
  H   H58       1.0  0.28100  0.22900  0.10800  1.0000
  H   H59       1.0  0.78100  0.27100  0.89200  1.0000
  H   H60       1.0  0.71900  0.22900  0.39200  1.0000
  H   H61       1.0  0.78100  0.72900  0.39200  1.0000
  H   H62       1.0  0.71900  0.77100  0.89200  1.0000
  H   H63       1.0  0.21900  0.72900  0.10800  1.0000
  H   H64       1.0  0.28100  0.77100  0.60800  1.0000
