data_image0
_chemical_formula_structural       Eu4O32C24H8C16H8C24H8C8H8C8H8C8H8C8H8C16H8
_chemical_formula_sum              "Eu4 O32 C112 H64"
_cell_length_a       27.822
_cell_length_b       11.6997
_cell_length_c       7.7558
_cell_angle_alpha    90
_cell_angle_beta     90
_cell_angle_gamma    90

_space_group_name_H-M_alt    "P 1"
_space_group_IT_number       1

loop_
  _space_group_symop_operation_xyz
  'x, y, z'

loop_
  _atom_site_type_symbol
  _atom_site_label
  _atom_site_symmetry_multiplicity
  _atom_site_fract_x
  _atom_site_fract_y
  _atom_site_fract_z
  _atom_site_occupancy
  Eu  Eu1       1.0  0.00000  0.66576  0.25000  1.0000
  Eu  Eu2       1.0  0.50000  0.83424  0.75000  1.0000
  Eu  Eu3       1.0  0.00000  0.33424  0.75000  1.0000
  Eu  Eu4       1.0  0.50000  0.16576  0.25000  1.0000
  O   O1        1.0  0.55651  0.33260  0.21060  1.0000
  O   O2        1.0  0.94349  0.16740  0.71060  1.0000
  O   O3        1.0  0.44349  0.33260  0.28940  1.0000
  O   O4        1.0  0.05651  0.16740  0.78940  1.0000
  O   O5        1.0  0.44349  0.66740  0.78940  1.0000
  O   O6        1.0  0.05651  0.83260  0.28940  1.0000
  O   O7        1.0  0.55651  0.66740  0.71060  1.0000
  O   O8        1.0  0.94349  0.83260  0.21060  1.0000
  O   O9        1.0  0.95972  0.36580  0.48790  1.0000
  O   O10       1.0  0.54028  0.13420  0.98790  1.0000
  O   O11       1.0  0.04028  0.36580  0.01210  1.0000
  O   O12       1.0  0.45972  0.13420  0.51210  1.0000
  O   O13       1.0  0.04028  0.63420  0.51210  1.0000
  O   O14       1.0  0.45972  0.86580  0.01210  1.0000
  O   O15       1.0  0.95972  0.63420  0.98790  1.0000
  O   O16       1.0  0.54028  0.86580  0.48790  1.0000
  O   O17       1.0  0.94868  0.52110  0.32710  1.0000
  O   O18       1.0  0.55132  0.97890  0.82710  1.0000
  O   O19       1.0  0.05132  0.52110  0.17290  1.0000
  O   O20       1.0  0.44868  0.97890  0.67290  1.0000
  O   O21       1.0  0.05132  0.47890  0.67290  1.0000
  O   O22       1.0  0.44868  0.02110  0.17290  1.0000
  O   O23       1.0  0.94868  0.47890  0.82710  1.0000
  O   O24       1.0  0.55132  0.02110  0.32710  1.0000
  O   O25       1.0  0.55400  0.25190  0.46720  1.0000
  O   O26       1.0  0.94600  0.24810  0.96720  1.0000
  O   O27       1.0  0.44600  0.25190  0.03280  1.0000
  O   O28       1.0  0.05400  0.24810  0.53280  1.0000
  O   O29       1.0  0.44600  0.74810  0.53280  1.0000
  O   O30       1.0  0.05400  0.75190  0.03280  1.0000
  O   O31       1.0  0.55400  0.74810  0.96720  1.0000
  O   O32       1.0  0.94600  0.75190  0.46720  1.0000
  C   C1        1.0  0.57605  0.30890  0.35370  1.0000
  C   C2        1.0  0.92395  0.19110  0.85370  1.0000
  C   C3        1.0  0.42395  0.30890  0.14630  1.0000
  C   C4        1.0  0.07605  0.19110  0.64630  1.0000
  C   C5        1.0  0.42395  0.69110  0.64630  1.0000
  C   C6        1.0  0.07605  0.80890  0.14630  1.0000
  C   C7        1.0  0.57605  0.69110  0.85370  1.0000
  C   C8        1.0  0.92395  0.80890  0.35370  1.0000
  C   C9        1.0  0.62743  0.34110  0.38350  1.0000
  C   C10       1.0  0.87257  0.15890  0.88350  1.0000
  C   C11       1.0  0.37257  0.34110  0.11650  1.0000
  C   C12       1.0  0.12743  0.15890  0.61650  1.0000
  C   C13       1.0  0.37257  0.65890  0.61650  1.0000
  C   C14       1.0  0.12743  0.84110  0.11650  1.0000
  C   C15       1.0  0.62743  0.65890  0.88350  1.0000
  C   C16       1.0  0.87257  0.84110  0.38350  1.0000
  C   C17       1.0  0.69944  0.43350  0.28470  1.0000
  C   C18       1.0  0.80056  0.06650  0.78470  1.0000
  C   C19       1.0  0.30056  0.43350  0.21530  1.0000
  C   C20       1.0  0.19944  0.06650  0.71530  1.0000
  C   C21       1.0  0.30056  0.56650  0.71530  1.0000
  C   C22       1.0  0.19944  0.93350  0.21530  1.0000
  C   C23       1.0  0.69944  0.56650  0.78470  1.0000
  C   C24       1.0  0.80056  0.93350  0.28470  1.0000
  H   H1        1.0  0.71432  0.48407  0.20916  1.0000
  H   H2        1.0  0.78568  0.01593  0.70916  1.0000
  H   H3        1.0  0.28568  0.48407  0.29084  1.0000
  H   H4        1.0  0.21432  0.01593  0.79084  1.0000
  H   H5        1.0  0.28568  0.51593  0.79084  1.0000
  H   H6        1.0  0.21432  0.98407  0.29084  1.0000
  H   H7        1.0  0.71432  0.51593  0.70916  1.0000
  H   H8        1.0  0.78568  0.98407  0.20916  1.0000
  C   C25       1.0  0.93347  0.43690  0.41130  1.0000
  C   C26       1.0  0.56653  0.06310  0.91130  1.0000
  C   C27       1.0  0.06653  0.43690  0.08870  1.0000
  C   C28       1.0  0.43347  0.06310  0.58870  1.0000
  C   C29       1.0  0.06653  0.56310  0.58870  1.0000
  C   C30       1.0  0.43347  0.93690  0.08870  1.0000
  C   C31       1.0  0.93347  0.56310  0.91130  1.0000
  C   C32       1.0  0.56653  0.93690  0.41130  1.0000
  C   C33       1.0  0.84990  0.50900  0.35940  1.0000
  C   C34       1.0  0.65010  0.99100  0.85940  1.0000
  C   C35       1.0  0.15010  0.50900  0.14060  1.0000
  C   C36       1.0  0.34990  0.99100  0.64060  1.0000
  C   C37       1.0  0.15010  0.49100  0.64060  1.0000
  C   C38       1.0  0.34990  0.00900  0.14060  1.0000
  C   C39       1.0  0.84990  0.49100  0.85940  1.0000
  C   C40       1.0  0.65010  0.00900  0.35940  1.0000
  H   H9        1.0  0.86330  0.57674  0.31886  1.0000
  H   H10       1.0  0.63670  0.92326  0.81886  1.0000
  H   H11       1.0  0.13670  0.57674  0.18114  1.0000
  H   H12       1.0  0.36330  0.92326  0.68114  1.0000
  H   H13       1.0  0.13670  0.42326  0.68114  1.0000
  H   H14       1.0  0.36330  0.07674  0.18114  1.0000
  H   H15       1.0  0.86330  0.42326  0.81886  1.0000
  H   H16       1.0  0.63670  0.07674  0.31886  1.0000
  C   C41       1.0  0.77941  0.39420  0.41790  1.0000
  C   C42       1.0  0.72059  0.10580  0.91790  1.0000
  C   C43       1.0  0.22059  0.39420  0.08210  1.0000
  C   C44       1.0  0.27941  0.10580  0.58210  1.0000
  C   C45       1.0  0.22059  0.60580  0.58210  1.0000
  C   C46       1.0  0.27941  0.89420  0.08210  1.0000
  C   C47       1.0  0.77941  0.60580  0.91790  1.0000
  C   C48       1.0  0.72059  0.89420  0.41790  1.0000
  C   C49       1.0  0.87985  0.42170  0.41690  1.0000
  C   C50       1.0  0.62015  0.07830  0.91690  1.0000
  C   C51       1.0  0.12015  0.42170  0.08310  1.0000
  C   C52       1.0  0.37985  0.07830  0.58310  1.0000
  C   C53       1.0  0.12015  0.57830  0.58310  1.0000
  C   C54       1.0  0.37985  0.92170  0.08310  1.0000
  C   C55       1.0  0.87985  0.57830  0.91690  1.0000
  C   C56       1.0  0.62015  0.92170  0.41690  1.0000
  C   C57       1.0  0.65081  0.41440  0.27080  1.0000
  C   C58       1.0  0.84919  0.08560  0.77080  1.0000
  C   C59       1.0  0.34919  0.41440  0.22920  1.0000
  C   C60       1.0  0.15081  0.08560  0.72920  1.0000
  C   C61       1.0  0.34919  0.58560  0.72920  1.0000
  C   C62       1.0  0.15081  0.91440  0.22920  1.0000
  C   C63       1.0  0.65081  0.58560  0.77080  1.0000
  C   C64       1.0  0.84919  0.91440  0.27080  1.0000
  H   H17       1.0  0.63340  0.45106  0.18465  1.0000
  H   H18       1.0  0.86660  0.04894  0.68465  1.0000
  H   H19       1.0  0.36660  0.45106  0.31535  1.0000
  H   H20       1.0  0.13340  0.04894  0.81535  1.0000
  H   H21       1.0  0.36660  0.54894  0.81535  1.0000
  H   H22       1.0  0.13340  0.95106  0.31535  1.0000
  H   H23       1.0  0.63340  0.54894  0.68465  1.0000
  H   H24       1.0  0.86660  0.95106  0.18465  1.0000
  C   C65       1.0  0.70261  0.30750  0.52760  1.0000
  C   C66       1.0  0.79739  0.19250  0.02760  1.0000
  C   C67       1.0  0.29739  0.30750  0.97240  1.0000
  C   C68       1.0  0.20261  0.19250  0.47240  1.0000
  C   C69       1.0  0.29739  0.69250  0.47240  1.0000
  C   C70       1.0  0.20261  0.80750  0.97240  1.0000
  C   C71       1.0  0.70261  0.69250  0.02760  1.0000
  C   C72       1.0  0.79739  0.80750  0.52760  1.0000
  H   H25       1.0  0.71964  0.27269  0.61647  1.0000
  H   H26       1.0  0.78036  0.22731  0.11647  1.0000
  H   H27       1.0  0.28036  0.27269  0.88353  1.0000
  H   H28       1.0  0.21964  0.22731  0.38353  1.0000
  H   H29       1.0  0.28036  0.72731  0.38353  1.0000
  H   H30       1.0  0.21964  0.77269  0.88353  1.0000
  H   H31       1.0  0.71964  0.72731  0.11647  1.0000
  H   H32       1.0  0.78036  0.77269  0.61647  1.0000
  C   C73       1.0  0.80060  0.49640  0.36170  1.0000
  C   C74       1.0  0.69940  0.00360  0.86170  1.0000
  C   C75       1.0  0.19940  0.49640  0.13830  1.0000
  C   C76       1.0  0.30060  0.00360  0.63830  1.0000
  C   C77       1.0  0.19940  0.50360  0.63830  1.0000
  C   C78       1.0  0.30060  0.99640  0.13830  1.0000
  C   C79       1.0  0.80060  0.50360  0.86170  1.0000
  C   C80       1.0  0.69940  0.99640  0.36170  1.0000
  H   H33       1.0  0.78116  0.55649  0.32545  1.0000
  H   H34       1.0  0.71884  0.94351  0.82545  1.0000
  H   H35       1.0  0.21884  0.55649  0.17455  1.0000
  H   H36       1.0  0.28116  0.94351  0.67455  1.0000
  H   H37       1.0  0.21884  0.44351  0.67455  1.0000
  H   H38       1.0  0.28116  0.05649  0.17455  1.0000
  H   H39       1.0  0.78116  0.44351  0.82545  1.0000
  H   H40       1.0  0.71884  0.05649  0.32545  1.0000
  C   C81       1.0  0.85935  0.32200  0.47700  1.0000
  C   C82       1.0  0.64065  0.17800  0.97700  1.0000
  C   C83       1.0  0.14065  0.32200  0.02300  1.0000
  C   C84       1.0  0.35935  0.17800  0.52300  1.0000
  C   C85       1.0  0.14065  0.67800  0.52300  1.0000
  C   C86       1.0  0.35935  0.82200  0.02300  1.0000
  C   C87       1.0  0.85935  0.67800  0.97700  1.0000
  C   C88       1.0  0.64065  0.82200  0.47700  1.0000
  H   H41       1.0  0.87893  0.26375  0.51856  1.0000
  H   H42       1.0  0.62107  0.23625  0.01856  1.0000
  H   H43       1.0  0.12107  0.26375  0.98144  1.0000
  H   H44       1.0  0.37893  0.23625  0.48144  1.0000
  H   H45       1.0  0.12107  0.73625  0.48144  1.0000
  H   H46       1.0  0.37893  0.76375  0.98144  1.0000
  H   H47       1.0  0.87893  0.73625  0.01856  1.0000
  H   H48       1.0  0.62107  0.76375  0.51856  1.0000
  C   C89       1.0  0.65388  0.28900  0.51310  1.0000
  C   C90       1.0  0.84612  0.21100  0.01310  1.0000
  C   C91       1.0  0.34612  0.28900  0.98690  1.0000
  C   C92       1.0  0.15388  0.21100  0.48690  1.0000
  C   C93       1.0  0.34612  0.71100  0.48690  1.0000
  C   C94       1.0  0.15388  0.78900  0.98690  1.0000
  C   C95       1.0  0.65388  0.71100  0.01310  1.0000
  C   C96       1.0  0.84612  0.78900  0.51310  1.0000
  H   H49       1.0  0.63852  0.24093  0.59119  1.0000
  H   H50       1.0  0.86148  0.25907  0.09119  1.0000
  H   H51       1.0  0.36148  0.24093  0.90881  1.0000
  H   H52       1.0  0.13852  0.25907  0.40881  1.0000
  H   H53       1.0  0.36148  0.75907  0.40881  1.0000
  H   H54       1.0  0.13852  0.74093  0.90881  1.0000
  H   H55       1.0  0.63852  0.75907  0.09119  1.0000
  H   H56       1.0  0.86148  0.74093  0.59119  1.0000
  C   C97       1.0  0.72688  0.37810  0.41040  1.0000
  C   C98       1.0  0.77312  0.12190  0.91040  1.0000
  C   C99       1.0  0.27312  0.37810  0.08960  1.0000
  C   C100      1.0  0.22688  0.12190  0.58960  1.0000
  C   C101      1.0  0.27312  0.62190  0.58960  1.0000
  C   C102      1.0  0.22688  0.87810  0.08960  1.0000
  C   C103      1.0  0.72688  0.62190  0.91040  1.0000
  C   C104      1.0  0.77312  0.87810  0.41040  1.0000
  C   C105      1.0  0.80997  0.30770  0.47610  1.0000
  C   C106      1.0  0.69003  0.19230  0.97610  1.0000
  C   C107      1.0  0.19003  0.30770  0.02390  1.0000
  C   C108      1.0  0.30997  0.19230  0.52390  1.0000
  C   C109      1.0  0.19003  0.69230  0.52390  1.0000
  C   C110      1.0  0.30997  0.80770  0.02390  1.0000
  C   C111      1.0  0.80997  0.69230  0.97610  1.0000
  C   C112      1.0  0.69003  0.80770  0.47610  1.0000
  H   H57       1.0  0.79689  0.23919  0.51499  1.0000
  H   H58       1.0  0.70311  0.26081  0.01499  1.0000
  H   H59       1.0  0.20311  0.23919  0.98501  1.0000
  H   H60       1.0  0.29689  0.26081  0.48501  1.0000
  H   H61       1.0  0.20311  0.76081  0.48501  1.0000
  H   H62       1.0  0.29689  0.73919  0.98501  1.0000
  H   H63       1.0  0.79689  0.76081  0.01499  1.0000
  H   H64       1.0  0.70311  0.73919  0.51499  1.0000
