data_image0
_chemical_formula_structural       Gd4O32C112H64
_chemical_formula_sum              "Gd4 O32 C112 H64"
_cell_length_a       27.8068
_cell_length_b       11.7096
_cell_length_c       7.7451
_cell_angle_alpha    90
_cell_angle_beta     90
_cell_angle_gamma    90

_space_group_name_H-M_alt    "P 1"
_space_group_IT_number       1

loop_
  _space_group_symop_operation_xyz
  'x, y, z'

loop_
  _atom_site_type_symbol
  _atom_site_label
  _atom_site_symmetry_multiplicity
  _atom_site_fract_x
  _atom_site_fract_y
  _atom_site_fract_z
  _atom_site_occupancy
  Gd  Gd1       1.0  0.00000  0.66520  0.25000  1.0000
  Gd  Gd2       1.0  0.50000  0.83480  0.75000  1.0000
  Gd  Gd3       1.0  0.00000  0.33480  0.75000  1.0000
  Gd  Gd4       1.0  0.50000  0.16520  0.25000  1.0000
  O   O1        1.0  0.94904  0.52113  0.32680  1.0000
  O   O2        1.0  0.55096  0.97887  0.82680  1.0000
  O   O3        1.0  0.05096  0.52113  0.17320  1.0000
  O   O4        1.0  0.44904  0.97887  0.67320  1.0000
  O   O5        1.0  0.05096  0.47887  0.67320  1.0000
  O   O6        1.0  0.44904  0.02113  0.17320  1.0000
  O   O7        1.0  0.94904  0.47887  0.82680  1.0000
  O   O8        1.0  0.55096  0.02113  0.32680  1.0000
  O   O9        1.0  0.55619  0.33094  0.21040  1.0000
  O   O10       1.0  0.94381  0.16906  0.71040  1.0000
  O   O11       1.0  0.44381  0.33094  0.28960  1.0000
  O   O12       1.0  0.05619  0.16906  0.78960  1.0000
  O   O13       1.0  0.44381  0.66906  0.78960  1.0000
  O   O14       1.0  0.05619  0.83094  0.28960  1.0000
  O   O15       1.0  0.55619  0.66906  0.71040  1.0000
  O   O16       1.0  0.94381  0.83094  0.21040  1.0000
  O   O17       1.0  0.95975  0.36635  0.48900  1.0000
  O   O18       1.0  0.54025  0.13365  0.98900  1.0000
  O   O19       1.0  0.04025  0.36635  0.01100  1.0000
  O   O20       1.0  0.45975  0.13365  0.51100  1.0000
  O   O21       1.0  0.04025  0.63365  0.51100  1.0000
  O   O22       1.0  0.45975  0.86635  0.01100  1.0000
  O   O23       1.0  0.95975  0.63365  0.98900  1.0000
  O   O24       1.0  0.54025  0.86635  0.48900  1.0000
  O   O25       1.0  0.55368  0.25087  0.46650  1.0000
  O   O26       1.0  0.94632  0.24913  0.96650  1.0000
  O   O27       1.0  0.44632  0.25087  0.03350  1.0000
  O   O28       1.0  0.05368  0.24913  0.53350  1.0000
  O   O29       1.0  0.44632  0.74913  0.53350  1.0000
  O   O30       1.0  0.05368  0.75087  0.03350  1.0000
  O   O31       1.0  0.55368  0.74913  0.96650  1.0000
  O   O32       1.0  0.94632  0.75087  0.46650  1.0000
  C   C1        1.0  0.57561  0.30890  0.35340  1.0000
  C   C2        1.0  0.92439  0.19110  0.85340  1.0000
  C   C3        1.0  0.42439  0.30890  0.14660  1.0000
  C   C4        1.0  0.07561  0.19110  0.64660  1.0000
  C   C5        1.0  0.42439  0.69110  0.64660  1.0000
  C   C6        1.0  0.07561  0.80890  0.14660  1.0000
  C   C7        1.0  0.57561  0.69110  0.85340  1.0000
  C   C8        1.0  0.92439  0.80890  0.35340  1.0000
  C   C9        1.0  0.93378  0.43750  0.41260  1.0000
  C   C10       1.0  0.56622  0.06250  0.91260  1.0000
  C   C11       1.0  0.06622  0.43750  0.08740  1.0000
  C   C12       1.0  0.43378  0.06250  0.58740  1.0000
  C   C13       1.0  0.06622  0.56250  0.58740  1.0000
  C   C14       1.0  0.43378  0.93750  0.08740  1.0000
  C   C15       1.0  0.93378  0.56250  0.91260  1.0000
  C   C16       1.0  0.56622  0.93750  0.41260  1.0000
  C   C17       1.0  0.62704  0.34150  0.38240  1.0000
  C   C18       1.0  0.87296  0.15850  0.88240  1.0000
  C   C19       1.0  0.37296  0.34150  0.11760  1.0000
  C   C20       1.0  0.12704  0.15850  0.61760  1.0000
  C   C21       1.0  0.37296  0.65850  0.61760  1.0000
  C   C22       1.0  0.12704  0.84150  0.11760  1.0000
  C   C23       1.0  0.62704  0.65850  0.88240  1.0000
  C   C24       1.0  0.87296  0.84150  0.38240  1.0000
  C   C25       1.0  0.65044  0.41470  0.26940  1.0000
  C   C26       1.0  0.84956  0.08530  0.76940  1.0000
  C   C27       1.0  0.34956  0.41470  0.23060  1.0000
  C   C28       1.0  0.15044  0.08530  0.73060  1.0000
  C   C29       1.0  0.34956  0.58530  0.73060  1.0000
  C   C30       1.0  0.15044  0.91470  0.23060  1.0000
  C   C31       1.0  0.65044  0.58530  0.76940  1.0000
  C   C32       1.0  0.84956  0.91470  0.26940  1.0000
  C   C33       1.0  0.72654  0.37860  0.41040  1.0000
  C   C34       1.0  0.77346  0.12140  0.91040  1.0000
  C   C35       1.0  0.27346  0.37860  0.08960  1.0000
  C   C36       1.0  0.22654  0.12140  0.58960  1.0000
  C   C37       1.0  0.27346  0.62140  0.58960  1.0000
  C   C38       1.0  0.22654  0.87860  0.08960  1.0000
  C   C39       1.0  0.72654  0.62140  0.91040  1.0000
  C   C40       1.0  0.77346  0.87860  0.41040  1.0000
  C   C41       1.0  0.87988  0.42200  0.41760  1.0000
  C   C42       1.0  0.62012  0.07800  0.91760  1.0000
  C   C43       1.0  0.12012  0.42200  0.08240  1.0000
  C   C44       1.0  0.37988  0.07800  0.58240  1.0000
  C   C45       1.0  0.12012  0.57800  0.58240  1.0000
  C   C46       1.0  0.37988  0.92200  0.08240  1.0000
  C   C47       1.0  0.87988  0.57800  0.91760  1.0000
  C   C48       1.0  0.62012  0.92200  0.41760  1.0000
  C   C49       1.0  0.84996  0.50960  0.36020  1.0000
  C   C50       1.0  0.65004  0.99040  0.86020  1.0000
  C   C51       1.0  0.15004  0.50960  0.13980  1.0000
  C   C52       1.0  0.34996  0.99040  0.63980  1.0000
  C   C53       1.0  0.15004  0.49040  0.63980  1.0000
  C   C54       1.0  0.34996  0.00960  0.13980  1.0000
  C   C55       1.0  0.84996  0.49040  0.86020  1.0000
  C   C56       1.0  0.65004  0.00960  0.36020  1.0000
  C   C57       1.0  0.77949  0.39460  0.41850  1.0000
  C   C58       1.0  0.72051  0.10540  0.91850  1.0000
  C   C59       1.0  0.22051  0.39460  0.08150  1.0000
  C   C60       1.0  0.27949  0.10540  0.58150  1.0000
  C   C61       1.0  0.22051  0.60540  0.58150  1.0000
  C   C62       1.0  0.27949  0.89460  0.08150  1.0000
  C   C63       1.0  0.77949  0.60540  0.91850  1.0000
  C   C64       1.0  0.72051  0.89460  0.41850  1.0000
  C   C65       1.0  0.80060  0.49630  0.36230  1.0000
  C   C66       1.0  0.69940  0.00370  0.86230  1.0000
  C   C67       1.0  0.19940  0.49630  0.13770  1.0000
  C   C68       1.0  0.30060  0.00370  0.63770  1.0000
  C   C69       1.0  0.19940  0.50370  0.63770  1.0000
  C   C70       1.0  0.30060  0.99630  0.13770  1.0000
  C   C71       1.0  0.80060  0.50370  0.86230  1.0000
  C   C72       1.0  0.69940  0.99630  0.36230  1.0000
  C   C73       1.0  0.85940  0.32120  0.47750  1.0000
  C   C74       1.0  0.64060  0.17880  0.97750  1.0000
  C   C75       1.0  0.14060  0.32120  0.02250  1.0000
  C   C76       1.0  0.35940  0.17880  0.52250  1.0000
  C   C77       1.0  0.14060  0.67880  0.52250  1.0000
  C   C78       1.0  0.35940  0.82120  0.02250  1.0000
  C   C79       1.0  0.85940  0.67880  0.97750  1.0000
  C   C80       1.0  0.64060  0.82120  0.47750  1.0000
  C   C81       1.0  0.70248  0.30720  0.52690  1.0000
  C   C82       1.0  0.79752  0.19280  0.02690  1.0000
  C   C83       1.0  0.29752  0.30720  0.97310  1.0000
  C   C84       1.0  0.20248  0.19280  0.47310  1.0000
  C   C85       1.0  0.29752  0.69280  0.47310  1.0000
  C   C86       1.0  0.20248  0.80720  0.97310  1.0000
  C   C87       1.0  0.70248  0.69280  0.02690  1.0000
  C   C88       1.0  0.79752  0.80720  0.52690  1.0000
  C   C89       1.0  0.69935  0.43360  0.28400  1.0000
  C   C90       1.0  0.80065  0.06640  0.78400  1.0000
  C   C91       1.0  0.30065  0.43360  0.21600  1.0000
  C   C92       1.0  0.19935  0.06640  0.71600  1.0000
  C   C93       1.0  0.30065  0.56640  0.71600  1.0000
  C   C94       1.0  0.19935  0.93360  0.21600  1.0000
  C   C95       1.0  0.69935  0.56640  0.78400  1.0000
  C   C96       1.0  0.80065  0.93360  0.28400  1.0000
  C   C97       1.0  0.80974  0.30730  0.47640  1.0000
  C   C98       1.0  0.69026  0.19270  0.97640  1.0000
  C   C99       1.0  0.19026  0.30730  0.02360  1.0000
  C   C100      1.0  0.30974  0.19270  0.52360  1.0000
  C   C101      1.0  0.19026  0.69270  0.52360  1.0000
  C   C102      1.0  0.30974  0.80730  0.02360  1.0000
  C   C103      1.0  0.80974  0.69270  0.97640  1.0000
  C   C104      1.0  0.69026  0.80730  0.47640  1.0000
  C   C105      1.0  0.65325  0.28920  0.51400  1.0000
  C   C106      1.0  0.84675  0.21080  0.01400  1.0000
  C   C107      1.0  0.34675  0.28920  0.98600  1.0000
  C   C108      1.0  0.15325  0.21080  0.48600  1.0000
  C   C109      1.0  0.34675  0.71080  0.48600  1.0000
  C   C110      1.0  0.15325  0.78920  0.98600  1.0000
  C   C111      1.0  0.65325  0.71080  0.01400  1.0000
  C   C112      1.0  0.84675  0.78920  0.51400  1.0000
  H   H1        1.0  0.87930  0.26200  0.51600  1.0000
  H   H2        1.0  0.62070  0.23800  0.01600  1.0000
  H   H3        1.0  0.12070  0.26200  0.98400  1.0000
  H   H4        1.0  0.37930  0.23800  0.48400  1.0000
  H   H5        1.0  0.12070  0.73800  0.48400  1.0000
  H   H6        1.0  0.37930  0.76200  0.98400  1.0000
  H   H7        1.0  0.87930  0.73800  0.01600  1.0000
  H   H8        1.0  0.62070  0.76200  0.51600  1.0000
  H   H9        1.0  0.78200  0.55700  0.32600  1.0000
  H   H10       1.0  0.71800  0.94300  0.82600  1.0000
  H   H11       1.0  0.21800  0.55700  0.17400  1.0000
  H   H12       1.0  0.28200  0.94300  0.67400  1.0000
  H   H13       1.0  0.21800  0.44300  0.67400  1.0000
  H   H14       1.0  0.28200  0.05700  0.17400  1.0000
  H   H15       1.0  0.78200  0.44300  0.82600  1.0000
  H   H16       1.0  0.71800  0.05700  0.32600  1.0000
  H   H17       1.0  0.79740  0.23600  0.51900  1.0000
  H   H18       1.0  0.70260  0.26400  0.01900  1.0000
  H   H19       1.0  0.20260  0.23600  0.98100  1.0000
  H   H20       1.0  0.29740  0.26400  0.48100  1.0000
  H   H21       1.0  0.20260  0.76400  0.48100  1.0000
  H   H22       1.0  0.29740  0.73600  0.98100  1.0000
  H   H23       1.0  0.79740  0.76400  0.01900  1.0000
  H   H24       1.0  0.70260  0.73600  0.51900  1.0000
  H   H25       1.0  0.63370  0.44700  0.19100  1.0000
  H   H26       1.0  0.86630  0.05300  0.69100  1.0000
  H   H27       1.0  0.36630  0.44700  0.30900  1.0000
  H   H28       1.0  0.13370  0.05300  0.80900  1.0000
  H   H29       1.0  0.36630  0.55300  0.80900  1.0000
  H   H30       1.0  0.13370  0.94700  0.30900  1.0000
  H   H31       1.0  0.63370  0.55300  0.69100  1.0000
  H   H32       1.0  0.86630  0.94700  0.19100  1.0000
  H   H33       1.0  0.71480  0.48100  0.20800  1.0000
  H   H34       1.0  0.78520  0.01900  0.70800  1.0000
  H   H35       1.0  0.28520  0.48100  0.29200  1.0000
  H   H36       1.0  0.21480  0.01900  0.79200  1.0000
  H   H37       1.0  0.28520  0.51900  0.79200  1.0000
  H   H38       1.0  0.21480  0.98100  0.29200  1.0000
  H   H39       1.0  0.71480  0.51900  0.70800  1.0000
  H   H40       1.0  0.78520  0.98100  0.20800  1.0000
  H   H41       1.0  0.86310  0.57300  0.32000  1.0000
  H   H42       1.0  0.63690  0.92700  0.82000  1.0000
  H   H43       1.0  0.13690  0.57300  0.18000  1.0000
  H   H44       1.0  0.36310  0.92700  0.68000  1.0000
  H   H45       1.0  0.13690  0.42700  0.68000  1.0000
  H   H46       1.0  0.36310  0.07300  0.18000  1.0000
  H   H47       1.0  0.86310  0.42700  0.82000  1.0000
  H   H48       1.0  0.63690  0.07300  0.32000  1.0000
  H   H49       1.0  0.63750  0.23900  0.59000  1.0000
  H   H50       1.0  0.86250  0.26100  0.09000  1.0000
  H   H51       1.0  0.36250  0.23900  0.91000  1.0000
  H   H52       1.0  0.13750  0.26100  0.41000  1.0000
  H   H53       1.0  0.36250  0.76100  0.41000  1.0000
  H   H54       1.0  0.13750  0.73900  0.91000  1.0000
  H   H55       1.0  0.63750  0.76100  0.09000  1.0000
  H   H56       1.0  0.86250  0.73900  0.59000  1.0000
  H   H57       1.0  0.71880  0.27100  0.61600  1.0000
  H   H58       1.0  0.78120  0.22900  0.11600  1.0000
  H   H59       1.0  0.28120  0.27100  0.88400  1.0000
  H   H60       1.0  0.21880  0.22900  0.38400  1.0000
  H   H61       1.0  0.28120  0.72900  0.38400  1.0000
  H   H62       1.0  0.21880  0.77100  0.88400  1.0000
  H   H63       1.0  0.71880  0.72900  0.11600  1.0000
  H   H64       1.0  0.78120  0.77100  0.61600  1.0000
