data_image0
_chemical_formula_structural       Cu4O24N4O4N4O4C32H4C8H4C4H4C4H4C4H4C4H4
_chemical_formula_sum              "Cu4 O32 N8 C56 H24"
_cell_length_a       6.7203
_cell_length_b       13.4427
_cell_length_c       26.3815
_cell_angle_alpha    90
_cell_angle_beta     94.088
_cell_angle_gamma    90

_space_group_name_H-M_alt    "P 1"
_space_group_IT_number       1

loop_
  _space_group_symop_operation_xyz
  'x, y, z'

loop_
  _atom_site_type_symbol
  _atom_site_label
  _atom_site_symmetry_multiplicity
  _atom_site_fract_x
  _atom_site_fract_y
  _atom_site_fract_z
  _atom_site_occupancy
  Cu  Cu1       1.0  0.65271  0.17489  0.32372  1.0000
  Cu  Cu2       1.0  0.34729  0.67489  0.17628  1.0000
  Cu  Cu3       1.0  0.34729  0.82511  0.67627  1.0000
  Cu  Cu4       1.0  0.65271  0.32511  0.82373  1.0000
  O   O1        1.0  0.49240  0.29200  0.30466  1.0000
  O   O2        1.0  0.50760  0.79200  0.19534  1.0000
  O   O3        1.0  0.50760  0.70800  0.69534  1.0000
  O   O4        1.0  0.49240  0.20800  0.80466  1.0000
  O   O5        1.0  0.81800  0.05880  0.34651  1.0000
  O   O6        1.0  0.18200  0.55880  0.15349  1.0000
  O   O7        1.0  0.18200  0.94120  0.65349  1.0000
  O   O8        1.0  0.81800  0.44120  0.84651  1.0000
  O   O9        1.0  0.09830  0.01970  0.39256  1.0000
  O   O10       1.0  0.90170  0.51970  0.10744  1.0000
  O   O11       1.0  0.90170  0.98030  0.60744  1.0000
  O   O12       1.0  0.09830  0.48030  0.89256  1.0000
  O   O13       1.0  0.32920  0.14990  0.47689  1.0000
  O   O14       1.0  0.67080  0.64990  0.02311  1.0000
  O   O15       1.0  0.67080  0.85010  0.52311  1.0000
  O   O16       1.0  0.32920  0.35010  0.97689  1.0000
  O   O17       1.0  0.98670  0.22710  0.17621  1.0000
  O   O18       1.0  0.01330  0.72710  0.32379  1.0000
  O   O19       1.0  0.01330  0.77290  0.82379  1.0000
  O   O20       1.0  0.98670  0.27290  0.67621  1.0000
  O   O21       1.0  0.50950  0.14350  0.40927  1.0000
  O   O22       1.0  0.49050  0.64350  0.09073  1.0000
  O   O23       1.0  0.49050  0.85650  0.59073  1.0000
  O   O24       1.0  0.50950  0.35650  0.90927  1.0000
  N   N1        1.0  0.42410  0.10210  0.29016  1.0000
  N   N2        1.0  0.57590  0.60210  0.20984  1.0000
  N   N3        1.0  0.57590  0.89790  0.70984  1.0000
  N   N4        1.0  0.42410  0.39790  0.79016  1.0000
  O   O25       1.0  0.21280  0.33680  0.26062  1.0000
  O   O26       1.0  0.78720  0.83680  0.23938  1.0000
  O   O27       1.0  0.78720  0.66320  0.73938  1.0000
  O   O28       1.0  0.21280  0.16320  0.76062  1.0000
  N   N5        1.0  0.88090  0.24920  0.35632  1.0000
  N   N6        1.0  0.11910  0.74920  0.14368  1.0000
  N   N7        1.0  0.11910  0.75080  0.64368  1.0000
  N   N8        1.0  0.88090  0.25080  0.85632  1.0000
  O   O29       1.0  0.78030  0.19530  0.23635  1.0000
  O   O30       1.0  0.21970  0.69530  0.26365  1.0000
  O   O31       1.0  0.21970  0.80470  0.76365  1.0000
  O   O32       1.0  0.78030  0.30470  0.73635  1.0000
  C   C1        1.0  0.10620  0.12750  0.24540  1.0000
  C   C2        1.0  0.89380  0.62750  0.25460  1.0000
  C   C3        1.0  0.89380  0.87250  0.75460  1.0000
  C   C4        1.0  0.10620  0.37250  0.74540  1.0000
  C   C5        1.0  0.94500  0.19030  0.21785  1.0000
  C   C6        1.0  0.05500  0.69030  0.28215  1.0000
  C   C7        1.0  0.05500  0.80970  0.78215  1.0000
  C   C8        1.0  0.94500  0.30970  0.71785  1.0000
  C   C9        1.0  0.02470  0.18990  0.37829  1.0000
  C   C10       1.0  0.97530  0.68990  0.12171  1.0000
  C   C11       1.0  0.97530  0.81010  0.62171  1.0000
  C   C12       1.0  0.02470  0.31010  0.87829  1.0000
  C   C13       1.0  0.32940  0.27300  0.27778  1.0000
  C   C14       1.0  0.67060  0.77300  0.22222  1.0000
  C   C15       1.0  0.67060  0.72700  0.72222  1.0000
  C   C16       1.0  0.32940  0.22700  0.77778  1.0000
  C   C17       1.0  0.98060  0.08050  0.37261  1.0000
  C   C18       1.0  0.01940  0.58050  0.12739  1.0000
  C   C19       1.0  0.01940  0.91950  0.62739  1.0000
  C   C20       1.0  0.98060  0.41950  0.87261  1.0000
  C   C21       1.0  0.19920  0.22890  0.40190  1.0000
  C   C22       1.0  0.80080  0.72890  0.09810  1.0000
  C   C23       1.0  0.80080  0.77110  0.59810  1.0000
  C   C24       1.0  0.19920  0.27110  0.90190  1.0000
  C   C25       1.0  0.28230  0.16460  0.26951  1.0000
  C   C26       1.0  0.71770  0.66460  0.23049  1.0000
  C   C27       1.0  0.71770  0.83540  0.73049  1.0000
  C   C28       1.0  0.28230  0.33540  0.76951  1.0000
  C   C29       1.0  0.07820  0.02450  0.24543  1.0000
  C   C30       1.0  0.92180  0.52450  0.25457  1.0000
  C   C31       1.0  0.92180  0.97550  0.75457  1.0000
  C   C32       1.0  0.07820  0.47550  0.74543  1.0000
  H   H1        1.0  0.95820  0.99800  0.23180  1.0000
  H   H2        1.0  0.04180  0.49800  0.26820  1.0000
  H   H3        1.0  0.04180  0.00200  0.76820  1.0000
  H   H4        1.0  0.95820  0.50200  0.73180  1.0000
  C   C33       1.0  0.35730  0.16680  0.43109  1.0000
  C   C34       1.0  0.64270  0.66680  0.06891  1.0000
  C   C35       1.0  0.64270  0.83320  0.56891  1.0000
  C   C36       1.0  0.35730  0.33320  0.93109  1.0000
  C   C37       1.0  0.39880  0.00440  0.28711  1.0000
  C   C38       1.0  0.60120  0.50440  0.21289  1.0000
  C   C39       1.0  0.60120  0.99560  0.71289  1.0000
  C   C40       1.0  0.39880  0.49560  0.78711  1.0000
  H   H5        1.0  0.50090  0.96300  0.30010  1.0000
  H   H6        1.0  0.49910  0.46300  0.19990  1.0000
  H   H7        1.0  0.49910  0.03700  0.69990  1.0000
  H   H8        1.0  0.50090  0.53700  0.80010  1.0000
  C   C41       1.0  0.90350  0.34680  0.35739  1.0000
  C   C42       1.0  0.09650  0.84680  0.14261  1.0000
  C   C43       1.0  0.09650  0.65320  0.64261  1.0000
  C   C44       1.0  0.90350  0.15320  0.85739  1.0000
  H   H9        1.0  0.80080  0.38680  0.34340  1.0000
  H   H10       1.0  0.19920  0.88680  0.15660  1.0000
  H   H11       1.0  0.19920  0.61320  0.65660  1.0000
  H   H12       1.0  0.80080  0.11320  0.84340  1.0000
  C   C45       1.0  0.22550  0.96190  0.26527  1.0000
  C   C46       1.0  0.77450  0.46190  0.23473  1.0000
  C   C47       1.0  0.77450  0.03810  0.73473  1.0000
  C   C48       1.0  0.22550  0.53810  0.76527  1.0000
  H   H13       1.0  0.20930  0.89320  0.26410  1.0000
  H   H14       1.0  0.79070  0.39320  0.23590  1.0000
  H   H15       1.0  0.79070  0.10680  0.73590  1.0000
  H   H16       1.0  0.20930  0.60680  0.76410  1.0000
  C   C49       1.0  0.07690  0.39170  0.37886  1.0000
  C   C50       1.0  0.92310  0.89170  0.12114  1.0000
  C   C51       1.0  0.92310  0.60830  0.62114  1.0000
  C   C52       1.0  0.07690  0.10830  0.87886  1.0000
  H   H17       1.0  0.09200  0.46050  0.37860  1.0000
  H   H18       1.0  0.90800  0.96050  0.12140  1.0000
  H   H19       1.0  0.90800  0.53950  0.62140  1.0000
  H   H20       1.0  0.09200  0.03950  0.87860  1.0000
  C   C53       1.0  0.22490  0.33110  0.40042  1.0000
  C   C54       1.0  0.77510  0.83110  0.09958  1.0000
  C   C55       1.0  0.77510  0.66890  0.59958  1.0000
  C   C56       1.0  0.22490  0.16890  0.90042  1.0000
  H   H21       1.0  0.34340  0.35910  0.41410  1.0000
  H   H22       1.0  0.65660  0.85910  0.08590  1.0000
  H   H23       1.0  0.65660  0.64090  0.58590  1.0000
  H   H24       1.0  0.34340  0.14090  0.91410  1.0000
