data_image0
_chemical_formula_structural       Cu4O20N8O12C32H4C8H4C4H4C4H4C4H4C4H4
_chemical_formula_sum              "Cu4 O32 N8 C56 H24"
_cell_length_a       6.59221
_cell_length_b       17.2675
_cell_length_c       19.2848
_cell_angle_alpha    90
_cell_angle_beta     98.782
_cell_angle_gamma    90

_space_group_name_H-M_alt    "P 1"
_space_group_IT_number       1

loop_
  _space_group_symop_operation_xyz
  'x, y, z'

loop_
  _atom_site_type_symbol
  _atom_site_label
  _atom_site_symmetry_multiplicity
  _atom_site_fract_x
  _atom_site_fract_y
  _atom_site_fract_z
  _atom_site_occupancy
  Cu  Cu1       1.0  0.83000  0.75167  0.29392  1.0000
  Cu  Cu2       1.0  0.17000  0.25167  0.20608  1.0000
  Cu  Cu3       1.0  0.17000  0.24833  0.70608  1.0000
  Cu  Cu4       1.0  0.83000  0.74833  0.79392  1.0000
  O   O1        1.0  0.62100  0.77730  0.21340  1.0000
  O   O2        1.0  0.37900  0.27730  0.28660  1.0000
  O   O3        1.0  0.37900  0.22270  0.78660  1.0000
  O   O4        1.0  0.62100  0.72270  0.71340  1.0000
  O   O5        1.0  0.03530  0.72326  0.37479  1.0000
  O   O6        1.0  0.96470  0.22326  0.12521  1.0000
  O   O7        1.0  0.96470  0.27674  0.62521  1.0000
  O   O8        1.0  0.03530  0.77674  0.87479  1.0000
  O   O9        1.0  0.53750  0.92136  0.44049  1.0000
  O   O10       1.0  0.46250  0.42136  0.05951  1.0000
  O   O11       1.0  0.46250  0.07864  0.55951  1.0000
  O   O12       1.0  0.53750  0.57864  0.94049  1.0000
  O   O13       1.0  0.31460  0.73973  0.15921  1.0000
  O   O14       1.0  0.68540  0.23973  0.34079  1.0000
  O   O15       1.0  0.68540  0.26027  0.84079  1.0000
  O   O16       1.0  0.31460  0.76027  0.65921  1.0000
  O   O17       1.0  0.13310  0.57174  0.15974  1.0000
  O   O18       1.0  0.86690  0.07174  0.34026  1.0000
  O   O19       1.0  0.86690  0.42826  0.84026  1.0000
  O   O20       1.0  0.13310  0.92826  0.65974  1.0000
  N   N1        1.0  0.62440  0.67568  0.31345  1.0000
  N   N2        1.0  0.37560  0.17568  0.18655  1.0000
  N   N3        1.0  0.37560  0.32432  0.68655  1.0000
  N   N4        1.0  0.62440  0.82432  0.81345  1.0000
  N   N5        1.0  0.03920  0.82880  0.27806  1.0000
  N   N6        1.0  0.96080  0.32880  0.22194  1.0000
  N   N7        1.0  0.96080  0.17120  0.72194  1.0000
  N   N8        1.0  0.03920  0.67120  0.77806  1.0000
  O   O21       1.0  0.34310  0.75500  0.43003  1.0000
  O   O22       1.0  0.65690  0.25500  0.06997  1.0000
  O   O23       1.0  0.65690  0.24500  0.56997  1.0000
  O   O24       1.0  0.34310  0.74500  0.93003  1.0000
  O   O25       1.0  0.70590  0.84669  0.37463  1.0000
  O   O26       1.0  0.29410  0.34669  0.12537  1.0000
  O   O27       1.0  0.29410  0.15331  0.62537  1.0000
  O   O28       1.0  0.70590  0.65331  0.87463  1.0000
  O   O29       1.0  0.95030  0.64645  0.22169  1.0000
  O   O30       1.0  0.04970  0.14645  0.27831  1.0000
  O   O31       1.0  0.04970  0.35355  0.77831  1.0000
  O   O32       1.0  0.95030  0.85355  0.72169  1.0000
  C   C1        1.0  0.45690  0.67410  0.26412  1.0000
  C   C2        1.0  0.54310  0.17410  0.23588  1.0000
  C   C3        1.0  0.54310  0.32590  0.73588  1.0000
  C   C4        1.0  0.45690  0.82590  0.76412  1.0000
  C   C5        1.0  0.20510  0.82810  0.32887  1.0000
  C   C6        1.0  0.79490  0.32810  0.17113  1.0000
  C   C7        1.0  0.79490  0.17190  0.67113  1.0000
  C   C8        1.0  0.20510  0.67190  0.82887  1.0000
  C   C9        1.0  0.29910  0.62120  0.26672  1.0000
  C   C10       1.0  0.70090  0.12120  0.23328  1.0000
  C   C11       1.0  0.70090  0.37880  0.73328  1.0000
  C   C12       1.0  0.29910  0.87880  0.76672  1.0000
  C   C13       1.0  0.45980  0.73440  0.20688  1.0000
  C   C14       1.0  0.54020  0.23440  0.29312  1.0000
  C   C15       1.0  0.54020  0.26560  0.79312  1.0000
  C   C16       1.0  0.45980  0.76560  0.70688  1.0000
  C   C17       1.0  0.36550  0.88040  0.33009  1.0000
  C   C18       1.0  0.63450  0.38040  0.16991  1.0000
  C   C19       1.0  0.63450  0.11960  0.66991  1.0000
  C   C20       1.0  0.36550  0.61960  0.83009  1.0000
  C   C21       1.0  0.11030  0.61440  0.21098  1.0000
  C   C22       1.0  0.88970  0.11440  0.28902  1.0000
  C   C23       1.0  0.88970  0.38560  0.78902  1.0000
  C   C24       1.0  0.11030  0.88560  0.71098  1.0000
  C   C25       1.0  0.19790  0.76460  0.38265  1.0000
  C   C26       1.0  0.80210  0.26460  0.11735  1.0000
  C   C27       1.0  0.80210  0.23540  0.61735  1.0000
  C   C28       1.0  0.19790  0.73540  0.88265  1.0000
  C   C29       1.0  0.64200  0.62660  0.36738  1.0000
  C   C30       1.0  0.35800  0.12660  0.13262  1.0000
  C   C31       1.0  0.35800  0.37340  0.63262  1.0000
  C   C32       1.0  0.64200  0.87340  0.86738  1.0000
  H   H1        1.0  0.75910  0.62810  0.40110  1.0000
  H   H2        1.0  0.24090  0.12810  0.09890  1.0000
  H   H3        1.0  0.24090  0.37190  0.59890  1.0000
  H   H4        1.0  0.75910  0.87190  0.90110  1.0000
  C   C33       1.0  0.55270  0.88170  0.38696  1.0000
  C   C34       1.0  0.44730  0.38170  0.11304  1.0000
  C   C35       1.0  0.44730  0.11830  0.61304  1.0000
  C   C36       1.0  0.55270  0.61830  0.88696  1.0000
  C   C37       1.0  0.31760  0.57060  0.32337  1.0000
  C   C38       1.0  0.68240  0.07060  0.17663  1.0000
  C   C39       1.0  0.68240  0.42940  0.67663  1.0000
  C   C40       1.0  0.31760  0.92940  0.82337  1.0000
  H   H5        1.0  0.21440  0.53490  0.32710  1.0000
  H   H6        1.0  0.78560  0.03490  0.17290  1.0000
  H   H7        1.0  0.78560  0.46510  0.67290  1.0000
  H   H8        1.0  0.21440  0.96510  0.82710  1.0000
  C   C41       1.0  0.49010  0.57360  0.37414  1.0000
  C   C42       1.0  0.50990  0.07360  0.12586  1.0000
  C   C43       1.0  0.50990  0.42640  0.62586  1.0000
  C   C44       1.0  0.49010  0.92640  0.87414  1.0000
  H   H9        1.0  0.50330  0.54020  0.41240  1.0000
  H   H10       1.0  0.49670  0.04020  0.08760  1.0000
  H   H11       1.0  0.49670  0.45980  0.58760  1.0000
  H   H12       1.0  0.50330  0.95980  0.91240  1.0000
  C   C45       1.0  0.02870  0.88100  0.22659  1.0000
  C   C46       1.0  0.97130  0.38100  0.27341  1.0000
  C   C47       1.0  0.97130  0.11900  0.77341  1.0000
  C   C48       1.0  0.02870  0.61900  0.72659  1.0000
  H   H13       1.0  0.91390  0.88150  0.19190  1.0000
  H   H14       1.0  0.08610  0.38150  0.30810  1.0000
  H   H15       1.0  0.08610  0.11850  0.80810  1.0000
  H   H16       1.0  0.91390  0.61850  0.69190  1.0000
  C   C49       1.0  0.18340  0.93420  0.22340  1.0000
  C   C50       1.0  0.81660  0.43420  0.27660  1.0000
  C   C51       1.0  0.81660  0.06580  0.77660  1.0000
  C   C52       1.0  0.18340  0.56580  0.72340  1.0000
  H   H17       1.0  0.17400  0.96940  0.18660  1.0000
  H   H18       1.0  0.82600  0.46940  0.31340  1.0000
  H   H19       1.0  0.82600  0.03060  0.81340  1.0000
  H   H20       1.0  0.17400  0.53060  0.68660  1.0000
  C   C53       1.0  0.35200  0.93430  0.27550  1.0000
  C   C54       1.0  0.64800  0.43430  0.22450  1.0000
  C   C55       1.0  0.64800  0.06570  0.72450  1.0000
  C   C56       1.0  0.35200  0.56570  0.77550  1.0000
  H   H21       1.0  0.45650  0.97020  0.27430  1.0000
  H   H22       1.0  0.54350  0.47020  0.22570  1.0000
  H   H23       1.0  0.54350  0.02980  0.72570  1.0000
  H   H24       1.0  0.45650  0.52980  0.77430  1.0000
