data_image0
_chemical_formula_structural       Cd8Cl8O32C16H8C16H8C16H8C16H8
_chemical_formula_sum              "Cd8 Cl8 O32 C64 H32"
_cell_length_a       13.0184
_cell_length_b       15.4963
_cell_length_c       15.3062
_cell_angle_alpha    90
_cell_angle_beta     112.832
_cell_angle_gamma    90

_space_group_name_H-M_alt    "P 1"
_space_group_IT_number       1

loop_
  _space_group_symop_operation_xyz
  'x, y, z'

loop_
  _atom_site_type_symbol
  _atom_site_label
  _atom_site_symmetry_multiplicity
  _atom_site_fract_x
  _atom_site_fract_y
  _atom_site_fract_z
  _atom_site_occupancy
  Cd  Cd1       1.0  0.50000  0.50342  0.75000  1.0000
  Cd  Cd2       1.0  0.00000  0.00342  0.75000  1.0000
  Cd  Cd3       1.0  0.50000  0.49658  0.25000  1.0000
  Cd  Cd4       1.0  0.00000  0.99658  0.25000  1.0000
  Cd  Cd5       1.0  0.50000  0.73910  0.75000  1.0000
  Cd  Cd6       1.0  0.00000  0.23910  0.75000  1.0000
  Cd  Cd7       1.0  0.50000  0.26090  0.25000  1.0000
  Cd  Cd8       1.0  0.00000  0.76090  0.25000  1.0000
  Cl  Cl1       1.0  0.36354  0.62128  0.74971  1.0000
  Cl  Cl2       1.0  0.63646  0.62128  0.75029  1.0000
  Cl  Cl3       1.0  0.86354  0.12128  0.74971  1.0000
  Cl  Cl4       1.0  0.13646  0.12128  0.75029  1.0000
  Cl  Cl5       1.0  0.63646  0.37872  0.25029  1.0000
  Cl  Cl6       1.0  0.36354  0.37872  0.24971  1.0000
  Cl  Cl7       1.0  0.13646  0.87872  0.25029  1.0000
  Cl  Cl8       1.0  0.86354  0.87872  0.24971  1.0000
  O   O1        1.0  0.35980  0.39270  0.70860  1.0000
  O   O2        1.0  0.64020  0.39270  0.79140  1.0000
  O   O3        1.0  0.85980  0.89270  0.70860  1.0000
  O   O4        1.0  0.14020  0.89270  0.79140  1.0000
  O   O5        1.0  0.64020  0.60730  0.29140  1.0000
  O   O6        1.0  0.35980  0.60730  0.20860  1.0000
  O   O7        1.0  0.14020  0.10730  0.29140  1.0000
  O   O8        1.0  0.85980  0.10730  0.20860  1.0000
  O   O9        1.0  0.42710  0.43760  0.60470  1.0000
  O   O10       1.0  0.57290  0.43760  0.89530  1.0000
  O   O11       1.0  0.92710  0.93760  0.60470  1.0000
  O   O12       1.0  0.07290  0.93760  0.89530  1.0000
  O   O13       1.0  0.57290  0.56240  0.39530  1.0000
  O   O14       1.0  0.42710  0.56240  0.10470  1.0000
  O   O15       1.0  0.07290  0.06240  0.39530  1.0000
  O   O16       1.0  0.92710  0.06240  0.10470  1.0000
  O   O17       1.0  0.58870  0.84570  0.69680  1.0000
  O   O18       1.0  0.41130  0.84570  0.80320  1.0000
  O   O19       1.0  0.08870  0.34570  0.69680  1.0000
  O   O20       1.0  0.91130  0.34570  0.80320  1.0000
  O   O21       1.0  0.41130  0.15430  0.30320  1.0000
  O   O22       1.0  0.58870  0.15430  0.19680  1.0000
  O   O23       1.0  0.91130  0.65430  0.30320  1.0000
  O   O24       1.0  0.08870  0.65430  0.19680  1.0000
  O   O25       1.0  0.41480  0.81210  0.60410  1.0000
  O   O26       1.0  0.58520  0.81210  0.89590  1.0000
  O   O27       1.0  0.91480  0.31210  0.60410  1.0000
  O   O28       1.0  0.08520  0.31210  0.89590  1.0000
  O   O29       1.0  0.58520  0.18790  0.39590  1.0000
  O   O30       1.0  0.41480  0.18790  0.10410  1.0000
  O   O31       1.0  0.08520  0.68790  0.39590  1.0000
  O   O32       1.0  0.91480  0.68790  0.10410  1.0000
  C   C1        1.0  0.36740  0.38700  0.62930  1.0000
  C   C2        1.0  0.63260  0.38700  0.87070  1.0000
  C   C3        1.0  0.86740  0.88700  0.62930  1.0000
  C   C4        1.0  0.13260  0.88700  0.87070  1.0000
  C   C5        1.0  0.63260  0.61300  0.37070  1.0000
  C   C6        1.0  0.36740  0.61300  0.12930  1.0000
  C   C7        1.0  0.13260  0.11300  0.37070  1.0000
  C   C8        1.0  0.86740  0.11300  0.12930  1.0000
  C   C9        1.0  0.32140  0.30390  0.47760  1.0000
  C   C10       1.0  0.67860  0.30390  0.02240  1.0000
  C   C11       1.0  0.82140  0.80390  0.47760  1.0000
  C   C12       1.0  0.17860  0.80390  0.02240  1.0000
  C   C13       1.0  0.67860  0.69610  0.52240  1.0000
  C   C14       1.0  0.32140  0.69610  0.97760  1.0000
  C   C15       1.0  0.17860  0.19610  0.52240  1.0000
  C   C16       1.0  0.82140  0.19610  0.97760  1.0000
  H   H1        1.0  0.37000  0.34090  0.46210  1.0000
  H   H2        1.0  0.63000  0.34090  0.03790  1.0000
  H   H3        1.0  0.87000  0.84090  0.46210  1.0000
  H   H4        1.0  0.13000  0.84090  0.03790  1.0000
  H   H5        1.0  0.63000  0.65910  0.53790  1.0000
  H   H6        1.0  0.37000  0.65910  0.96210  1.0000
  H   H7        1.0  0.13000  0.15910  0.53790  1.0000
  H   H8        1.0  0.87000  0.15910  0.96210  1.0000
  C   C17       1.0  0.30530  0.31640  0.56170  1.0000
  C   C18       1.0  0.69470  0.31640  0.93830  1.0000
  C   C19       1.0  0.80530  0.81640  0.56170  1.0000
  C   C20       1.0  0.19470  0.81640  0.93830  1.0000
  C   C21       1.0  0.69470  0.68360  0.43830  1.0000
  C   C22       1.0  0.30530  0.68360  0.06170  1.0000
  C   C23       1.0  0.19470  0.18360  0.43830  1.0000
  C   C24       1.0  0.80530  0.18360  0.06170  1.0000
  C   C25       1.0  0.23380  0.26290  0.58360  1.0000
  C   C26       1.0  0.76620  0.26290  0.91640  1.0000
  C   C27       1.0  0.73380  0.76290  0.58360  1.0000
  C   C28       1.0  0.26620  0.76290  0.91640  1.0000
  C   C29       1.0  0.76620  0.73710  0.41640  1.0000
  C   C30       1.0  0.23380  0.73710  0.08360  1.0000
  C   C31       1.0  0.26620  0.23710  0.41640  1.0000
  C   C32       1.0  0.73380  0.23710  0.08360  1.0000
  H   H9        1.0  0.22230  0.27160  0.64050  1.0000
  H   H10       1.0  0.77770  0.27160  0.85950  1.0000
  H   H11       1.0  0.72230  0.77160  0.64050  1.0000
  H   H12       1.0  0.27770  0.77160  0.85950  1.0000
  H   H13       1.0  0.77770  0.72840  0.35950  1.0000
  H   H14       1.0  0.22230  0.72840  0.14050  1.0000
  H   H15       1.0  0.27770  0.22840  0.35950  1.0000
  H   H16       1.0  0.72230  0.22840  0.14050  1.0000
  C   C33       1.0  0.50150  0.85800  0.62360  1.0000
  C   C34       1.0  0.49850  0.85800  0.87640  1.0000
  C   C35       1.0  0.00150  0.35800  0.62360  1.0000
  C   C36       1.0  0.99850  0.35800  0.87640  1.0000
  C   C37       1.0  0.49850  0.14200  0.37640  1.0000
  C   C38       1.0  0.50150  0.14200  0.12360  1.0000
  C   C39       1.0  0.99850  0.64200  0.37640  1.0000
  C   C40       1.0  0.00150  0.64200  0.12360  1.0000
  C   C41       1.0  0.59510  0.98280  0.58010  1.0000
  C   C42       1.0  0.40490  0.98280  0.91990  1.0000
  C   C43       1.0  0.09510  0.48280  0.58010  1.0000
  C   C44       1.0  0.90490  0.48280  0.91990  1.0000
  C   C45       1.0  0.40490  0.01720  0.41990  1.0000
  C   C46       1.0  0.59510  0.01720  0.08010  1.0000
  C   C47       1.0  0.90490  0.51720  0.41990  1.0000
  C   C48       1.0  0.09510  0.51720  0.08010  1.0000
  H   H17       1.0  0.66030  0.97090  0.63470  1.0000
  H   H18       1.0  0.33970  0.97090  0.86530  1.0000
  H   H19       1.0  0.16030  0.47090  0.63470  1.0000
  H   H20       1.0  0.83970  0.47090  0.86530  1.0000
  H   H21       1.0  0.33970  0.02910  0.36530  1.0000
  H   H22       1.0  0.66030  0.02910  0.13470  1.0000
  H   H23       1.0  0.83970  0.52910  0.36530  1.0000
  H   H24       1.0  0.16030  0.52910  0.13470  1.0000
  C   C49       1.0  0.50150  0.93110  0.55860  1.0000
  C   C50       1.0  0.49850  0.93110  0.94140  1.0000
  C   C51       1.0  0.00150  0.43110  0.55860  1.0000
  C   C52       1.0  0.99850  0.43110  0.94140  1.0000
  C   C53       1.0  0.49850  0.06890  0.44140  1.0000
  C   C54       1.0  0.50150  0.06890  0.05860  1.0000
  C   C55       1.0  0.99850  0.56890  0.44140  1.0000
  C   C56       1.0  0.00150  0.56890  0.05860  1.0000
  C   C57       1.0  0.40640  0.94850  0.47760  1.0000
  C   C58       1.0  0.59360  0.94850  0.02240  1.0000
  C   C59       1.0  0.90640  0.44850  0.47760  1.0000
  C   C60       1.0  0.09360  0.44850  0.02240  1.0000
  C   C61       1.0  0.59360  0.05150  0.52240  1.0000
  C   C62       1.0  0.40640  0.05150  0.97760  1.0000
  C   C63       1.0  0.09360  0.55150  0.52240  1.0000
  C   C64       1.0  0.90640  0.55150  0.97760  1.0000
  H   H25       1.0  0.34250  0.91280  0.46210  1.0000
  H   H26       1.0  0.65750  0.91280  0.03790  1.0000
  H   H27       1.0  0.84250  0.41280  0.46210  1.0000
  H   H28       1.0  0.15750  0.41280  0.03790  1.0000
  H   H29       1.0  0.65750  0.08720  0.53790  1.0000
  H   H30       1.0  0.34250  0.08720  0.96210  1.0000
  H   H31       1.0  0.15750  0.58720  0.53790  1.0000
  H   H32       1.0  0.84250  0.58720  0.96210  1.0000
