data_image0
_chemical_formula_structural       CoO4N10C14H2C2H2
_chemical_formula_sum              "Co1 O4 N10 C16 H4"
_cell_length_a       7.0728
_cell_length_b       10.3625
_cell_length_c       12.0604
_cell_angle_alpha    67.284
_cell_angle_beta     81.212
_cell_angle_gamma    77.056

_space_group_name_H-M_alt    "P 1"
_space_group_IT_number       1

loop_
  _space_group_symop_operation_xyz
  'x, y, z'

loop_
  _atom_site_type_symbol
  _atom_site_label
  _atom_site_symmetry_multiplicity
  _atom_site_fract_x
  _atom_site_fract_y
  _atom_site_fract_z
  _atom_site_occupancy
  Co  Co1       1.0  0.50000  0.00000  0.00000  1.0000
  O   O1        1.0  0.44610  0.08840  0.13250  1.0000
  O   O2        1.0  0.55390  0.91160  0.86750  1.0000
  O   O3        1.0  0.44680  0.21640  0.89240  1.0000
  O   O4        1.0  0.55320  0.78360  0.10760  1.0000
  N   N1        1.0  0.33000  0.29690  0.15810  1.0000
  N   N2        1.0  0.67000  0.70310  0.84190  1.0000
  N   N3        1.0  0.31100  0.43190  0.90500  1.0000
  N   N4        1.0  0.68900  0.56810  0.09500  1.0000
  N   N5        1.0  0.13230  0.58030  0.24550  1.0000
  N   N6        1.0  0.86770  0.41970  0.75450  1.0000
  N   N7        1.0  0.10210  0.77110  0.89040  1.0000
  N   N8        1.0  0.89790  0.22890  0.10960  1.0000
  N   N9        1.0  0.20160  0.00320  0.00050  1.0000
  N   N10       1.0  0.79840  0.99680  0.99950  1.0000
  C   C1        1.0  0.38650  0.22400  0.08810  1.0000
  C   C2        1.0  0.61350  0.77600  0.91190  1.0000
  C   C3        1.0  0.38230  0.29360  0.95530  1.0000
  C   C4        1.0  0.61770  0.70640  0.04470  1.0000
  C   C5        1.0  0.25710  0.43940  0.10340  1.0000
  C   C6        1.0  0.74290  0.56060  0.89660  1.0000
  C   C7        1.0  0.24900  0.50380  0.98350  1.0000
  C   C8        1.0  0.75100  0.49620  0.01650  1.0000
  C   C9        1.0  0.18880  0.51800  0.18280  1.0000
  C   C10       1.0  0.81120  0.48200  0.81720  1.0000
  C   C11       1.0  0.16850  0.65180  0.93030  1.0000
  C   C12       1.0  0.83150  0.34820  0.06970  1.0000
  C   C13       1.0  0.10040  0.91900  0.09440  1.0000
  C   C14       1.0  0.89960  0.08100  0.90560  1.0000
  H   H1        1.0  0.16743  0.85880  0.16401  1.0000
  H   H2        1.0  0.83257  0.14120  0.83599  1.0000
  C   C15       1.0  0.09410  0.08560  0.90370  1.0000
  C   C16       1.0  0.90590  0.91440  0.09630  1.0000
  H   H3        1.0  0.15473  0.14743  0.83362  1.0000
  H   H4        1.0  0.84527  0.85257  0.16638  1.0000
