data_image0
_chemical_formula_structural       Zn2O8N20C28H4C4H4
_chemical_formula_sum              "Zn2 O8 N20 C32 H8"
_cell_length_a       12.0699
_cell_length_b       7.11859
_cell_length_c       18.4918
_cell_angle_alpha    90
_cell_angle_beta     98.7958
_cell_angle_gamma    90

_space_group_name_H-M_alt    "P 1"
_space_group_IT_number       1

loop_
  _space_group_symop_operation_xyz
  'x, y, z'

loop_
  _atom_site_type_symbol
  _atom_site_label
  _atom_site_symmetry_multiplicity
  _atom_site_fract_x
  _atom_site_fract_y
  _atom_site_fract_z
  _atom_site_occupancy
  Zn  Zn1       1.0  0.75000  0.26852  0.25000  1.0000
  Zn  Zn2       1.0  0.25000  0.73148  0.75000  1.0000
  O   O1        1.0  0.77302  0.27031  0.14037  1.0000
  O   O2        1.0  0.72698  0.27031  0.35963  1.0000
  O   O3        1.0  0.22698  0.72969  0.85963  1.0000
  O   O4        1.0  0.27302  0.72969  0.64037  1.0000
  O   O5        1.0  0.58274  0.26477  0.20036  1.0000
  O   O6        1.0  0.91726  0.26477  0.29964  1.0000
  O   O7        1.0  0.41726  0.73523  0.79964  1.0000
  O   O8        1.0  0.08274  0.73523  0.70036  1.0000
  N   N1        1.0  0.67505  0.27274  0.02534  1.0000
  N   N2        1.0  0.82495  0.27274  0.47466  1.0000
  N   N3        1.0  0.32495  0.72726  0.97466  1.0000
  N   N4        1.0  0.17505  0.72726  0.52534  1.0000
  N   N5        1.0  0.47465  0.24703  0.08829  1.0000
  N   N6        1.0  0.02535  0.24703  0.41171  1.0000
  N   N7        1.0  0.52535  0.75297  0.91171  1.0000
  N   N8        1.0  0.97465  0.75297  0.58829  1.0000
  N   N9        1.0  0.56633  0.25020  0.84358  1.0000
  N   N10       1.0  0.93367  0.25020  0.65642  1.0000
  N   N11       1.0  0.43367  0.74980  0.15642  1.0000
  N   N12       1.0  0.06633  0.74980  0.34358  1.0000
  N   N13       1.0  0.28157  0.21130  0.93212  1.0000
  N   N14       1.0  0.21843  0.21130  0.56788  1.0000
  N   N15       1.0  0.71843  0.78870  0.06788  1.0000
  N   N16       1.0  0.78157  0.78870  0.43212  1.0000
  N   N17       1.0  0.75000  0.96250  0.25000  1.0000
  N   N18       1.0  0.25000  0.03750  0.75000  1.0000
  N   N19       1.0  0.75000  0.57270  0.25000  1.0000
  N   N20       1.0  0.25000  0.42730  0.75000  1.0000
  C   C1        1.0  0.67945  0.26698  0.09757  1.0000
  C   C2        1.0  0.82055  0.26698  0.40243  1.0000
  C   C3        1.0  0.32055  0.73302  0.90243  1.0000
  C   C4        1.0  0.17945  0.73302  0.59757  1.0000
  C   C5        1.0  0.57400  0.25896  0.13048  1.0000
  C   C6        1.0  0.92600  0.25896  0.36952  1.0000
  C   C7        1.0  0.42600  0.74104  0.86952  1.0000
  C   C8        1.0  0.07400  0.74104  0.63048  1.0000
  C   C9        1.0  0.57130  0.25783  0.98396  1.0000
  C   C10       1.0  0.92870  0.25783  0.51604  1.0000
  C   C11       1.0  0.42870  0.74217  0.01604  1.0000
  C   C12       1.0  0.07130  0.74217  0.48396  1.0000
  C   C13       1.0  0.47438  0.24416  0.01442  1.0000
  C   C14       1.0  0.02562  0.24416  0.48558  1.0000
  C   C15       1.0  0.52562  0.75584  0.98558  1.0000
  C   C16       1.0  0.97438  0.75584  0.51442  1.0000
  C   C17       1.0  0.56817  0.25470  0.90572  1.0000
  C   C18       1.0  0.93183  0.25470  0.59428  1.0000
  C   C19       1.0  0.43183  0.74530  0.09428  1.0000
  C   C20       1.0  0.06817  0.74530  0.40572  1.0000
  C   C21       1.0  0.36676  0.22584  0.96839  1.0000
  C   C22       1.0  0.13324  0.22584  0.53161  1.0000
  C   C23       1.0  0.63324  0.77416  0.03161  1.0000
  C   C24       1.0  0.86676  0.77416  0.46839  1.0000
  C   C25       1.0  0.83978  0.86483  0.23771  1.0000
  C   C26       1.0  0.66022  0.86483  0.26229  1.0000
  C   C27       1.0  0.16022  0.13517  0.76229  1.0000
  C   C28       1.0  0.33978  0.13517  0.73771  1.0000
  H   H1        1.0  0.90510  0.93022  0.22906  1.0000
  H   H2        1.0  0.59490  0.93022  0.27094  1.0000
  H   H3        1.0  0.09490  0.06978  0.77094  1.0000
  H   H4        1.0  0.40510  0.06978  0.72906  1.0000
  C   C29       1.0  0.83969  0.66994  0.23732  1.0000
  C   C30       1.0  0.66031  0.66994  0.26268  1.0000
  C   C31       1.0  0.16031  0.33006  0.76268  1.0000
  C   C32       1.0  0.33969  0.33006  0.73732  1.0000
  H   H5        1.0  0.90456  0.60452  0.22786  1.0000
  H   H6        1.0  0.59544  0.60452  0.27214  1.0000
  H   H7        1.0  0.09544  0.39548  0.77214  1.0000
  H   H8        1.0  0.40456  0.39548  0.72786  1.0000
