data_image0
_chemical_formula_structural       O12C4H4C8H4O8C8H4C4O4C12Li8
_chemical_formula_sum              "O24 C36 H12 Li8"
_cell_length_a       10.2811
_cell_length_b       14.1244
_cell_length_c       8.1116
_cell_angle_alpha    90
_cell_angle_beta     90
_cell_angle_gamma    90

_space_group_name_H-M_alt    "P 1"
_space_group_IT_number       1

loop_
  _space_group_symop_operation_xyz
  'x, y, z'

loop_
  _atom_site_type_symbol
  _atom_site_label
  _atom_site_symmetry_multiplicity
  _atom_site_fract_x
  _atom_site_fract_y
  _atom_site_fract_z
  _atom_site_occupancy
  O   O1        1.0  0.67540  0.23480  0.05860  1.0000
  O   O2        1.0  0.32460  0.76520  0.55860  1.0000
  O   O3        1.0  0.17540  0.26520  0.05860  1.0000
  O   O4        1.0  0.82460  0.73480  0.55860  1.0000
  O   O5        1.0  0.47240  0.28190  0.05180  1.0000
  O   O6        1.0  0.52760  0.71810  0.55180  1.0000
  O   O7        1.0  0.97240  0.21810  0.05180  1.0000
  O   O8        1.0  0.02760  0.78190  0.55180  1.0000
  O   O9        1.0  0.17780  0.91470  0.79360  1.0000
  O   O10       1.0  0.82220  0.08530  0.29360  1.0000
  O   O11       1.0  0.67780  0.58530  0.79360  1.0000
  O   O12       1.0  0.32220  0.41470  0.29360  1.0000
  C   C1        1.0  0.61220  0.05360  0.94130  1.0000
  C   C2        1.0  0.38780  0.94640  0.44130  1.0000
  C   C3        1.0  0.11220  0.44640  0.94130  1.0000
  C   C4        1.0  0.88780  0.55360  0.44130  1.0000
  H   H1        1.0  0.69940  0.06810  0.95790  1.0000
  H   H2        1.0  0.30060  0.93190  0.45790  1.0000
  H   H3        1.0  0.19940  0.43190  0.95790  1.0000
  H   H4        1.0  0.80060  0.56810  0.45790  1.0000
  C   C5        1.0  0.55670  0.21900  0.03200  1.0000
  C   C6        1.0  0.44330  0.78100  0.53200  1.0000
  C   C7        1.0  0.05670  0.28100  0.03200  1.0000
  C   C8        1.0  0.94330  0.71900  0.53200  1.0000
  C   C9        1.0  0.38770  0.10050  0.94520  1.0000
  C   C10       1.0  0.61230  0.89950  0.44520  1.0000
  C   C11       1.0  0.88770  0.39950  0.94520  1.0000
  C   C12       1.0  0.11230  0.60050  0.44520  1.0000
  H   H5        1.0  0.32480  0.14670  0.96260  1.0000
  H   H6        1.0  0.67520  0.85330  0.46260  1.0000
  H   H7        1.0  0.82480  0.35330  0.96260  1.0000
  H   H8        1.0  0.17520  0.64670  0.46260  1.0000
  O   O13       1.0  0.12490  0.04090  0.93760  1.0000
  O   O14       1.0  0.87510  0.95910  0.43760  1.0000
  O   O15       1.0  0.62490  0.45910  0.93760  1.0000
  O   O16       1.0  0.37510  0.54090  0.43760  1.0000
  O   O17       1.0  0.64760  0.80500  0.84830  1.0000
  O   O18       1.0  0.35240  0.19500  0.34830  1.0000
  O   O19       1.0  0.14760  0.69500  0.84830  1.0000
  O   O20       1.0  0.85240  0.30500  0.34830  1.0000
  C   C13       1.0  0.35020  0.00960  0.89490  1.0000
  C   C14       1.0  0.64980  0.99040  0.39490  1.0000
  C   C15       1.0  0.85020  0.49040  0.89490  1.0000
  C   C16       1.0  0.14980  0.50960  0.39490  1.0000
  C   C17       1.0  0.44570  0.94190  0.86980  1.0000
  C   C18       1.0  0.55430  0.05810  0.36980  1.0000
  C   C19       1.0  0.94570  0.55810  0.86980  1.0000
  C   C20       1.0  0.05430  0.44190  0.36980  1.0000
  H   H9        1.0  0.42170  0.88080  0.83990  1.0000
  H   H10       1.0  0.57830  0.11920  0.33990  1.0000
  H   H11       1.0  0.92170  0.61920  0.83990  1.0000
  H   H12       1.0  0.07830  0.38080  0.33990  1.0000
  C   C21       1.0  0.20770  0.98620  0.87290  1.0000
  C   C22       1.0  0.79230  0.01380  0.37290  1.0000
  C   C23       1.0  0.70770  0.51380  0.87290  1.0000
  C   C24       1.0  0.29230  0.48620  0.37290  1.0000
  O   O21       1.0  0.79020  0.92180  0.80640  1.0000
  O   O22       1.0  0.20980  0.07820  0.30640  1.0000
  O   O23       1.0  0.29020  0.57820  0.80640  1.0000
  O   O24       1.0  0.70980  0.42180  0.30640  1.0000
  C   C25       1.0  0.51760  0.12190  0.96930  1.0000
  C   C26       1.0  0.48240  0.87810  0.46930  1.0000
  C   C27       1.0  0.01760  0.37810  0.96930  1.0000
  C   C28       1.0  0.98240  0.62190  0.46930  1.0000
  C   C29       1.0  0.67970  0.89100  0.84550  1.0000
  C   C30       1.0  0.32030  0.10900  0.34550  1.0000
  C   C31       1.0  0.17970  0.60900  0.84550  1.0000
  C   C32       1.0  0.82030  0.39100  0.34550  1.0000
  C   C33       1.0  0.57660  0.96350  0.88860  1.0000
  C   C34       1.0  0.42340  0.03650  0.38860  1.0000
  C   C35       1.0  0.07660  0.53650  0.88860  1.0000
  C   C36       1.0  0.92340  0.46350  0.38860  1.0000
  Li  Li1       1.0  0.82120  0.20550  0.19060  1.0000
  Li  Li2       1.0  0.17880  0.79450  0.69060  1.0000
  Li  Li3       1.0  0.32120  0.29450  0.19060  1.0000
  Li  Li4       1.0  0.67880  0.70550  0.69060  1.0000
  Li  Li5       1.0  0.88490  0.87220  0.62150  1.0000
  Li  Li6       1.0  0.11510  0.12780  0.12150  1.0000
  Li  Li7       1.0  0.38490  0.62780  0.62150  1.0000
  Li  Li8       1.0  0.61510  0.37220  0.12150  1.0000
