data_image0
_chemical_formula_structural       Li16O96C144H72
_chemical_formula_sum              "Li16 O96 C144 H72"
_cell_length_a       13.4394
_cell_length_b       9.0445
_cell_length_c       34.8718
_cell_angle_alpha    90
_cell_angle_beta     97.858
_cell_angle_gamma    90

_space_group_name_H-M_alt    "P 1"
_space_group_IT_number       1

loop_
  _space_group_symop_operation_xyz
  'x, y, z'

loop_
  _atom_site_type_symbol
  _atom_site_label
  _atom_site_symmetry_multiplicity
  _atom_site_fract_x
  _atom_site_fract_y
  _atom_site_fract_z
  _atom_site_occupancy
  Li  Li1       1.0  0.44010  0.85000  0.08333  1.0000
  Li  Li2       1.0  0.55990  0.85000  0.41667  1.0000
  Li  Li3       1.0  0.94010  0.35000  0.08333  1.0000
  Li  Li4       1.0  0.05990  0.35000  0.41667  1.0000
  Li  Li5       1.0  0.55990  0.15000  0.91667  1.0000
  Li  Li6       1.0  0.44010  0.15000  0.58333  1.0000
  Li  Li7       1.0  0.05990  0.65000  0.91667  1.0000
  Li  Li8       1.0  0.94010  0.65000  0.58333  1.0000
  Li  Li9       1.0  0.34650  0.15560  0.12730  1.0000
  Li  Li10      1.0  0.65350  0.15560  0.37270  1.0000
  Li  Li11      1.0  0.84650  0.65560  0.12730  1.0000
  Li  Li12      1.0  0.15350  0.65560  0.37270  1.0000
  Li  Li13      1.0  0.65350  0.84440  0.87270  1.0000
  Li  Li14      1.0  0.34650  0.84440  0.62730  1.0000
  Li  Li15      1.0  0.15350  0.34440  0.87270  1.0000
  Li  Li16      1.0  0.84650  0.34440  0.62730  1.0000
  O   O1        1.0  0.42861  0.16553  0.08626  1.0000
  O   O2        1.0  0.57139  0.16553  0.41374  1.0000
  O   O3        1.0  0.92861  0.66553  0.08626  1.0000
  O   O4        1.0  0.07139  0.66553  0.41374  1.0000
  O   O5        1.0  0.57139  0.83447  0.91374  1.0000
  O   O6        1.0  0.42861  0.83447  0.58626  1.0000
  O   O7        1.0  0.07139  0.33447  0.91374  1.0000
  O   O8        1.0  0.92861  0.33447  0.58626  1.0000
  O   O9        1.0  0.41566  0.99474  0.04054  1.0000
  O   O10       1.0  0.58434  0.99474  0.45946  1.0000
  O   O11       1.0  0.91566  0.49474  0.04054  1.0000
  O   O12       1.0  0.08434  0.49474  0.45946  1.0000
  O   O13       1.0  0.58434  0.00526  0.95946  1.0000
  O   O14       1.0  0.41566  0.00526  0.54054  1.0000
  O   O15       1.0  0.08434  0.50526  0.95946  1.0000
  O   O16       1.0  0.91566  0.50526  0.54054  1.0000
  O   O17       1.0  0.29776  0.35608  0.88840  1.0000
  O   O18       1.0  0.70224  0.35608  0.61160  1.0000
  O   O19       1.0  0.79776  0.85608  0.88840  1.0000
  O   O20       1.0  0.20224  0.85608  0.61160  1.0000
  O   O21       1.0  0.70224  0.64392  0.11160  1.0000
  O   O22       1.0  0.29776  0.64392  0.38840  1.0000
  O   O23       1.0  0.20224  0.14392  0.11160  1.0000
  O   O24       1.0  0.79776  0.14392  0.38840  1.0000
  O   O25       1.0  0.41786  0.19031  0.90341  1.0000
  O   O26       1.0  0.58214  0.19031  0.59659  1.0000
  O   O27       1.0  0.91786  0.69031  0.90341  1.0000
  O   O28       1.0  0.08214  0.69031  0.59659  1.0000
  O   O29       1.0  0.58214  0.80969  0.09659  1.0000
  O   O30       1.0  0.41786  0.80969  0.40341  1.0000
  O   O31       1.0  0.08214  0.30969  0.09659  1.0000
  O   O32       1.0  0.91786  0.30969  0.40341  1.0000
  O   O33       1.0  0.36466  0.76222  0.99418  1.0000
  O   O34       1.0  0.63534  0.76222  0.50582  1.0000
  O   O35       1.0  0.86466  0.26222  0.99418  1.0000
  O   O36       1.0  0.13534  0.26222  0.50582  1.0000
  O   O37       1.0  0.63534  0.23778  0.00582  1.0000
  O   O38       1.0  0.36466  0.23778  0.49418  1.0000
  O   O39       1.0  0.13534  0.73778  0.00582  1.0000
  O   O40       1.0  0.86466  0.73778  0.49418  1.0000
  O   O41       1.0  0.37630  0.68313  0.05518  1.0000
  O   O42       1.0  0.62370  0.68313  0.44482  1.0000
  O   O43       1.0  0.87630  0.18313  0.05518  1.0000
  O   O44       1.0  0.12370  0.18313  0.44482  1.0000
  O   O45       1.0  0.62370  0.31687  0.94482  1.0000
  O   O46       1.0  0.37630  0.31687  0.55518  1.0000
  O   O47       1.0  0.12370  0.81687  0.94482  1.0000
  O   O48       1.0  0.87630  0.81687  0.55518  1.0000
  O   O49       1.0  0.39346  0.03787  0.17460  1.0000
  O   O50       1.0  0.60654  0.03787  0.32540  1.0000
  O   O51       1.0  0.89346  0.53787  0.17460  1.0000
  O   O52       1.0  0.10654  0.53787  0.32540  1.0000
  O   O53       1.0  0.60654  0.96213  0.82540  1.0000
  O   O54       1.0  0.39346  0.96213  0.67460  1.0000
  O   O55       1.0  0.10654  0.46213  0.82540  1.0000
  O   O56       1.0  0.89346  0.46213  0.67460  1.0000
  O   O57       1.0  0.38756  0.86830  0.12985  1.0000
  O   O58       1.0  0.61244  0.86830  0.37015  1.0000
  O   O59       1.0  0.88756  0.36830  0.12985  1.0000
  O   O60       1.0  0.11244  0.36830  0.37015  1.0000
  O   O61       1.0  0.61244  0.13170  0.87015  1.0000
  O   O62       1.0  0.38756  0.13170  0.62985  1.0000
  O   O63       1.0  0.11244  0.63170  0.87015  1.0000
  O   O64       1.0  0.88756  0.63170  0.62985  1.0000
  O   O65       1.0  0.37284  0.34568  0.15697  1.0000
  O   O66       1.0  0.62716  0.34568  0.34303  1.0000
  O   O67       1.0  0.87284  0.84568  0.15697  1.0000
  O   O68       1.0  0.12716  0.84568  0.34303  1.0000
  O   O69       1.0  0.62716  0.65432  0.84303  1.0000
  O   O70       1.0  0.37284  0.65432  0.65697  1.0000
  O   O71       1.0  0.12716  0.15432  0.84303  1.0000
  O   O72       1.0  0.87284  0.15432  0.65697  1.0000
  O   O73       1.0  0.38498  0.26642  0.21825  1.0000
  O   O74       1.0  0.61502  0.26642  0.28175  1.0000
  O   O75       1.0  0.88498  0.76642  0.21825  1.0000
  O   O76       1.0  0.11502  0.76642  0.28175  1.0000
  O   O77       1.0  0.61502  0.73358  0.78175  1.0000
  O   O78       1.0  0.38498  0.73358  0.71825  1.0000
  O   O79       1.0  0.11502  0.23358  0.78175  1.0000
  O   O80       1.0  0.88498  0.23358  0.71825  1.0000
  O   O81       1.0  0.34636  0.62113  0.31982  1.0000
  O   O82       1.0  0.65364  0.62113  0.18018  1.0000
  O   O83       1.0  0.84636  0.12113  0.31982  1.0000
  O   O84       1.0  0.15364  0.12113  0.18018  1.0000
  O   O85       1.0  0.65364  0.37887  0.68018  1.0000
  O   O86       1.0  0.34636  0.37887  0.81982  1.0000
  O   O87       1.0  0.15364  0.87887  0.68018  1.0000
  O   O88       1.0  0.84636  0.87887  0.81982  1.0000
  O   O89       1.0  0.35110  0.86480  0.30935  1.0000
  O   O90       1.0  0.64890  0.86480  0.19065  1.0000
  O   O91       1.0  0.85110  0.36480  0.30935  1.0000
  O   O92       1.0  0.14890  0.36480  0.19065  1.0000
  O   O93       1.0  0.64890  0.13520  0.69065  1.0000
  O   O94       1.0  0.35110  0.13520  0.80935  1.0000
  O   O95       1.0  0.14890  0.63520  0.69065  1.0000
  O   O96       1.0  0.85110  0.63520  0.80935  1.0000
  C   C1        1.0  0.39027  0.24559  0.02135  1.0000
  C   C2        1.0  0.60973  0.24559  0.47865  1.0000
  C   C3        1.0  0.89027  0.74559  0.02135  1.0000
  C   C4        1.0  0.10973  0.74559  0.47865  1.0000
  C   C5        1.0  0.60973  0.75441  0.97865  1.0000
  C   C6        1.0  0.39027  0.75441  0.52135  1.0000
  C   C7        1.0  0.10973  0.25441  0.97865  1.0000
  C   C8        1.0  0.89027  0.25441  0.52135  1.0000
  C   C9        1.0  0.38258  0.21330  0.98217  1.0000
  C   C10       1.0  0.61742  0.21330  0.51783  1.0000
  C   C11       1.0  0.88258  0.71330  0.98217  1.0000
  C   C12       1.0  0.11742  0.71330  0.51783  1.0000
  C   C13       1.0  0.61742  0.78670  0.01783  1.0000
  C   C14       1.0  0.38258  0.78670  0.48217  1.0000
  C   C15       1.0  0.11742  0.28670  0.01783  1.0000
  C   C16       1.0  0.88258  0.28670  0.48217  1.0000
  C   C17       1.0  0.36294  0.32422  0.95456  1.0000
  C   C18       1.0  0.63706  0.32422  0.54544  1.0000
  C   C19       1.0  0.86294  0.82422  0.95456  1.0000
  C   C20       1.0  0.13706  0.82422  0.54544  1.0000
  C   C21       1.0  0.63706  0.67578  0.04544  1.0000
  C   C22       1.0  0.36294  0.67578  0.45456  1.0000
  C   C23       1.0  0.13706  0.17578  0.04544  1.0000
  C   C24       1.0  0.86294  0.17578  0.45456  1.0000
  C   C25       1.0  0.35271  0.46960  0.96651  1.0000
  C   C26       1.0  0.64729  0.46960  0.53349  1.0000
  C   C27       1.0  0.85271  0.96960  0.96651  1.0000
  C   C28       1.0  0.14729  0.96960  0.53349  1.0000
  C   C29       1.0  0.64729  0.53040  0.03349  1.0000
  C   C30       1.0  0.35271  0.53040  0.46651  1.0000
  C   C31       1.0  0.14729  0.03040  0.03349  1.0000
  C   C32       1.0  0.85271  0.03040  0.46651  1.0000
  C   C33       1.0  0.36466  0.50342  0.00572  1.0000
  C   C34       1.0  0.63534  0.50342  0.49428  1.0000
  C   C35       1.0  0.86466  0.00342  0.00572  1.0000
  C   C36       1.0  0.13534  0.00342  0.49428  1.0000
  C   C37       1.0  0.63534  0.49658  0.99428  1.0000
  C   C38       1.0  0.36466  0.49658  0.50572  1.0000
  C   C39       1.0  0.13534  0.99658  0.99428  1.0000
  C   C40       1.0  0.86466  0.99658  0.50572  1.0000
  C   C41       1.0  0.38201  0.39099  0.03300  1.0000
  C   C42       1.0  0.61799  0.39099  0.46700  1.0000
  C   C43       1.0  0.88201  0.89099  0.03300  1.0000
  C   C44       1.0  0.11799  0.89099  0.46700  1.0000
  C   C45       1.0  0.61799  0.60901  0.96700  1.0000
  C   C46       1.0  0.38201  0.60901  0.53300  1.0000
  C   C47       1.0  0.11799  0.10901  0.96700  1.0000
  C   C48       1.0  0.88201  0.10901  0.53300  1.0000
  C   C49       1.0  0.41242  0.12643  0.05143  1.0000
  C   C50       1.0  0.58758  0.12643  0.44857  1.0000
  C   C51       1.0  0.91242  0.62643  0.05143  1.0000
  C   C52       1.0  0.08758  0.62643  0.44857  1.0000
  C   C53       1.0  0.58758  0.87357  0.94857  1.0000
  C   C54       1.0  0.41242  0.87357  0.55143  1.0000
  C   C55       1.0  0.08758  0.37357  0.94857  1.0000
  C   C56       1.0  0.91242  0.37357  0.55143  1.0000
  C   C57       1.0  0.35991  0.28650  0.91247  1.0000
  C   C58       1.0  0.64009  0.28650  0.58753  1.0000
  C   C59       1.0  0.85991  0.78650  0.91247  1.0000
  C   C60       1.0  0.14009  0.78650  0.58753  1.0000
  C   C61       1.0  0.64009  0.71350  0.08753  1.0000
  C   C62       1.0  0.35991  0.71350  0.41247  1.0000
  C   C63       1.0  0.14009  0.21350  0.08753  1.0000
  C   C64       1.0  0.85991  0.21350  0.41247  1.0000
  C   C65       1.0  0.36820  0.65736  0.02070  1.0000
  C   C66       1.0  0.63180  0.65736  0.47930  1.0000
  C   C67       1.0  0.86820  0.15736  0.02070  1.0000
  C   C68       1.0  0.13180  0.15736  0.47930  1.0000
  C   C69       1.0  0.63180  0.34264  0.97930  1.0000
  C   C70       1.0  0.36820  0.34264  0.52070  1.0000
  C   C71       1.0  0.13180  0.84264  0.97930  1.0000
  C   C72       1.0  0.86820  0.84264  0.52070  1.0000
  C   C73       1.0  0.38693  0.78509  0.19346  1.0000
  C   C74       1.0  0.61307  0.78509  0.30654  1.0000
  C   C75       1.0  0.88693  0.28509  0.19346  1.0000
  C   C76       1.0  0.11307  0.28509  0.30654  1.0000
  C   C77       1.0  0.61307  0.21491  0.80654  1.0000
  C   C78       1.0  0.38693  0.21491  0.69346  1.0000
  C   C79       1.0  0.11307  0.71491  0.80654  1.0000
  C   C80       1.0  0.88693  0.71491  0.69346  1.0000
  C   C81       1.0  0.39100  0.63877  0.18150  1.0000
  C   C82       1.0  0.60900  0.63877  0.31850  1.0000
  C   C83       1.0  0.89100  0.13877  0.18150  1.0000
  C   C84       1.0  0.10900  0.13877  0.31850  1.0000
  C   C85       1.0  0.60900  0.36123  0.81850  1.0000
  C   C86       1.0  0.39100  0.36123  0.68150  1.0000
  C   C87       1.0  0.10900  0.86123  0.81850  1.0000
  C   C88       1.0  0.89100  0.86123  0.68150  1.0000
  C   C89       1.0  0.38059  0.52401  0.20701  1.0000
  C   C90       1.0  0.61941  0.52401  0.29299  1.0000
  C   C91       1.0  0.88059  0.02401  0.20701  1.0000
  C   C92       1.0  0.11941  0.02401  0.29299  1.0000
  C   C93       1.0  0.61941  0.47599  0.79299  1.0000
  C   C94       1.0  0.38059  0.47599  0.70701  1.0000
  C   C95       1.0  0.11941  0.97599  0.79299  1.0000
  C   C96       1.0  0.88059  0.97599  0.70701  1.0000
  C   C97       1.0  0.36851  0.55480  0.24512  1.0000
  C   C98       1.0  0.63149  0.55480  0.25488  1.0000
  C   C99       1.0  0.86851  0.05480  0.24512  1.0000
  C   C100      1.0  0.13149  0.05480  0.25488  1.0000
  C   C101      1.0  0.63149  0.44520  0.75488  1.0000
  C   C102      1.0  0.36851  0.44520  0.74512  1.0000
  C   C103      1.0  0.13149  0.94520  0.75488  1.0000
  C   C104      1.0  0.86851  0.94520  0.74512  1.0000
  C   C105      1.0  0.36643  0.70040  0.25738  1.0000
  C   C106      1.0  0.63357  0.70040  0.24262  1.0000
  C   C107      1.0  0.86643  0.20040  0.25738  1.0000
  C   C108      1.0  0.13357  0.20040  0.24262  1.0000
  C   C109      1.0  0.63357  0.29960  0.74262  1.0000
  C   C110      1.0  0.36643  0.29960  0.75738  1.0000
  C   C111      1.0  0.13357  0.79960  0.74262  1.0000
  C   C112      1.0  0.86643  0.79960  0.75738  1.0000
  C   C113      1.0  0.37523  0.81520  0.23152  1.0000
  C   C114      1.0  0.62477  0.81520  0.26848  1.0000
  C   C115      1.0  0.87523  0.31520  0.23152  1.0000
  C   C116      1.0  0.12477  0.31520  0.26848  1.0000
  C   C117      1.0  0.62477  0.18480  0.76848  1.0000
  C   C118      1.0  0.37523  0.18480  0.73152  1.0000
  C   C119      1.0  0.12477  0.68480  0.76848  1.0000
  C   C120      1.0  0.87523  0.68480  0.73152  1.0000
  C   C121      1.0  0.39055  0.90505  0.16396  1.0000
  C   C122      1.0  0.60945  0.90505  0.33604  1.0000
  C   C123      1.0  0.89055  0.40505  0.16396  1.0000
  C   C124      1.0  0.10945  0.40505  0.33604  1.0000
  C   C125      1.0  0.60945  0.09495  0.83604  1.0000
  C   C126      1.0  0.39055  0.09495  0.66396  1.0000
  C   C127      1.0  0.10945  0.59495  0.83604  1.0000
  C   C128      1.0  0.89055  0.59495  0.66396  1.0000
  C   C129      1.0  0.37923  0.37104  0.19157  1.0000
  C   C130      1.0  0.62077  0.37104  0.30843  1.0000
  C   C131      1.0  0.87923  0.87104  0.19157  1.0000
  C   C132      1.0  0.12077  0.87104  0.30843  1.0000
  C   C133      1.0  0.62077  0.62896  0.80843  1.0000
  C   C134      1.0  0.37923  0.62896  0.69157  1.0000
  C   C135      1.0  0.12077  0.12896  0.80843  1.0000
  C   C136      1.0  0.87923  0.12896  0.69157  1.0000
  C   C137      1.0  0.35407  0.73770  0.29826  1.0000
  C   C138      1.0  0.64593  0.73770  0.20174  1.0000
  C   C139      1.0  0.85407  0.23770  0.29826  1.0000
  C   C140      1.0  0.14593  0.23770  0.20174  1.0000
  C   C141      1.0  0.64593  0.26230  0.70174  1.0000
  C   C142      1.0  0.35407  0.26230  0.79826  1.0000
  C   C143      1.0  0.14593  0.76230  0.70174  1.0000
  C   C144      1.0  0.85407  0.76230  0.79826  1.0000
  H   H1        1.0  0.39130  0.11400  0.97320  1.0000
  H   H2        1.0  0.60870  0.11400  0.52680  1.0000
  H   H3        1.0  0.89130  0.61400  0.97320  1.0000
  H   H4        1.0  0.10870  0.61400  0.52680  1.0000
  H   H5        1.0  0.60870  0.88600  0.02680  1.0000
  H   H6        1.0  0.39130  0.88600  0.47320  1.0000
  H   H7        1.0  0.10870  0.38600  0.02680  1.0000
  H   H8        1.0  0.89130  0.38600  0.47320  1.0000
  H   H9        1.0  0.34080  0.54200  0.94850  1.0000
  H   H10       1.0  0.65920  0.54200  0.55150  1.0000
  H   H11       1.0  0.84080  0.04200  0.94850  1.0000
  H   H12       1.0  0.15920  0.04200  0.55150  1.0000
  H   H13       1.0  0.65920  0.45800  0.05150  1.0000
  H   H14       1.0  0.34080  0.45800  0.44850  1.0000
  H   H15       1.0  0.15920  0.95800  0.05150  1.0000
  H   H16       1.0  0.84080  0.95800  0.44850  1.0000
  H   H17       1.0  0.37460  0.84300  0.00720  1.0000
  H   H18       1.0  0.62540  0.84300  0.49280  1.0000
  H   H19       1.0  0.87460  0.34300  0.00720  1.0000
  H   H20       1.0  0.12540  0.34300  0.49280  1.0000
  H   H21       1.0  0.62540  0.15700  0.99280  1.0000
  H   H22       1.0  0.37460  0.15700  0.50720  1.0000
  H   H23       1.0  0.12540  0.65700  0.99280  1.0000
  H   H24       1.0  0.87460  0.65700  0.50720  1.0000
  H   H25       1.0  0.39130  0.41400  0.05980  1.0000
  H   H26       1.0  0.60870  0.41400  0.44020  1.0000
  H   H27       1.0  0.89130  0.91400  0.05980  1.0000
  H   H28       1.0  0.10870  0.91400  0.44020  1.0000
  H   H29       1.0  0.60870  0.58600  0.94020  1.0000
  H   H30       1.0  0.39130  0.58600  0.55980  1.0000
  H   H31       1.0  0.10870  0.08600  0.94020  1.0000
  H   H32       1.0  0.89130  0.08600  0.55980  1.0000
  H   H33       1.0  0.38900  0.16800  0.20590  1.0000
  H   H34       1.0  0.61100  0.16800  0.29410  1.0000
  H   H35       1.0  0.88900  0.66800  0.20590  1.0000
  H   H36       1.0  0.11100  0.66800  0.29410  1.0000
  H   H37       1.0  0.61100  0.83200  0.79410  1.0000
  H   H38       1.0  0.38900  0.83200  0.70590  1.0000
  H   H39       1.0  0.11100  0.33200  0.79410  1.0000
  H   H40       1.0  0.88900  0.33200  0.70590  1.0000
  H   H41       1.0  0.33830  0.64800  0.34520  1.0000
  H   H42       1.0  0.66170  0.64800  0.15480  1.0000
  H   H43       1.0  0.83830  0.14800  0.34520  1.0000
  H   H44       1.0  0.16170  0.14800  0.15480  1.0000
  H   H45       1.0  0.66170  0.35200  0.65480  1.0000
  H   H46       1.0  0.33830  0.35200  0.84520  1.0000
  H   H47       1.0  0.16170  0.85200  0.65480  1.0000
  H   H48       1.0  0.83830  0.85200  0.84520  1.0000
  H   H49       1.0  0.40320  0.61490  0.15460  1.0000
  H   H50       1.0  0.59680  0.61490  0.34540  1.0000
  H   H51       1.0  0.90320  0.11490  0.15460  1.0000
  H   H52       1.0  0.09680  0.11490  0.34540  1.0000
  H   H53       1.0  0.59680  0.38510  0.84540  1.0000
  H   H54       1.0  0.40320  0.38510  0.65460  1.0000
  H   H55       1.0  0.09680  0.88510  0.84540  1.0000
  H   H56       1.0  0.90320  0.88510  0.65460  1.0000
  H   H57       1.0  0.35820  0.47500  0.26160  1.0000
  H   H58       1.0  0.64180  0.47500  0.23840  1.0000
  H   H59       1.0  0.85820  0.97500  0.26160  1.0000
  H   H60       1.0  0.14180  0.97500  0.23840  1.0000
  H   H61       1.0  0.64180  0.52500  0.73840  1.0000
  H   H62       1.0  0.35820  0.52500  0.76160  1.0000
  H   H63       1.0  0.14180  0.02500  0.73840  1.0000
  H   H64       1.0  0.85820  0.02500  0.76160  1.0000
  H   H65       1.0  0.37290  0.91800  0.24050  1.0000
  H   H66       1.0  0.62710  0.91800  0.25950  1.0000
  H   H67       1.0  0.87290  0.41800  0.24050  1.0000
  H   H68       1.0  0.12710  0.41800  0.25950  1.0000
  H   H69       1.0  0.62710  0.08200  0.75950  1.0000
  H   H70       1.0  0.37290  0.08200  0.74050  1.0000
  H   H71       1.0  0.12710  0.58200  0.75950  1.0000
  H   H72       1.0  0.87290  0.58200  0.74050  1.0000
