data_image0
_chemical_formula_structural       In18N36C72H36C36H36C36H36C72O72C36O72
_chemical_formula_sum              "In18 N36 C252 H108 O144"
_cell_length_a       15.7163
_cell_length_b       15.7163
_cell_length_c       52.205
_cell_angle_alpha    90
_cell_angle_beta     90
_cell_angle_gamma    120

_space_group_name_H-M_alt    "P 1"
_space_group_IT_number       1

loop_
  _space_group_symop_operation_xyz
  'x, y, z'

loop_
  _atom_site_type_symbol
  _atom_site_label
  _atom_site_symmetry_multiplicity
  _atom_site_fract_x
  _atom_site_fract_y
  _atom_site_fract_z
  _atom_site_occupancy
  In  In1       1.0  0.19993  0.86659  0.08333  1.0000
  In  In2       1.0  0.13341  0.33334  0.08333  1.0000
  In  In3       1.0  0.66666  0.80007  0.08333  1.0000
  In  In4       1.0  0.86659  0.19993  0.41667  1.0000
  In  In5       1.0  0.33334  0.13341  0.41667  1.0000
  In  In6       1.0  0.80007  0.66666  0.41667  1.0000
  In  In7       1.0  0.53326  0.53326  0.75000  1.0000
  In  In8       1.0  0.00001  0.46674  0.75000  1.0000
  In  In9       1.0  0.46674  0.99999  0.75000  1.0000
  In  In10      1.0  0.80007  0.13341  0.91667  1.0000
  In  In11      1.0  0.86659  0.66666  0.91667  1.0000
  In  In12      1.0  0.33334  0.19993  0.91667  1.0000
  In  In13      1.0  0.13341  0.80007  0.58333  1.0000
  In  In14      1.0  0.66666  0.86659  0.58333  1.0000
  In  In15      1.0  0.19993  0.33334  0.58333  1.0000
  In  In16      1.0  0.46674  0.46674  0.25000  1.0000
  In  In17      1.0  0.99999  0.53326  0.25000  1.0000
  In  In18      1.0  0.53326  0.00001  0.25000  1.0000
  N   N1        1.0  0.33890  0.90610  0.10573  1.0000
  N   N2        1.0  0.09390  0.43280  0.10573  1.0000
  N   N3        1.0  0.56720  0.66110  0.10573  1.0000
  N   N4        1.0  0.90610  0.33890  0.39427  1.0000
  N   N5        1.0  0.43280  0.09390  0.39427  1.0000
  N   N6        1.0  0.66110  0.56720  0.39427  1.0000
  N   N7        1.0  0.00557  0.23943  0.43906  1.0000
  N   N8        1.0  0.76057  0.76613  0.43906  1.0000
  N   N9        1.0  0.23387  0.99443  0.43906  1.0000
  N   N10       1.0  0.57277  0.67223  0.72760  1.0000
  N   N11       1.0  0.09947  0.42723  0.72760  1.0000
  N   N12       1.0  0.32777  0.90053  0.72760  1.0000
  N   N13       1.0  0.67223  0.57277  0.77240  1.0000
  N   N14       1.0  0.42723  0.09947  0.77240  1.0000
  N   N15       1.0  0.90053  0.32777  0.77240  1.0000
  N   N16       1.0  0.23943  0.00557  0.06094  1.0000
  N   N17       1.0  0.76613  0.76057  0.06094  1.0000
  N   N18       1.0  0.99443  0.23387  0.06094  1.0000
  N   N19       1.0  0.66110  0.09390  0.89427  1.0000
  N   N20       1.0  0.90610  0.56720  0.89427  1.0000
  N   N21       1.0  0.43280  0.33890  0.89427  1.0000
  N   N22       1.0  0.09390  0.66110  0.60573  1.0000
  N   N23       1.0  0.56720  0.90610  0.60573  1.0000
  N   N24       1.0  0.33890  0.43280  0.60573  1.0000
  N   N25       1.0  0.99443  0.76057  0.56094  1.0000
  N   N26       1.0  0.23943  0.23387  0.56094  1.0000
  N   N27       1.0  0.76613  0.00557  0.56094  1.0000
  N   N28       1.0  0.42723  0.32777  0.27240  1.0000
  N   N29       1.0  0.90053  0.57277  0.27240  1.0000
  N   N30       1.0  0.67223  0.09947  0.27240  1.0000
  N   N31       1.0  0.32777  0.42723  0.22760  1.0000
  N   N32       1.0  0.57277  0.90053  0.22760  1.0000
  N   N33       1.0  0.09947  0.67223  0.22760  1.0000
  N   N34       1.0  0.76057  0.99443  0.93906  1.0000
  N   N35       1.0  0.23387  0.23943  0.93906  1.0000
  N   N36       1.0  0.00557  0.76613  0.93906  1.0000
  C   C1        1.0  0.34780  0.95080  0.12810  1.0000
  C   C2        1.0  0.04920  0.39700  0.12810  1.0000
  C   C3        1.0  0.60300  0.65220  0.12810  1.0000
  C   C4        1.0  0.95080  0.34780  0.37190  1.0000
  C   C5        1.0  0.39700  0.04920  0.37190  1.0000
  C   C6        1.0  0.65220  0.60300  0.37190  1.0000
  C   C7        1.0  0.01447  0.28413  0.46143  1.0000
  C   C8        1.0  0.71587  0.73033  0.46143  1.0000
  C   C9        1.0  0.26967  0.98553  0.46143  1.0000
  C   C10       1.0  0.61747  0.68113  0.70523  1.0000
  C   C11       1.0  0.06367  0.38253  0.70523  1.0000
  C   C12       1.0  0.31887  0.93633  0.70523  1.0000
  C   C13       1.0  0.68113  0.61747  0.79477  1.0000
  C   C14       1.0  0.38253  0.06367  0.79477  1.0000
  C   C15       1.0  0.93633  0.31887  0.79477  1.0000
  C   C16       1.0  0.28413  0.01447  0.03857  1.0000
  C   C17       1.0  0.73033  0.71587  0.03857  1.0000
  C   C18       1.0  0.98553  0.26967  0.03857  1.0000
  C   C19       1.0  0.65220  0.04920  0.87190  1.0000
  C   C20       1.0  0.95080  0.60300  0.87190  1.0000
  C   C21       1.0  0.39700  0.34780  0.87190  1.0000
  C   C22       1.0  0.04920  0.65220  0.62810  1.0000
  C   C23       1.0  0.60300  0.95080  0.62810  1.0000
  C   C24       1.0  0.34780  0.39700  0.62810  1.0000
  C   C25       1.0  0.98553  0.71587  0.53857  1.0000
  C   C26       1.0  0.28413  0.26967  0.53857  1.0000
  C   C27       1.0  0.73033  0.01447  0.53857  1.0000
  C   C28       1.0  0.38253  0.31887  0.29477  1.0000
  C   C29       1.0  0.93633  0.61747  0.29477  1.0000
  C   C30       1.0  0.68113  0.06367  0.29477  1.0000
  C   C31       1.0  0.31887  0.38253  0.20523  1.0000
  C   C32       1.0  0.61747  0.93633  0.20523  1.0000
  C   C33       1.0  0.06367  0.68113  0.20523  1.0000
  C   C34       1.0  0.71587  0.98553  0.96143  1.0000
  C   C35       1.0  0.26967  0.28413  0.96143  1.0000
  C   C36       1.0  0.01447  0.73033  0.96143  1.0000
  C   C37       1.0  0.40610  0.88060  0.09955  1.0000
  C   C38       1.0  0.11940  0.52550  0.09955  1.0000
  C   C39       1.0  0.47450  0.59390  0.09955  1.0000
  C   C40       1.0  0.88060  0.40610  0.40045  1.0000
  C   C41       1.0  0.52550  0.11940  0.40045  1.0000
  C   C42       1.0  0.59390  0.47450  0.40045  1.0000
  C   C43       1.0  0.07277  0.21393  0.43288  1.0000
  C   C44       1.0  0.78607  0.85883  0.43288  1.0000
  C   C45       1.0  0.14117  0.92723  0.43288  1.0000
  C   C46       1.0  0.54727  0.73943  0.73378  1.0000
  C   C47       1.0  0.19217  0.45273  0.73378  1.0000
  C   C48       1.0  0.26057  0.80783  0.73378  1.0000
  C   C49       1.0  0.73943  0.54727  0.76622  1.0000
  C   C50       1.0  0.45273  0.19217  0.76622  1.0000
  C   C51       1.0  0.80783  0.26057  0.76622  1.0000
  C   C52       1.0  0.21393  0.07277  0.06712  1.0000
  C   C53       1.0  0.85883  0.78607  0.06712  1.0000
  C   C54       1.0  0.92723  0.14117  0.06712  1.0000
  C   C55       1.0  0.59390  0.11940  0.90045  1.0000
  C   C56       1.0  0.88060  0.47450  0.90045  1.0000
  C   C57       1.0  0.52550  0.40610  0.90045  1.0000
  C   C58       1.0  0.11940  0.59390  0.59955  1.0000
  C   C59       1.0  0.47450  0.88060  0.59955  1.0000
  C   C60       1.0  0.40610  0.52550  0.59955  1.0000
  C   C61       1.0  0.92723  0.78607  0.56712  1.0000
  C   C62       1.0  0.21393  0.14117  0.56712  1.0000
  C   C63       1.0  0.85883  0.07277  0.56712  1.0000
  C   C64       1.0  0.45273  0.26057  0.26622  1.0000
  C   C65       1.0  0.80783  0.54727  0.26622  1.0000
  C   C66       1.0  0.73943  0.19217  0.26622  1.0000
  C   C67       1.0  0.26057  0.45273  0.23378  1.0000
  C   C68       1.0  0.54727  0.80783  0.23378  1.0000
  C   C69       1.0  0.19217  0.73943  0.23378  1.0000
  C   C70       1.0  0.78607  0.92723  0.93288  1.0000
  C   C71       1.0  0.14117  0.21393  0.93288  1.0000
  C   C72       1.0  0.07277  0.85883  0.93288  1.0000
  H   H1        1.0  0.40072  0.85053  0.08383  1.0000
  H   H2        1.0  0.14947  0.55019  0.08383  1.0000
  H   H3        1.0  0.44981  0.59928  0.08383  1.0000
  H   H4        1.0  0.85053  0.40072  0.41617  1.0000
  H   H5        1.0  0.55019  0.14947  0.41617  1.0000
  H   H6        1.0  0.59928  0.44981  0.41617  1.0000
  H   H7        1.0  0.06739  0.18386  0.41716  1.0000
  H   H8        1.0  0.81614  0.88352  0.41716  1.0000
  H   H9        1.0  0.11648  0.93261  0.41716  1.0000
  H   H10       1.0  0.51720  0.73405  0.74950  1.0000
  H   H11       1.0  0.21686  0.48280  0.74950  1.0000
  H   H12       1.0  0.26595  0.78314  0.74950  1.0000
  H   H13       1.0  0.73405  0.51720  0.75050  1.0000
  H   H14       1.0  0.48280  0.21686  0.75050  1.0000
  H   H15       1.0  0.78314  0.26595  0.75050  1.0000
  H   H16       1.0  0.18386  0.06739  0.08284  1.0000
  H   H17       1.0  0.88352  0.81614  0.08284  1.0000
  H   H18       1.0  0.93261  0.11648  0.08284  1.0000
  H   H19       1.0  0.59928  0.14947  0.91617  1.0000
  H   H20       1.0  0.85053  0.44981  0.91617  1.0000
  H   H21       1.0  0.55019  0.40072  0.91617  1.0000
  H   H22       1.0  0.14947  0.59928  0.58383  1.0000
  H   H23       1.0  0.44981  0.85053  0.58383  1.0000
  H   H24       1.0  0.40072  0.55019  0.58383  1.0000
  H   H25       1.0  0.93261  0.81614  0.58284  1.0000
  H   H26       1.0  0.18386  0.11648  0.58284  1.0000
  H   H27       1.0  0.88352  0.06739  0.58284  1.0000
  H   H28       1.0  0.48280  0.26595  0.25050  1.0000
  H   H29       1.0  0.78314  0.51720  0.25050  1.0000
  H   H30       1.0  0.73405  0.21686  0.25050  1.0000
  H   H31       1.0  0.26595  0.48280  0.24950  1.0000
  H   H32       1.0  0.51720  0.78314  0.24950  1.0000
  H   H33       1.0  0.21686  0.73405  0.24950  1.0000
  H   H34       1.0  0.81614  0.93261  0.91716  1.0000
  H   H35       1.0  0.11648  0.18386  0.91716  1.0000
  H   H36       1.0  0.06739  0.88352  0.91716  1.0000
  C   C73       1.0  0.42130  0.96980  0.14526  1.0000
  C   C74       1.0  0.03020  0.45150  0.14526  1.0000
  C   C75       1.0  0.54850  0.57870  0.14526  1.0000
  C   C76       1.0  0.96980  0.42130  0.35474  1.0000
  C   C77       1.0  0.45150  0.03020  0.35474  1.0000
  C   C78       1.0  0.57870  0.54850  0.35474  1.0000
  C   C79       1.0  0.08797  0.30313  0.47859  1.0000
  C   C80       1.0  0.69687  0.78483  0.47859  1.0000
  C   C81       1.0  0.21517  0.91203  0.47859  1.0000
  C   C82       1.0  0.63647  0.75463  0.68807  1.0000
  C   C83       1.0  0.11817  0.36353  0.68807  1.0000
  C   C84       1.0  0.24537  0.88183  0.68807  1.0000
  C   C85       1.0  0.75463  0.63647  0.81193  1.0000
  C   C86       1.0  0.36353  0.11817  0.81193  1.0000
  C   C87       1.0  0.88183  0.24537  0.81193  1.0000
  C   C88       1.0  0.30313  0.08797  0.02141  1.0000
  C   C89       1.0  0.78483  0.69687  0.02141  1.0000
  C   C90       1.0  0.91203  0.21517  0.02141  1.0000
  C   C91       1.0  0.57870  0.03020  0.85474  1.0000
  C   C92       1.0  0.96980  0.54850  0.85474  1.0000
  C   C93       1.0  0.45150  0.42130  0.85474  1.0000
  C   C94       1.0  0.03020  0.57870  0.64526  1.0000
  C   C95       1.0  0.54850  0.96980  0.64526  1.0000
  C   C96       1.0  0.42130  0.45150  0.64526  1.0000
  C   C97       1.0  0.91203  0.69687  0.52141  1.0000
  C   C98       1.0  0.30313  0.21517  0.52141  1.0000
  C   C99       1.0  0.78483  0.08797  0.52141  1.0000
  C   C100      1.0  0.36353  0.24537  0.31193  1.0000
  C   C101      1.0  0.88183  0.63647  0.31193  1.0000
  C   C102      1.0  0.75463  0.11817  0.31193  1.0000
  C   C103      1.0  0.24537  0.36353  0.18807  1.0000
  C   C104      1.0  0.63647  0.88183  0.18807  1.0000
  C   C105      1.0  0.11817  0.75463  0.18807  1.0000
  C   C106      1.0  0.69687  0.91203  0.97859  1.0000
  C   C107      1.0  0.21517  0.30313  0.97859  1.0000
  C   C108      1.0  0.08797  0.78483  0.97859  1.0000
  H   H37       1.0  0.42546  0.00036  0.16084  1.0000
  H   H38       1.0  0.99964  0.42510  0.16084  1.0000
  H   H39       1.0  0.57490  0.57454  0.16084  1.0000
  H   H40       1.0  0.00036  0.42546  0.33916  1.0000
  H   H41       1.0  0.42510  0.99964  0.33916  1.0000
  H   H42       1.0  0.57454  0.57490  0.33916  1.0000
  H   H43       1.0  0.09213  0.33369  0.49417  1.0000
  H   H44       1.0  0.66631  0.75843  0.49417  1.0000
  H   H45       1.0  0.24157  0.90787  0.49417  1.0000
  H   H46       1.0  0.66703  0.75879  0.67249  1.0000
  H   H47       1.0  0.09177  0.33297  0.67249  1.0000
  H   H48       1.0  0.24121  0.90823  0.67249  1.0000
  H   H49       1.0  0.75879  0.66703  0.82751  1.0000
  H   H50       1.0  0.33297  0.09177  0.82751  1.0000
  H   H51       1.0  0.90823  0.24121  0.82751  1.0000
  H   H52       1.0  0.33369  0.09213  0.00583  1.0000
  H   H53       1.0  0.75843  0.66631  0.00583  1.0000
  H   H54       1.0  0.90787  0.24157  0.00583  1.0000
  H   H55       1.0  0.57454  0.99964  0.83916  1.0000
  H   H56       1.0  0.00036  0.57490  0.83916  1.0000
  H   H57       1.0  0.42510  0.42546  0.83916  1.0000
  H   H58       1.0  0.99964  0.57454  0.66084  1.0000
  H   H59       1.0  0.57490  0.00036  0.66084  1.0000
  H   H60       1.0  0.42546  0.42510  0.66084  1.0000
  H   H61       1.0  0.90787  0.66631  0.50583  1.0000
  H   H62       1.0  0.33369  0.24157  0.50583  1.0000
  H   H63       1.0  0.75843  0.09213  0.50583  1.0000
  H   H64       1.0  0.33297  0.24121  0.32751  1.0000
  H   H65       1.0  0.90823  0.66703  0.32751  1.0000
  H   H66       1.0  0.75879  0.09177  0.32751  1.0000
  H   H67       1.0  0.24121  0.33297  0.17249  1.0000
  H   H68       1.0  0.66703  0.90823  0.17249  1.0000
  H   H69       1.0  0.09177  0.75879  0.17249  1.0000
  H   H70       1.0  0.66631  0.90787  0.99417  1.0000
  H   H71       1.0  0.24157  0.33369  0.99417  1.0000
  H   H72       1.0  0.09213  0.75843  0.99417  1.0000
  C   C109      1.0  0.49020  0.94140  0.13843  1.0000
  C   C110      1.0  0.05860  0.54880  0.13843  1.0000
  C   C111      1.0  0.45120  0.50980  0.13843  1.0000
  C   C112      1.0  0.94140  0.49020  0.36157  1.0000
  C   C113      1.0  0.54880  0.05860  0.36157  1.0000
  C   C114      1.0  0.50980  0.45120  0.36157  1.0000
  C   C115      1.0  0.15687  0.27473  0.47176  1.0000
  C   C116      1.0  0.72527  0.88213  0.47176  1.0000
  C   C117      1.0  0.11787  0.84313  0.47176  1.0000
  C   C118      1.0  0.60807  0.82353  0.69490  1.0000
  C   C119      1.0  0.21547  0.39193  0.69490  1.0000
  C   C120      1.0  0.17647  0.78453  0.69490  1.0000
  C   C121      1.0  0.82353  0.60807  0.80510  1.0000
  C   C122      1.0  0.39193  0.21547  0.80510  1.0000
  C   C123      1.0  0.78453  0.17647  0.80510  1.0000
  C   C124      1.0  0.27473  0.15687  0.02824  1.0000
  C   C125      1.0  0.88213  0.72527  0.02824  1.0000
  C   C126      1.0  0.84313  0.11787  0.02824  1.0000
  C   C127      1.0  0.50980  0.05860  0.86157  1.0000
  C   C128      1.0  0.94140  0.45120  0.86157  1.0000
  C   C129      1.0  0.54880  0.49020  0.86157  1.0000
  C   C130      1.0  0.05860  0.50980  0.63843  1.0000
  C   C131      1.0  0.45120  0.94140  0.63843  1.0000
  C   C132      1.0  0.49020  0.54880  0.63843  1.0000
  C   C133      1.0  0.84313  0.72527  0.52824  1.0000
  C   C134      1.0  0.27473  0.11787  0.52824  1.0000
  C   C135      1.0  0.88213  0.15687  0.52824  1.0000
  C   C136      1.0  0.39193  0.17647  0.30510  1.0000
  C   C137      1.0  0.78453  0.60807  0.30510  1.0000
  C   C138      1.0  0.82353  0.21547  0.30510  1.0000
  C   C139      1.0  0.17647  0.39193  0.19490  1.0000
  C   C140      1.0  0.60807  0.78453  0.19490  1.0000
  C   C141      1.0  0.21547  0.82353  0.19490  1.0000
  C   C142      1.0  0.72527  0.84313  0.97176  1.0000
  C   C143      1.0  0.11787  0.27473  0.97176  1.0000
  C   C144      1.0  0.15687  0.88213  0.97176  1.0000
  H   H73       1.0  0.54095  0.95280  0.14959  1.0000
  H   H74       1.0  0.04720  0.58815  0.14959  1.0000
  H   H75       1.0  0.41185  0.45905  0.14959  1.0000
  H   H76       1.0  0.95280  0.54095  0.35041  1.0000
  H   H77       1.0  0.58815  0.04720  0.35041  1.0000
  H   H78       1.0  0.45905  0.41185  0.35041  1.0000
  H   H79       1.0  0.20762  0.28613  0.48292  1.0000
  H   H80       1.0  0.71387  0.92148  0.48292  1.0000
  H   H81       1.0  0.07852  0.79238  0.48292  1.0000
  H   H82       1.0  0.61947  0.87428  0.68374  1.0000
  H   H83       1.0  0.25482  0.38053  0.68374  1.0000
  H   H84       1.0  0.12572  0.74518  0.68374  1.0000
  H   H85       1.0  0.87428  0.61947  0.81626  1.0000
  H   H86       1.0  0.38053  0.25482  0.81626  1.0000
  H   H87       1.0  0.74518  0.12572  0.81626  1.0000
  H   H88       1.0  0.28613  0.20762  0.01708  1.0000
  H   H89       1.0  0.92148  0.71387  0.01708  1.0000
  H   H90       1.0  0.79238  0.07852  0.01708  1.0000
  H   H91       1.0  0.45905  0.04720  0.85041  1.0000
  H   H92       1.0  0.95280  0.41185  0.85041  1.0000
  H   H93       1.0  0.58815  0.54095  0.85041  1.0000
  H   H94       1.0  0.04720  0.45905  0.64959  1.0000
  H   H95       1.0  0.41185  0.95280  0.64959  1.0000
  H   H96       1.0  0.54095  0.58815  0.64959  1.0000
  H   H97       1.0  0.79238  0.71387  0.51708  1.0000
  H   H98       1.0  0.28613  0.07852  0.51708  1.0000
  H   H99       1.0  0.92148  0.20762  0.51708  1.0000
  H   H100      1.0  0.38053  0.12572  0.31626  1.0000
  H   H101      1.0  0.74518  0.61947  0.31626  1.0000
  H   H102      1.0  0.87428  0.25482  0.31626  1.0000
  H   H103      1.0  0.12572  0.38053  0.18374  1.0000
  H   H104      1.0  0.61947  0.74518  0.18374  1.0000
  H   H105      1.0  0.25482  0.87428  0.18374  1.0000
  H   H106      1.0  0.71387  0.79238  0.98292  1.0000
  H   H107      1.0  0.07852  0.28613  0.98292  1.0000
  H   H108      1.0  0.20762  0.92148  0.98292  1.0000
  C   C145      1.0  0.48230  0.89710  0.11545  1.0000
  C   C146      1.0  0.10290  0.58520  0.11545  1.0000
  C   C147      1.0  0.41480  0.51770  0.11545  1.0000
  C   C148      1.0  0.89710  0.48230  0.38455  1.0000
  C   C149      1.0  0.58520  0.10290  0.38455  1.0000
  C   C150      1.0  0.51770  0.41480  0.38455  1.0000
  C   C151      1.0  0.14897  0.23043  0.44878  1.0000
  C   C152      1.0  0.76957  0.91853  0.44878  1.0000
  C   C153      1.0  0.08147  0.85103  0.44878  1.0000
  C   C154      1.0  0.56377  0.81563  0.71788  1.0000
  C   C155      1.0  0.25187  0.43623  0.71788  1.0000
  C   C156      1.0  0.18437  0.74813  0.71788  1.0000
  C   C157      1.0  0.81563  0.56377  0.78212  1.0000
  C   C158      1.0  0.43623  0.25187  0.78212  1.0000
  C   C159      1.0  0.74813  0.18437  0.78212  1.0000
  C   C160      1.0  0.23043  0.14897  0.05122  1.0000
  C   C161      1.0  0.91853  0.76957  0.05122  1.0000
  C   C162      1.0  0.85103  0.08147  0.05122  1.0000
  C   C163      1.0  0.51770  0.10290  0.88455  1.0000
  C   C164      1.0  0.89710  0.41480  0.88455  1.0000
  C   C165      1.0  0.58520  0.48230  0.88455  1.0000
  C   C166      1.0  0.10290  0.51770  0.61545  1.0000
  C   C167      1.0  0.41480  0.89710  0.61545  1.0000
  C   C168      1.0  0.48230  0.58520  0.61545  1.0000
  C   C169      1.0  0.85103  0.76957  0.55122  1.0000
  C   C170      1.0  0.23043  0.08147  0.55122  1.0000
  C   C171      1.0  0.91853  0.14897  0.55122  1.0000
  C   C172      1.0  0.43623  0.18437  0.28212  1.0000
  C   C173      1.0  0.74813  0.56377  0.28212  1.0000
  C   C174      1.0  0.81563  0.25187  0.28212  1.0000
  C   C175      1.0  0.18437  0.43623  0.21788  1.0000
  C   C176      1.0  0.56377  0.74813  0.21788  1.0000
  C   C177      1.0  0.25187  0.81563  0.21788  1.0000
  C   C178      1.0  0.76957  0.85103  0.94878  1.0000
  C   C179      1.0  0.08147  0.23043  0.94878  1.0000
  C   C180      1.0  0.14897  0.91853  0.94878  1.0000
  C   C181      1.0  0.26890  0.97760  0.13341  1.0000
  C   C182      1.0  0.02240  0.29130  0.13341  1.0000
  C   C183      1.0  0.70870  0.73110  0.13341  1.0000
  C   C184      1.0  0.97760  0.26890  0.36659  1.0000
  C   C185      1.0  0.29130  0.02240  0.36659  1.0000
  C   C186      1.0  0.73110  0.70870  0.36659  1.0000
  C   C187      1.0  0.93557  0.31093  0.46674  1.0000
  C   C188      1.0  0.68907  0.62463  0.46674  1.0000
  C   C189      1.0  0.37537  0.06443  0.46674  1.0000
  C   C190      1.0  0.64427  0.60223  0.69992  1.0000
  C   C191      1.0  0.95797  0.35573  0.69992  1.0000
  C   C192      1.0  0.39777  0.04203  0.69992  1.0000
  C   C193      1.0  0.60223  0.64427  0.80008  1.0000
  C   C194      1.0  0.35573  0.95797  0.80008  1.0000
  C   C195      1.0  0.04203  0.39777  0.80008  1.0000
  C   C196      1.0  0.31093  0.93557  0.03326  1.0000
  C   C197      1.0  0.62463  0.68907  0.03326  1.0000
  C   C198      1.0  0.06443  0.37537  0.03326  1.0000
  C   C199      1.0  0.73110  0.02240  0.86659  1.0000
  C   C200      1.0  0.97760  0.70870  0.86659  1.0000
  C   C201      1.0  0.29130  0.26890  0.86659  1.0000
  C   C202      1.0  0.02240  0.73110  0.63341  1.0000
  C   C203      1.0  0.70870  0.97760  0.63341  1.0000
  C   C204      1.0  0.26890  0.29130  0.63341  1.0000
  C   C205      1.0  0.06443  0.68907  0.53326  1.0000
  C   C206      1.0  0.31093  0.37537  0.53326  1.0000
  C   C207      1.0  0.62463  0.93557  0.53326  1.0000
  C   C208      1.0  0.35573  0.39777  0.30008  1.0000
  C   C209      1.0  0.04203  0.64427  0.30008  1.0000
  C   C210      1.0  0.60223  0.95797  0.30008  1.0000
  C   C211      1.0  0.39777  0.35573  0.19992  1.0000
  C   C212      1.0  0.64427  0.04203  0.19992  1.0000
  C   C213      1.0  0.95797  0.60223  0.19992  1.0000
  C   C214      1.0  0.68907  0.06443  0.96674  1.0000
  C   C215      1.0  0.37537  0.31093  0.96674  1.0000
  C   C216      1.0  0.93557  0.62463  0.96674  1.0000
  O   O1        1.0  0.20640  0.95840  0.11608  1.0000
  O   O2        1.0  0.04160  0.24800  0.11608  1.0000
  O   O3        1.0  0.75200  0.79360  0.11608  1.0000
  O   O4        1.0  0.95840  0.20640  0.38392  1.0000
  O   O5        1.0  0.24800  0.04160  0.38392  1.0000
  O   O6        1.0  0.79360  0.75200  0.38392  1.0000
  O   O7        1.0  0.87307  0.29173  0.44941  1.0000
  O   O8        1.0  0.70827  0.58133  0.44941  1.0000
  O   O9        1.0  0.41867  0.12693  0.44941  1.0000
  O   O10       1.0  0.62507  0.53973  0.71725  1.0000
  O   O11       1.0  0.91467  0.37493  0.71725  1.0000
  O   O12       1.0  0.46027  0.08533  0.71725  1.0000
  O   O13       1.0  0.53973  0.62507  0.78275  1.0000
  O   O14       1.0  0.37493  0.91467  0.78275  1.0000
  O   O15       1.0  0.08533  0.46027  0.78275  1.0000
  O   O16       1.0  0.29173  0.87307  0.05059  1.0000
  O   O17       1.0  0.58133  0.70827  0.05059  1.0000
  O   O18       1.0  0.12693  0.41867  0.05059  1.0000
  O   O19       1.0  0.79360  0.04160  0.88392  1.0000
  O   O20       1.0  0.95840  0.75200  0.88392  1.0000
  O   O21       1.0  0.24800  0.20640  0.88392  1.0000
  O   O22       1.0  0.04160  0.79360  0.61608  1.0000
  O   O23       1.0  0.75200  0.95840  0.61608  1.0000
  O   O24       1.0  0.20640  0.24800  0.61608  1.0000
  O   O25       1.0  0.12693  0.70827  0.55059  1.0000
  O   O26       1.0  0.29173  0.41867  0.55059  1.0000
  O   O27       1.0  0.58133  0.87307  0.55059  1.0000
  O   O28       1.0  0.37493  0.46027  0.28275  1.0000
  O   O29       1.0  0.08533  0.62507  0.28275  1.0000
  O   O30       1.0  0.53973  0.91467  0.28275  1.0000
  O   O31       1.0  0.46027  0.37493  0.21725  1.0000
  O   O32       1.0  0.62507  0.08533  0.21725  1.0000
  O   O33       1.0  0.91467  0.53973  0.21725  1.0000
  O   O34       1.0  0.70827  0.12693  0.94941  1.0000
  O   O35       1.0  0.41867  0.29173  0.94941  1.0000
  O   O36       1.0  0.87307  0.58133  0.94941  1.0000
  O   O37       1.0  0.27170  0.01590  0.15419  1.0000
  O   O38       1.0  0.98410  0.25580  0.15419  1.0000
  O   O39       1.0  0.74420  0.72830  0.15419  1.0000
  O   O40       1.0  0.01590  0.27170  0.34581  1.0000
  O   O41       1.0  0.25580  0.98410  0.34581  1.0000
  O   O42       1.0  0.72830  0.74420  0.34581  1.0000
  O   O43       1.0  0.93837  0.34923  0.48752  1.0000
  O   O44       1.0  0.65077  0.58913  0.48752  1.0000
  O   O45       1.0  0.41087  0.06163  0.48752  1.0000
  O   O46       1.0  0.68257  0.60503  0.67914  1.0000
  O   O47       1.0  0.92247  0.31743  0.67914  1.0000
  O   O48       1.0  0.39497  0.07753  0.67914  1.0000
  O   O49       1.0  0.60503  0.68257  0.82086  1.0000
  O   O50       1.0  0.31743  0.92247  0.82086  1.0000
  O   O51       1.0  0.07753  0.39497  0.82086  1.0000
  O   O52       1.0  0.34923  0.93837  0.01248  1.0000
  O   O53       1.0  0.58913  0.65077  0.01248  1.0000
  O   O54       1.0  0.06163  0.41087  0.01248  1.0000
  O   O55       1.0  0.72830  0.98410  0.84581  1.0000
  O   O56       1.0  0.01590  0.74420  0.84581  1.0000
  O   O57       1.0  0.25580  0.27170  0.84581  1.0000
  O   O58       1.0  0.98410  0.72830  0.65419  1.0000
  O   O59       1.0  0.74420  0.01590  0.65419  1.0000
  O   O60       1.0  0.27170  0.25580  0.65419  1.0000
  O   O61       1.0  0.06163  0.65077  0.51248  1.0000
  O   O62       1.0  0.34923  0.41087  0.51248  1.0000
  O   O63       1.0  0.58913  0.93837  0.51248  1.0000
  O   O64       1.0  0.31743  0.39497  0.32086  1.0000
  O   O65       1.0  0.07753  0.68257  0.32086  1.0000
  O   O66       1.0  0.60503  0.92247  0.32086  1.0000
  O   O67       1.0  0.39497  0.31743  0.17914  1.0000
  O   O68       1.0  0.68257  0.07753  0.17914  1.0000
  O   O69       1.0  0.92247  0.60503  0.17914  1.0000
  O   O70       1.0  0.65077  0.06163  0.98752  1.0000
  O   O71       1.0  0.41087  0.34923  0.98752  1.0000
  O   O72       1.0  0.93837  0.58913  0.98752  1.0000
  C   C217      1.0  0.55470  0.86630  0.10804  1.0000
  C   C218      1.0  0.13370  0.68840  0.10804  1.0000
  C   C219      1.0  0.31160  0.44530  0.10804  1.0000
  C   C220      1.0  0.86630  0.55470  0.39196  1.0000
  C   C221      1.0  0.68840  0.13370  0.39196  1.0000
  C   C222      1.0  0.44530  0.31160  0.39196  1.0000
  C   C223      1.0  0.22137  0.19963  0.44137  1.0000
  C   C224      1.0  0.80037  0.02173  0.44137  1.0000
  C   C225      1.0  0.97827  0.77863  0.44137  1.0000
  C   C226      1.0  0.53297  0.88803  0.72529  1.0000
  C   C227      1.0  0.35507  0.46703  0.72529  1.0000
  C   C228      1.0  0.11197  0.64493  0.72529  1.0000
  C   C229      1.0  0.88803  0.53297  0.77471  1.0000
  C   C230      1.0  0.46703  0.35507  0.77471  1.0000
  C   C231      1.0  0.64493  0.11197  0.77471  1.0000
  C   C232      1.0  0.19963  0.22137  0.05863  1.0000
  C   C233      1.0  0.02173  0.80037  0.05863  1.0000
  C   C234      1.0  0.77863  0.97827  0.05863  1.0000
  C   C235      1.0  0.44530  0.13370  0.89196  1.0000
  C   C236      1.0  0.86630  0.31160  0.89196  1.0000
  C   C237      1.0  0.68840  0.55470  0.89196  1.0000
  C   C238      1.0  0.13370  0.44530  0.60804  1.0000
  C   C239      1.0  0.31160  0.86630  0.60804  1.0000
  C   C240      1.0  0.55470  0.68840  0.60804  1.0000
  C   C241      1.0  0.77863  0.80037  0.55863  1.0000
  C   C242      1.0  0.19963  0.97827  0.55863  1.0000
  C   C243      1.0  0.02173  0.22137  0.55863  1.0000
  C   C244      1.0  0.46703  0.11197  0.27471  1.0000
  C   C245      1.0  0.64493  0.53297  0.27471  1.0000
  C   C246      1.0  0.88803  0.35507  0.27471  1.0000
  C   C247      1.0  0.11197  0.46703  0.22529  1.0000
  C   C248      1.0  0.53297  0.64493  0.22529  1.0000
  C   C249      1.0  0.35507  0.88803  0.22529  1.0000
  C   C250      1.0  0.80037  0.77863  0.94137  1.0000
  C   C251      1.0  0.97827  0.19963  0.94137  1.0000
  C   C252      1.0  0.22137  0.02173  0.94137  1.0000
  O   O73       1.0  0.54820  0.83320  0.08567  1.0000
  O   O74       1.0  0.16680  0.71500  0.08567  1.0000
  O   O75       1.0  0.28500  0.45180  0.08567  1.0000
  O   O76       1.0  0.83320  0.54820  0.41433  1.0000
  O   O77       1.0  0.71500  0.16680  0.41433  1.0000
  O   O78       1.0  0.45180  0.28500  0.41433  1.0000
  O   O79       1.0  0.21487  0.16653  0.41900  1.0000
  O   O80       1.0  0.83347  0.04833  0.41900  1.0000
  O   O81       1.0  0.95167  0.78513  0.41900  1.0000
  O   O82       1.0  0.49987  0.88153  0.74766  1.0000
  O   O83       1.0  0.38167  0.50013  0.74766  1.0000
  O   O84       1.0  0.11847  0.61833  0.74766  1.0000
  O   O85       1.0  0.88153  0.49987  0.75234  1.0000
  O   O86       1.0  0.50013  0.38167  0.75234  1.0000
  O   O87       1.0  0.61833  0.11847  0.75234  1.0000
  O   O88       1.0  0.16653  0.21487  0.08100  1.0000
  O   O89       1.0  0.04833  0.83347  0.08100  1.0000
  O   O90       1.0  0.78513  0.95167  0.08100  1.0000
  O   O91       1.0  0.45180  0.16680  0.91433  1.0000
  O   O92       1.0  0.83320  0.28500  0.91433  1.0000
  O   O93       1.0  0.71500  0.54820  0.91433  1.0000
  O   O94       1.0  0.16680  0.45180  0.58567  1.0000
  O   O95       1.0  0.28500  0.83320  0.58567  1.0000
  O   O96       1.0  0.54820  0.71500  0.58567  1.0000
  O   O97       1.0  0.78513  0.83347  0.58100  1.0000
  O   O98       1.0  0.16653  0.95167  0.58100  1.0000
  O   O99       1.0  0.04833  0.21487  0.58100  1.0000
  O   O100      1.0  0.50013  0.11847  0.25234  1.0000
  O   O101      1.0  0.61833  0.49987  0.25234  1.0000
  O   O102      1.0  0.88153  0.38167  0.25234  1.0000
  O   O103      1.0  0.11847  0.50013  0.24766  1.0000
  O   O104      1.0  0.49987  0.61833  0.24766  1.0000
  O   O105      1.0  0.38167  0.88153  0.24766  1.0000
  O   O106      1.0  0.83347  0.78513  0.91900  1.0000
  O   O107      1.0  0.95167  0.16653  0.91900  1.0000
  O   O108      1.0  0.21487  0.04833  0.91900  1.0000
  O   O109      1.0  0.61790  0.87400  0.12280  1.0000
  O   O110      1.0  0.12600  0.74390  0.12280  1.0000
  O   O111      1.0  0.25610  0.38210  0.12280  1.0000
  O   O112      1.0  0.87400  0.61790  0.37720  1.0000
  O   O113      1.0  0.74390  0.12600  0.37720  1.0000
  O   O114      1.0  0.38210  0.25610  0.37720  1.0000
  O   O115      1.0  0.28457  0.20733  0.45613  1.0000
  O   O116      1.0  0.79267  0.07723  0.45613  1.0000
  O   O117      1.0  0.92277  0.71543  0.45613  1.0000
  O   O118      1.0  0.54067  0.95123  0.71053  1.0000
  O   O119      1.0  0.41057  0.45933  0.71053  1.0000
  O   O120      1.0  0.04877  0.58943  0.71053  1.0000
  O   O121      1.0  0.95123  0.54067  0.78947  1.0000
  O   O122      1.0  0.45933  0.41057  0.78947  1.0000
  O   O123      1.0  0.58943  0.04877  0.78947  1.0000
  O   O124      1.0  0.20733  0.28457  0.04387  1.0000
  O   O125      1.0  0.07723  0.79267  0.04387  1.0000
  O   O126      1.0  0.71543  0.92277  0.04387  1.0000
  O   O127      1.0  0.38210  0.12600  0.87720  1.0000
  O   O128      1.0  0.87400  0.25610  0.87720  1.0000
  O   O129      1.0  0.74390  0.61790  0.87720  1.0000
  O   O130      1.0  0.12600  0.38210  0.62280  1.0000
  O   O131      1.0  0.25610  0.87400  0.62280  1.0000
  O   O132      1.0  0.61790  0.74390  0.62280  1.0000
  O   O133      1.0  0.71543  0.79267  0.54387  1.0000
  O   O134      1.0  0.20733  0.92277  0.54387  1.0000
  O   O135      1.0  0.07723  0.28457  0.54387  1.0000
  O   O136      1.0  0.45933  0.04877  0.28947  1.0000
  O   O137      1.0  0.58943  0.54067  0.28947  1.0000
  O   O138      1.0  0.95123  0.41057  0.28947  1.0000
  O   O139      1.0  0.04877  0.45933  0.21053  1.0000
  O   O140      1.0  0.54067  0.58943  0.21053  1.0000
  O   O141      1.0  0.41057  0.95123  0.21053  1.0000
  O   O142      1.0  0.79267  0.71543  0.95613  1.0000
  O   O143      1.0  0.92277  0.20733  0.95613  1.0000
  O   O144      1.0  0.28457  0.07723  0.95613  1.0000
