data_image0
_chemical_formula_structural       Ce3O36C18Ce6C18O36H36C18
_chemical_formula_sum              "Ce9 O72 C54 H36"
_cell_length_a       10.2024
_cell_length_b       10.2024
_cell_length_c       31.0818
_cell_angle_alpha    90
_cell_angle_beta     90
_cell_angle_gamma    120

_space_group_name_H-M_alt    "P 1"
_space_group_IT_number       1

loop_
  _space_group_symop_operation_xyz
  'x, y, z'

loop_
  _atom_site_type_symbol
  _atom_site_label
  _atom_site_symmetry_multiplicity
  _atom_site_fract_x
  _atom_site_fract_y
  _atom_site_fract_z
  _atom_site_occupancy
  Ce  Ce1       1.0  0.66670  0.33330  0.33330  1.0000
  Ce  Ce2       1.0  0.33337  0.66663  0.66663  1.0000
  Ce  Ce3       1.0  0.00003  0.99997  0.99997  1.0000
  O   O1        1.0  0.38720  0.24220  0.31190  1.0000
  O   O2        1.0  0.75780  0.14500  0.31190  1.0000
  O   O3        1.0  0.85500  0.61280  0.31190  1.0000
  O   O4        1.0  0.05387  0.57553  0.64523  1.0000
  O   O5        1.0  0.42447  0.47833  0.64523  1.0000
  O   O6        1.0  0.52167  0.94613  0.64523  1.0000
  O   O7        1.0  0.72053  0.90887  0.97857  1.0000
  O   O8        1.0  0.09113  0.81167  0.97857  1.0000
  O   O9        1.0  0.18833  0.27947  0.97857  1.0000
  O   O10       1.0  0.61280  0.75780  0.68810  1.0000
  O   O11       1.0  0.24220  0.85500  0.68810  1.0000
  O   O12       1.0  0.14500  0.38720  0.68810  1.0000
  O   O13       1.0  0.94613  0.42447  0.35477  1.0000
  O   O14       1.0  0.57553  0.52167  0.35477  1.0000
  O   O15       1.0  0.47833  0.05387  0.35477  1.0000
  O   O16       1.0  0.27947  0.09113  0.02143  1.0000
  O   O17       1.0  0.90887  0.18833  0.02143  1.0000
  O   O18       1.0  0.81167  0.72053  0.02143  1.0000
  O   O19       1.0  0.50231  0.17740  0.26380  1.0000
  O   O20       1.0  0.82260  0.32491  0.26380  1.0000
  O   O21       1.0  0.67509  0.49769  0.26380  1.0000
  O   O22       1.0  0.16898  0.51073  0.59713  1.0000
  O   O23       1.0  0.48927  0.65824  0.59713  1.0000
  O   O24       1.0  0.34176  0.83102  0.59713  1.0000
  O   O25       1.0  0.83564  0.84407  0.93047  1.0000
  O   O26       1.0  0.15593  0.99158  0.93047  1.0000
  O   O27       1.0  0.00842  0.16436  0.93047  1.0000
  O   O28       1.0  0.49769  0.82260  0.73620  1.0000
  O   O29       1.0  0.17740  0.67509  0.73620  1.0000
  O   O30       1.0  0.32491  0.50231  0.73620  1.0000
  O   O31       1.0  0.83102  0.48927  0.40287  1.0000
  O   O32       1.0  0.51073  0.34176  0.40287  1.0000
  O   O33       1.0  0.65824  0.16898  0.40287  1.0000
  O   O34       1.0  0.16436  0.15593  0.06953  1.0000
  O   O35       1.0  0.84407  0.00842  0.06953  1.0000
  O   O36       1.0  0.99158  0.83564  0.06953  1.0000
  C   C1        1.0  0.38670  0.18260  0.27689  1.0000
  C   C2        1.0  0.81740  0.20410  0.27689  1.0000
  C   C3        1.0  0.79590  0.61330  0.27689  1.0000
  C   C4        1.0  0.05337  0.51593  0.61022  1.0000
  C   C5        1.0  0.48407  0.53743  0.61022  1.0000
  C   C6        1.0  0.46257  0.94663  0.61022  1.0000
  C   C7        1.0  0.72003  0.84927  0.94356  1.0000
  C   C8        1.0  0.15073  0.87077  0.94356  1.0000
  C   C9        1.0  0.12923  0.27997  0.94356  1.0000
  C   C10       1.0  0.61330  0.81740  0.72311  1.0000
  C   C11       1.0  0.18260  0.79590  0.72311  1.0000
  C   C12       1.0  0.20410  0.38670  0.72311  1.0000
  C   C13       1.0  0.94663  0.48407  0.38978  1.0000
  C   C14       1.0  0.51593  0.46257  0.38978  1.0000
  C   C15       1.0  0.53743  0.05337  0.38978  1.0000
  C   C16       1.0  0.27997  0.15073  0.05644  1.0000
  C   C17       1.0  0.84927  0.12923  0.05644  1.0000
  C   C18       1.0  0.87077  0.72003  0.05644  1.0000
  Ce  Ce4       1.0  0.66670  0.33330  0.20143  1.0000
  Ce  Ce5       1.0  0.33337  0.66663  0.53476  1.0000
  Ce  Ce6       1.0  0.00003  0.99997  0.86810  1.0000
  Ce  Ce7       1.0  0.33330  0.66670  0.79857  1.0000
  Ce  Ce8       1.0  0.66663  0.33337  0.46524  1.0000
  Ce  Ce9       1.0  0.99997  0.00003  0.13190  1.0000
  C   C19       1.0  0.25020  0.12130  0.24825  1.0000
  C   C20       1.0  0.87870  0.12890  0.24825  1.0000
  C   C21       1.0  0.87110  0.74980  0.24825  1.0000
  C   C22       1.0  0.91687  0.45463  0.58158  1.0000
  C   C23       1.0  0.54537  0.46223  0.58158  1.0000
  C   C24       1.0  0.53777  0.08313  0.58158  1.0000
  C   C25       1.0  0.58353  0.78797  0.91492  1.0000
  C   C26       1.0  0.21203  0.79557  0.91492  1.0000
  C   C27       1.0  0.20443  0.41647  0.91492  1.0000
  C   C28       1.0  0.74980  0.87870  0.75175  1.0000
  C   C29       1.0  0.12130  0.87110  0.75175  1.0000
  C   C30       1.0  0.12890  0.25020  0.75175  1.0000
  C   C31       1.0  0.08313  0.54537  0.41842  1.0000
  C   C32       1.0  0.45463  0.53777  0.41842  1.0000
  C   C33       1.0  0.46223  0.91687  0.41842  1.0000
  C   C34       1.0  0.41647  0.21203  0.08508  1.0000
  C   C35       1.0  0.78797  0.20443  0.08508  1.0000
  C   C36       1.0  0.79557  0.58353  0.08508  1.0000
  O   O37       1.0  0.41162  0.32820  0.20223  1.0000
  O   O38       1.0  0.67180  0.08342  0.20223  1.0000
  O   O39       1.0  0.91658  0.58838  0.20223  1.0000
  O   O40       1.0  0.07829  0.66153  0.53556  1.0000
  O   O41       1.0  0.33847  0.41675  0.53556  1.0000
  O   O42       1.0  0.58325  0.92171  0.53556  1.0000
  O   O43       1.0  0.74495  0.99487  0.86890  1.0000
  O   O44       1.0  0.00513  0.75009  0.86890  1.0000
  O   O45       1.0  0.24991  0.25505  0.86890  1.0000
  O   O46       1.0  0.58838  0.67180  0.79777  1.0000
  O   O47       1.0  0.32820  0.91658  0.79777  1.0000
  O   O48       1.0  0.08342  0.41162  0.79777  1.0000
  O   O49       1.0  0.92171  0.33847  0.46444  1.0000
  O   O50       1.0  0.66153  0.58325  0.46444  1.0000
  O   O51       1.0  0.41675  0.07829  0.46444  1.0000
  O   O52       1.0  0.25505  0.00513  0.13110  1.0000
  O   O53       1.0  0.99487  0.24991  0.13110  1.0000
  O   O54       1.0  0.75009  0.74495  0.13110  1.0000
  O   O55       1.0  0.49660  0.14210  0.14848  1.0000
  O   O56       1.0  0.85790  0.35450  0.14848  1.0000
  O   O57       1.0  0.64550  0.50340  0.14848  1.0000
  O   O58       1.0  0.16327  0.47543  0.48181  1.0000
  O   O59       1.0  0.52457  0.68783  0.48181  1.0000
  O   O60       1.0  0.31217  0.83673  0.48181  1.0000
  O   O61       1.0  0.82993  0.80877  0.81515  1.0000
  O   O62       1.0  0.19123  0.02117  0.81515  1.0000
  O   O63       1.0  0.97883  0.17007  0.81515  1.0000
  O   O64       1.0  0.50340  0.85790  0.85152  1.0000
  O   O65       1.0  0.14210  0.64550  0.85152  1.0000
  O   O66       1.0  0.35450  0.49660  0.85152  1.0000
  O   O67       1.0  0.83673  0.52457  0.51819  1.0000
  O   O68       1.0  0.47543  0.31217  0.51819  1.0000
  O   O69       1.0  0.68783  0.16327  0.51819  1.0000
  O   O70       1.0  0.17007  0.19123  0.18485  1.0000
  O   O71       1.0  0.80877  0.97883  0.18485  1.0000
  O   O72       1.0  0.02117  0.82993  0.18485  1.0000
  H   H1        1.0  0.16590  0.11570  0.26420  1.0000
  H   H2        1.0  0.88430  0.05020  0.26420  1.0000
  H   H3        1.0  0.94980  0.83410  0.26420  1.0000
  H   H4        1.0  0.83257  0.44903  0.59753  1.0000
  H   H5        1.0  0.55097  0.38353  0.59753  1.0000
  H   H6        1.0  0.61647  0.16743  0.59753  1.0000
  H   H7        1.0  0.49923  0.78237  0.93087  1.0000
  H   H8        1.0  0.21763  0.71687  0.93087  1.0000
  H   H9        1.0  0.28313  0.50077  0.93087  1.0000
  H   H10       1.0  0.83410  0.88430  0.73580  1.0000
  H   H11       1.0  0.11570  0.94980  0.73580  1.0000
  H   H12       1.0  0.05020  0.16590  0.73580  1.0000
  H   H13       1.0  0.16743  0.55097  0.40247  1.0000
  H   H14       1.0  0.44903  0.61647  0.40247  1.0000
  H   H15       1.0  0.38353  0.83257  0.40247  1.0000
  H   H16       1.0  0.50077  0.21763  0.06913  1.0000
  H   H17       1.0  0.78237  0.28313  0.06913  1.0000
  H   H18       1.0  0.71687  0.49923  0.06913  1.0000
  H   H19       1.0  0.22240  0.01960  0.23920  1.0000
  H   H20       1.0  0.98040  0.20280  0.23920  1.0000
  H   H21       1.0  0.79720  0.77760  0.23920  1.0000
  H   H22       1.0  0.88907  0.35293  0.57253  1.0000
  H   H23       1.0  0.64707  0.53613  0.57253  1.0000
  H   H24       1.0  0.46387  0.11093  0.57253  1.0000
  H   H25       1.0  0.55573  0.68627  0.90587  1.0000
  H   H26       1.0  0.31373  0.86947  0.90587  1.0000
  H   H27       1.0  0.13053  0.44427  0.90587  1.0000
  H   H28       1.0  0.77760  0.98040  0.76080  1.0000
  H   H29       1.0  0.01960  0.79720  0.76080  1.0000
  H   H30       1.0  0.20280  0.22240  0.76080  1.0000
  H   H31       1.0  0.11093  0.64707  0.42747  1.0000
  H   H32       1.0  0.35293  0.46387  0.42747  1.0000
  H   H33       1.0  0.53613  0.88907  0.42747  1.0000
  H   H34       1.0  0.44427  0.31373  0.09413  1.0000
  H   H35       1.0  0.68627  0.13053  0.09413  1.0000
  H   H36       1.0  0.86947  0.55573  0.09413  1.0000
  C   C37       1.0  0.28040  0.22020  0.20885  1.0000
  C   C38       1.0  0.77980  0.06020  0.20885  1.0000
  C   C39       1.0  0.93980  0.71960  0.20885  1.0000
  C   C40       1.0  0.94707  0.55353  0.54218  1.0000
  C   C41       1.0  0.44647  0.39353  0.54218  1.0000
  C   C42       1.0  0.60647  0.05293  0.54218  1.0000
  C   C43       1.0  0.61373  0.88687  0.87552  1.0000
  C   C44       1.0  0.11313  0.72687  0.87552  1.0000
  C   C45       1.0  0.27313  0.38627  0.87552  1.0000
  C   C46       1.0  0.71960  0.77980  0.79115  1.0000
  C   C47       1.0  0.22020  0.93980  0.79115  1.0000
  C   C48       1.0  0.06020  0.28040  0.79115  1.0000
  C   C49       1.0  0.05293  0.44647  0.45782  1.0000
  C   C50       1.0  0.55353  0.60647  0.45782  1.0000
  C   C51       1.0  0.39353  0.94707  0.45782  1.0000
  C   C52       1.0  0.38627  0.11313  0.12448  1.0000
  C   C53       1.0  0.88687  0.27313  0.12448  1.0000
  C   C54       1.0  0.72687  0.61373  0.12448  1.0000
