data_image0
_chemical_formula_structural       Pr9O72C36H36C18
_chemical_formula_sum              "Pr9 O72 C54 H36"
_cell_length_a       10.1821
_cell_length_b       10.1821
_cell_length_c       30.9216
_cell_angle_alpha    90
_cell_angle_beta     90
_cell_angle_gamma    120

_space_group_name_H-M_alt    "P 1"
_space_group_IT_number       1

loop_
  _space_group_symop_operation_xyz
  'x, y, z'

loop_
  _atom_site_type_symbol
  _atom_site_label
  _atom_site_symmetry_multiplicity
  _atom_site_fract_x
  _atom_site_fract_y
  _atom_site_fract_z
  _atom_site_occupancy
  Pr  Pr1       1.0  0.00000  0.00000  0.00000  1.0000
  Pr  Pr2       1.0  0.66667  0.33333  0.33333  1.0000
  Pr  Pr3       1.0  0.33333  0.66667  0.66667  1.0000
  Pr  Pr4       1.0  0.00000  0.00000  0.13200  1.0000
  Pr  Pr5       1.0  0.66667  0.33333  0.46534  1.0000
  Pr  Pr6       1.0  0.33333  0.66667  0.79867  1.0000
  Pr  Pr7       1.0  0.00000  0.00000  0.86800  1.0000
  Pr  Pr8       1.0  0.33333  0.66667  0.53466  1.0000
  Pr  Pr9       1.0  0.66667  0.33333  0.20133  1.0000
  O   O1        1.0  0.27781  0.18659  0.02133  1.0000
  O   O2        1.0  0.81341  0.09122  0.02133  1.0000
  O   O3        1.0  0.90878  0.72219  0.02133  1.0000
  O   O4        1.0  0.94448  0.51992  0.35466  1.0000
  O   O5        1.0  0.48008  0.42455  0.35466  1.0000
  O   O6        1.0  0.57545  0.05552  0.35466  1.0000
  O   O7        1.0  0.61114  0.85326  0.68800  1.0000
  O   O8        1.0  0.14674  0.75789  0.68800  1.0000
  O   O9        1.0  0.24211  0.38886  0.68800  1.0000
  O   O10       1.0  0.72219  0.81341  0.97867  1.0000
  O   O11       1.0  0.18659  0.90878  0.97867  1.0000
  O   O12       1.0  0.09122  0.27781  0.97867  1.0000
  O   O13       1.0  0.05552  0.48008  0.64534  1.0000
  O   O14       1.0  0.51992  0.57545  0.64534  1.0000
  O   O15       1.0  0.42455  0.94448  0.64534  1.0000
  O   O16       1.0  0.38886  0.14674  0.31200  1.0000
  O   O17       1.0  0.85326  0.24211  0.31200  1.0000
  O   O18       1.0  0.75789  0.61114  0.31200  1.0000
  O   O19       1.0  0.16268  0.00656  0.06990  1.0000
  O   O20       1.0  0.99344  0.15612  0.06990  1.0000
  O   O21       1.0  0.84388  0.83732  0.06990  1.0000
  O   O22       1.0  0.82935  0.33989  0.40323  1.0000
  O   O23       1.0  0.66011  0.48945  0.40323  1.0000
  O   O24       1.0  0.51055  0.17065  0.40323  1.0000
  O   O25       1.0  0.49601  0.67323  0.73657  1.0000
  O   O26       1.0  0.32677  0.82279  0.73657  1.0000
  O   O27       1.0  0.17721  0.50399  0.73657  1.0000
  O   O28       1.0  0.83732  0.99344  0.93010  1.0000
  O   O29       1.0  0.00656  0.84388  0.93010  1.0000
  O   O30       1.0  0.15612  0.16268  0.93010  1.0000
  O   O31       1.0  0.17065  0.66011  0.59677  1.0000
  O   O32       1.0  0.33989  0.51055  0.59677  1.0000
  O   O33       1.0  0.48945  0.82935  0.59677  1.0000
  O   O34       1.0  0.50399  0.32677  0.26343  1.0000
  O   O35       1.0  0.67323  0.17721  0.26343  1.0000
  O   O36       1.0  0.82279  0.49601  0.26343  1.0000
  O   O37       1.0  0.25444  0.24843  0.13144  1.0000
  O   O38       1.0  0.75157  0.00601  0.13144  1.0000
  O   O39       1.0  0.99399  0.74556  0.13144  1.0000
  O   O40       1.0  0.92111  0.58176  0.46477  1.0000
  O   O41       1.0  0.41824  0.33934  0.46477  1.0000
  O   O42       1.0  0.66066  0.07889  0.46477  1.0000
  O   O43       1.0  0.58777  0.91510  0.79811  1.0000
  O   O44       1.0  0.08490  0.67268  0.79811  1.0000
  O   O45       1.0  0.32732  0.41223  0.79811  1.0000
  O   O46       1.0  0.74556  0.75157  0.86856  1.0000
  O   O47       1.0  0.24843  0.99399  0.86856  1.0000
  O   O48       1.0  0.00601  0.25444  0.86856  1.0000
  O   O49       1.0  0.07889  0.41824  0.53523  1.0000
  O   O50       1.0  0.58176  0.66066  0.53523  1.0000
  O   O51       1.0  0.33934  0.92111  0.53523  1.0000
  O   O52       1.0  0.41223  0.08490  0.20189  1.0000
  O   O53       1.0  0.91510  0.32732  0.20189  1.0000
  O   O54       1.0  0.67268  0.58777  0.20189  1.0000
  O   O55       1.0  0.49701  0.35411  0.14869  1.0000
  O   O56       1.0  0.64589  0.14290  0.14869  1.0000
  O   O57       1.0  0.85710  0.50299  0.14869  1.0000
  O   O58       1.0  0.16368  0.68744  0.48202  1.0000
  O   O59       1.0  0.31256  0.47623  0.48202  1.0000
  O   O60       1.0  0.52377  0.83632  0.48202  1.0000
  O   O61       1.0  0.83034  0.02078  0.81536  1.0000
  O   O62       1.0  0.97922  0.80957  0.81536  1.0000
  O   O63       1.0  0.19043  0.16966  0.81536  1.0000
  O   O64       1.0  0.50299  0.64589  0.85131  1.0000
  O   O65       1.0  0.35411  0.85710  0.85131  1.0000
  O   O66       1.0  0.14290  0.49701  0.85131  1.0000
  O   O67       1.0  0.83632  0.31256  0.51798  1.0000
  O   O68       1.0  0.68744  0.52377  0.51798  1.0000
  O   O69       1.0  0.47623  0.16368  0.51798  1.0000
  O   O70       1.0  0.16966  0.97922  0.18464  1.0000
  O   O71       1.0  0.02078  0.19043  0.18464  1.0000
  O   O72       1.0  0.80957  0.83034  0.18464  1.0000
  C   C1        1.0  0.27828  0.12737  0.05658  1.0000
  C   C2        1.0  0.87263  0.15091  0.05658  1.0000
  C   C3        1.0  0.84909  0.72172  0.05658  1.0000
  C   C4        1.0  0.94495  0.46070  0.38991  1.0000
  C   C5        1.0  0.53930  0.48424  0.38991  1.0000
  C   C6        1.0  0.51576  0.05505  0.38991  1.0000
  C   C7        1.0  0.61161  0.79404  0.72325  1.0000
  C   C8        1.0  0.20596  0.81758  0.72325  1.0000
  C   C9        1.0  0.18242  0.38839  0.72325  1.0000
  C   C10       1.0  0.72172  0.87263  0.94342  1.0000
  C   C11       1.0  0.12737  0.84909  0.94342  1.0000
  C   C12       1.0  0.15091  0.27828  0.94342  1.0000
  C   C13       1.0  0.05505  0.53930  0.61009  1.0000
  C   C14       1.0  0.46070  0.51576  0.61009  1.0000
  C   C15       1.0  0.48424  0.94495  0.61009  1.0000
  C   C16       1.0  0.38839  0.20596  0.27675  1.0000
  C   C17       1.0  0.79404  0.18242  0.27675  1.0000
  C   C18       1.0  0.81758  0.61161  0.27675  1.0000
  C   C19       1.0  0.41594  0.20272  0.08518  1.0000
  C   C20       1.0  0.79728  0.21322  0.08518  1.0000
  C   C21       1.0  0.78678  0.58406  0.08518  1.0000
  C   C22       1.0  0.08261  0.53605  0.41851  1.0000
  C   C23       1.0  0.46395  0.54655  0.41851  1.0000
  C   C24       1.0  0.45345  0.91739  0.41851  1.0000
  C   C25       1.0  0.74927  0.86939  0.75185  1.0000
  C   C26       1.0  0.13061  0.87989  0.75185  1.0000
  C   C27       1.0  0.12011  0.25073  0.75185  1.0000
  C   C28       1.0  0.58406  0.79728  0.91482  1.0000
  C   C29       1.0  0.20272  0.78678  0.91482  1.0000
  C   C30       1.0  0.21322  0.41594  0.91482  1.0000
  C   C31       1.0  0.91739  0.46395  0.58149  1.0000
  C   C32       1.0  0.53605  0.45345  0.58149  1.0000
  C   C33       1.0  0.54655  0.08261  0.58149  1.0000
  C   C34       1.0  0.25073  0.13061  0.24815  1.0000
  C   C35       1.0  0.86939  0.12011  0.24815  1.0000
  C   C36       1.0  0.87989  0.74927  0.24815  1.0000
  H   H1        1.0  0.50030  0.28130  0.06900  1.0000
  H   H2        1.0  0.71870  0.21900  0.06900  1.0000
  H   H3        1.0  0.78100  0.49970  0.06900  1.0000
  H   H4        1.0  0.16697  0.61463  0.40233  1.0000
  H   H5        1.0  0.38537  0.55233  0.40233  1.0000
  H   H6        1.0  0.44767  0.83303  0.40233  1.0000
  H   H7        1.0  0.83363  0.94797  0.73567  1.0000
  H   H8        1.0  0.05203  0.88567  0.73567  1.0000
  H   H9        1.0  0.11433  0.16637  0.73567  1.0000
  H   H10       1.0  0.49970  0.71870  0.93100  1.0000
  H   H11       1.0  0.28130  0.78100  0.93100  1.0000
  H   H12       1.0  0.21900  0.50030  0.93100  1.0000
  H   H13       1.0  0.83303  0.38537  0.59767  1.0000
  H   H14       1.0  0.61463  0.44767  0.59767  1.0000
  H   H15       1.0  0.55233  0.16697  0.59767  1.0000
  H   H16       1.0  0.16637  0.05203  0.26433  1.0000
  H   H17       1.0  0.94797  0.11433  0.26433  1.0000
  H   H18       1.0  0.88567  0.83363  0.26433  1.0000
  H   H19       1.0  0.44360  0.12860  0.09420  1.0000
  H   H20       1.0  0.87140  0.31500  0.09420  1.0000
  H   H21       1.0  0.68500  0.55640  0.09420  1.0000
  H   H22       1.0  0.11027  0.46193  0.42753  1.0000
  H   H23       1.0  0.53807  0.64833  0.42753  1.0000
  H   H24       1.0  0.35167  0.88973  0.42753  1.0000
  H   H25       1.0  0.77693  0.79527  0.76087  1.0000
  H   H26       1.0  0.20473  0.98167  0.76087  1.0000
  H   H27       1.0  0.01833  0.22307  0.76087  1.0000
  H   H28       1.0  0.55640  0.87140  0.90580  1.0000
  H   H29       1.0  0.12860  0.68500  0.90580  1.0000
  H   H30       1.0  0.31500  0.44360  0.90580  1.0000
  H   H31       1.0  0.88973  0.53807  0.57247  1.0000
  H   H32       1.0  0.46193  0.35167  0.57247  1.0000
  H   H33       1.0  0.64833  0.11027  0.57247  1.0000
  H   H34       1.0  0.22307  0.20473  0.23913  1.0000
  H   H35       1.0  0.79527  0.01833  0.23913  1.0000
  H   H36       1.0  0.98167  0.77693  0.23913  1.0000
  C   C37       1.0  0.38606  0.27214  0.12480  1.0000
  C   C38       1.0  0.72786  0.11392  0.12480  1.0000
  C   C39       1.0  0.88608  0.61394  0.12480  1.0000
  C   C40       1.0  0.05273  0.60547  0.45813  1.0000
  C   C41       1.0  0.39453  0.44725  0.45813  1.0000
  C   C42       1.0  0.55275  0.94727  0.45813  1.0000
  C   C43       1.0  0.71939  0.93881  0.79147  1.0000
  C   C44       1.0  0.06119  0.78059  0.79147  1.0000
  C   C45       1.0  0.21941  0.28061  0.79147  1.0000
  C   C46       1.0  0.61394  0.72786  0.87520  1.0000
  C   C47       1.0  0.27214  0.88608  0.87520  1.0000
  C   C48       1.0  0.11392  0.38606  0.87520  1.0000
  C   C49       1.0  0.94727  0.39453  0.54187  1.0000
  C   C50       1.0  0.60547  0.55275  0.54187  1.0000
  C   C51       1.0  0.44725  0.05273  0.54187  1.0000
  C   C52       1.0  0.28061  0.06119  0.20853  1.0000
  C   C53       1.0  0.93881  0.21941  0.20853  1.0000
  C   C54       1.0  0.78059  0.71939  0.20853  1.0000
