data_image0
_chemical_formula_structural       Nd9O72C36H36C18
_chemical_formula_sum              "Nd9 O72 C54 H36"
_cell_length_a       10.2386
_cell_length_b       10.2386
_cell_length_c       31.013
_cell_angle_alpha    90
_cell_angle_beta     90
_cell_angle_gamma    120

_space_group_name_H-M_alt    "P 1"
_space_group_IT_number       1

loop_
  _space_group_symop_operation_xyz
  'x, y, z'

loop_
  _atom_site_type_symbol
  _atom_site_label
  _atom_site_symmetry_multiplicity
  _atom_site_fract_x
  _atom_site_fract_y
  _atom_site_fract_z
  _atom_site_occupancy
  Nd  Nd1       1.0  0.00000  0.00000  0.00000  1.0000
  Nd  Nd2       1.0  0.66667  0.33333  0.33333  1.0000
  Nd  Nd3       1.0  0.33333  0.66667  0.66667  1.0000
  Nd  Nd4       1.0  0.00000  0.00000  0.13188  1.0000
  Nd  Nd5       1.0  0.66667  0.33333  0.46521  1.0000
  Nd  Nd6       1.0  0.33333  0.66667  0.79855  1.0000
  Nd  Nd7       1.0  0.00000  0.00000  0.86812  1.0000
  Nd  Nd8       1.0  0.33333  0.66667  0.53479  1.0000
  Nd  Nd9       1.0  0.66667  0.33333  0.20145  1.0000
  O   O1        1.0  0.27699  0.09118  0.02120  1.0000
  O   O2        1.0  0.90882  0.18581  0.02120  1.0000
  O   O3        1.0  0.81419  0.72301  0.02120  1.0000
  O   O4        1.0  0.94366  0.42451  0.35453  1.0000
  O   O5        1.0  0.57549  0.51914  0.35453  1.0000
  O   O6        1.0  0.48086  0.05634  0.35453  1.0000
  O   O7        1.0  0.61032  0.75785  0.68787  1.0000
  O   O8        1.0  0.24215  0.85248  0.68787  1.0000
  O   O9        1.0  0.14752  0.38968  0.68787  1.0000
  O   O10       1.0  0.72301  0.90882  0.97880  1.0000
  O   O11       1.0  0.09118  0.81419  0.97880  1.0000
  O   O12       1.0  0.18581  0.27699  0.97880  1.0000
  O   O13       1.0  0.05634  0.57549  0.64547  1.0000
  O   O14       1.0  0.42451  0.48086  0.64547  1.0000
  O   O15       1.0  0.51914  0.94366  0.64547  1.0000
  O   O16       1.0  0.38968  0.24215  0.31213  1.0000
  O   O17       1.0  0.75785  0.14752  0.31213  1.0000
  O   O18       1.0  0.85248  0.61032  0.31213  1.0000
  O   O19       1.0  0.16173  0.15617  0.06997  1.0000
  O   O20       1.0  0.84383  0.00556  0.06997  1.0000
  O   O21       1.0  0.99444  0.83827  0.06997  1.0000
  O   O22       1.0  0.82840  0.48950  0.40330  1.0000
  O   O23       1.0  0.51050  0.33889  0.40330  1.0000
  O   O24       1.0  0.66111  0.17160  0.40330  1.0000
  O   O25       1.0  0.49506  0.82284  0.73664  1.0000
  O   O26       1.0  0.17716  0.67223  0.73664  1.0000
  O   O27       1.0  0.32777  0.50494  0.73664  1.0000
  O   O28       1.0  0.83827  0.84383  0.93003  1.0000
  O   O29       1.0  0.15617  0.99444  0.93003  1.0000
  O   O30       1.0  0.00556  0.16173  0.93003  1.0000
  O   O31       1.0  0.17160  0.51050  0.59670  1.0000
  O   O32       1.0  0.48950  0.66111  0.59670  1.0000
  O   O33       1.0  0.33889  0.82840  0.59670  1.0000
  O   O34       1.0  0.50494  0.17716  0.26336  1.0000
  O   O35       1.0  0.82284  0.32777  0.26336  1.0000
  O   O36       1.0  0.67223  0.49506  0.26336  1.0000
  O   O37       1.0  0.25427  0.00638  0.13160  1.0000
  O   O38       1.0  0.99362  0.24789  0.13160  1.0000
  O   O39       1.0  0.75211  0.74573  0.13160  1.0000
  O   O40       1.0  0.92094  0.33971  0.46493  1.0000
  O   O41       1.0  0.66029  0.58122  0.46493  1.0000
  O   O42       1.0  0.41878  0.07906  0.46493  1.0000
  O   O43       1.0  0.58760  0.67305  0.79827  1.0000
  O   O44       1.0  0.32695  0.91456  0.79827  1.0000
  O   O45       1.0  0.08544  0.41240  0.79827  1.0000
  O   O46       1.0  0.74573  0.99362  0.86840  1.0000
  O   O47       1.0  0.00638  0.75211  0.86840  1.0000
  O   O48       1.0  0.24789  0.25427  0.86840  1.0000
  O   O49       1.0  0.07906  0.66029  0.53507  1.0000
  O   O50       1.0  0.33971  0.41878  0.53507  1.0000
  O   O51       1.0  0.58122  0.92094  0.53507  1.0000
  O   O52       1.0  0.41240  0.32695  0.20173  1.0000
  O   O53       1.0  0.67305  0.08544  0.20173  1.0000
  O   O54       1.0  0.91456  0.58760  0.20173  1.0000
  O   O55       1.0  0.49723  0.14376  0.14898  1.0000
  O   O56       1.0  0.85624  0.35347  0.14898  1.0000
  O   O57       1.0  0.64653  0.50277  0.14898  1.0000
  O   O58       1.0  0.16390  0.47709  0.48231  1.0000
  O   O59       1.0  0.52291  0.68680  0.48231  1.0000
  O   O60       1.0  0.31320  0.83610  0.48231  1.0000
  O   O61       1.0  0.83056  0.81043  0.81565  1.0000
  O   O62       1.0  0.18957  0.02014  0.81565  1.0000
  O   O63       1.0  0.97986  0.16944  0.81565  1.0000
  O   O64       1.0  0.50277  0.85624  0.85102  1.0000
  O   O65       1.0  0.14376  0.64653  0.85102  1.0000
  O   O66       1.0  0.35347  0.49723  0.85102  1.0000
  O   O67       1.0  0.83610  0.52291  0.51769  1.0000
  O   O68       1.0  0.47709  0.31320  0.51769  1.0000
  O   O69       1.0  0.68680  0.16390  0.51769  1.0000
  O   O70       1.0  0.16944  0.18957  0.18435  1.0000
  O   O71       1.0  0.81043  0.97986  0.18435  1.0000
  O   O72       1.0  0.02014  0.83056  0.18435  1.0000
  C   C1        1.0  0.27795  0.15146  0.05656  1.0000
  C   C2        1.0  0.84854  0.12649  0.05656  1.0000
  C   C3        1.0  0.87351  0.72205  0.05656  1.0000
  C   C4        1.0  0.94462  0.48479  0.38989  1.0000
  C   C5        1.0  0.51521  0.45982  0.38989  1.0000
  C   C6        1.0  0.54018  0.05538  0.38989  1.0000
  C   C7        1.0  0.61128  0.81813  0.72323  1.0000
  C   C8        1.0  0.18187  0.79316  0.72323  1.0000
  C   C9        1.0  0.20684  0.38872  0.72323  1.0000
  C   C10       1.0  0.72205  0.84854  0.94344  1.0000
  C   C11       1.0  0.15146  0.87351  0.94344  1.0000
  C   C12       1.0  0.12649  0.27795  0.94344  1.0000
  C   C13       1.0  0.05538  0.51521  0.61011  1.0000
  C   C14       1.0  0.48479  0.54018  0.61011  1.0000
  C   C15       1.0  0.45982  0.94462  0.61011  1.0000
  C   C16       1.0  0.38872  0.18187  0.27677  1.0000
  C   C17       1.0  0.81813  0.20684  0.27677  1.0000
  C   C18       1.0  0.79316  0.61128  0.27677  1.0000
  C   C19       1.0  0.41571  0.21365  0.08514  1.0000
  C   C20       1.0  0.78635  0.20206  0.08514  1.0000
  C   C21       1.0  0.79794  0.58429  0.08514  1.0000
  C   C22       1.0  0.08238  0.54698  0.41847  1.0000
  C   C23       1.0  0.45302  0.53539  0.41847  1.0000
  C   C24       1.0  0.46461  0.91762  0.41847  1.0000
  C   C25       1.0  0.74904  0.88032  0.75181  1.0000
  C   C26       1.0  0.11968  0.86873  0.75181  1.0000
  C   C27       1.0  0.13127  0.25096  0.75181  1.0000
  C   C28       1.0  0.58429  0.78635  0.91486  1.0000
  C   C29       1.0  0.21365  0.79794  0.91486  1.0000
  C   C30       1.0  0.20206  0.41571  0.91486  1.0000
  C   C31       1.0  0.91762  0.45302  0.58153  1.0000
  C   C32       1.0  0.54698  0.46461  0.58153  1.0000
  C   C33       1.0  0.53539  0.08238  0.58153  1.0000
  C   C34       1.0  0.25096  0.11968  0.24819  1.0000
  C   C35       1.0  0.88032  0.13127  0.24819  1.0000
  C   C36       1.0  0.86873  0.74904  0.24819  1.0000
  H   H1        1.0  0.44350  0.31510  0.09410  1.0000
  H   H2        1.0  0.68490  0.12840  0.09410  1.0000
  H   H3        1.0  0.87160  0.55650  0.09410  1.0000
  H   H4        1.0  0.11017  0.64843  0.42743  1.0000
  H   H5        1.0  0.35157  0.46173  0.42743  1.0000
  H   H6        1.0  0.53827  0.88983  0.42743  1.0000
  H   H7        1.0  0.77683  0.98177  0.76077  1.0000
  H   H8        1.0  0.01823  0.79507  0.76077  1.0000
  H   H9        1.0  0.20493  0.22317  0.76077  1.0000
  H   H10       1.0  0.55650  0.68490  0.90590  1.0000
  H   H11       1.0  0.31510  0.87160  0.90590  1.0000
  H   H12       1.0  0.12840  0.44350  0.90590  1.0000
  H   H13       1.0  0.88983  0.35157  0.57257  1.0000
  H   H14       1.0  0.64843  0.53827  0.57257  1.0000
  H   H15       1.0  0.46173  0.11017  0.57257  1.0000
  H   H16       1.0  0.22317  0.01823  0.23923  1.0000
  H   H17       1.0  0.98177  0.20493  0.23923  1.0000
  H   H18       1.0  0.79507  0.77683  0.23923  1.0000
  H   H19       1.0  0.49930  0.21900  0.06900  1.0000
  H   H20       1.0  0.78100  0.28030  0.06900  1.0000
  H   H21       1.0  0.71970  0.50070  0.06900  1.0000
  H   H22       1.0  0.16597  0.55233  0.40233  1.0000
  H   H23       1.0  0.44767  0.61363  0.40233  1.0000
  H   H24       1.0  0.38637  0.83403  0.40233  1.0000
  H   H25       1.0  0.83263  0.88567  0.73567  1.0000
  H   H26       1.0  0.11433  0.94697  0.73567  1.0000
  H   H27       1.0  0.05303  0.16737  0.73567  1.0000
  H   H28       1.0  0.50070  0.78100  0.93100  1.0000
  H   H29       1.0  0.21900  0.71970  0.93100  1.0000
  H   H30       1.0  0.28030  0.49930  0.93100  1.0000
  H   H31       1.0  0.83403  0.44767  0.59767  1.0000
  H   H32       1.0  0.55233  0.38637  0.59767  1.0000
  H   H33       1.0  0.61363  0.16597  0.59767  1.0000
  H   H34       1.0  0.16737  0.11433  0.26433  1.0000
  H   H35       1.0  0.88567  0.05303  0.26433  1.0000
  H   H36       1.0  0.94697  0.83263  0.26433  1.0000
  C   C37       1.0  0.38618  0.11475  0.12496  1.0000
  C   C38       1.0  0.88525  0.27143  0.12496  1.0000
  C   C39       1.0  0.72857  0.61382  0.12496  1.0000
  C   C40       1.0  0.05285  0.44808  0.45829  1.0000
  C   C41       1.0  0.55192  0.60476  0.45829  1.0000
  C   C42       1.0  0.39524  0.94715  0.45829  1.0000
  C   C43       1.0  0.71951  0.78142  0.79163  1.0000
  C   C44       1.0  0.21858  0.93810  0.79163  1.0000
  C   C45       1.0  0.06190  0.28049  0.79163  1.0000
  C   C46       1.0  0.61382  0.88525  0.87504  1.0000
  C   C47       1.0  0.11475  0.72857  0.87504  1.0000
  C   C48       1.0  0.27143  0.38618  0.87504  1.0000
  C   C49       1.0  0.94715  0.55192  0.54171  1.0000
  C   C50       1.0  0.44808  0.39524  0.54171  1.0000
  C   C51       1.0  0.60476  0.05285  0.54171  1.0000
  C   C52       1.0  0.28049  0.21858  0.20837  1.0000
  C   C53       1.0  0.78142  0.06190  0.20837  1.0000
  C   C54       1.0  0.93810  0.71951  0.20837  1.0000
