data_image0
_chemical_formula_structural       Sb8I16Cu24Cl8O32N8O8C8H8O8C8H8C40H16C8H16C8H8C8H16C8H8C8H8C8H8C8H16C8H16C8H8N8C8H8C8H16
_chemical_formula_sum              "Sb8 I16 Cu24 Cl8 O48 N16 C144 H160"
_cell_length_a       12.5861
_cell_length_b       13.0814
_cell_length_c       32.104
_cell_angle_alpha    90
_cell_angle_beta     90
_cell_angle_gamma    90

_space_group_name_H-M_alt    "P 1"
_space_group_IT_number       1

loop_
  _space_group_symop_operation_xyz
  'x, y, z'

loop_
  _atom_site_type_symbol
  _atom_site_label
  _atom_site_symmetry_multiplicity
  _atom_site_fract_x
  _atom_site_fract_y
  _atom_site_fract_z
  _atom_site_occupancy
  Sb  Sb1       1.0  0.80776  0.37749  0.53594  1.0000
  Sb  Sb2       1.0  0.69224  0.12251  0.03594  1.0000
  Sb  Sb3       1.0  0.19224  0.37749  0.96406  1.0000
  Sb  Sb4       1.0  0.30776  0.12251  0.46406  1.0000
  Sb  Sb5       1.0  0.19224  0.62251  0.46406  1.0000
  Sb  Sb6       1.0  0.30776  0.87749  0.96406  1.0000
  Sb  Sb7       1.0  0.80776  0.62251  0.03594  1.0000
  Sb  Sb8       1.0  0.69224  0.87749  0.53594  1.0000
  I   I1        1.0  0.60225  0.86468  0.30682  1.0000
  I   I2        1.0  0.89775  0.63532  0.80682  1.0000
  I   I3        1.0  0.39775  0.86468  0.19318  1.0000
  I   I4        1.0  0.10225  0.63532  0.69318  1.0000
  I   I5        1.0  0.39775  0.13532  0.69318  1.0000
  I   I6        1.0  0.10225  0.36468  0.19318  1.0000
  I   I7        1.0  0.60225  0.13532  0.80682  1.0000
  I   I8        1.0  0.89775  0.36468  0.30682  1.0000
  I   I9        1.0  0.65802  0.60379  0.22709  1.0000
  I   I10       1.0  0.84198  0.89621  0.72709  1.0000
  I   I11       1.0  0.34198  0.60379  0.27291  1.0000
  I   I12       1.0  0.15802  0.89621  0.77291  1.0000
  I   I13       1.0  0.34198  0.39621  0.77291  1.0000
  I   I14       1.0  0.15802  0.10379  0.27291  1.0000
  I   I15       1.0  0.65802  0.39621  0.72709  1.0000
  I   I16       1.0  0.84198  0.10379  0.22709  1.0000
  Cu  Cu1       1.0  0.53813  0.66728  0.28930  1.0000
  Cu  Cu2       1.0  0.96187  0.83272  0.78930  1.0000
  Cu  Cu3       1.0  0.46187  0.66728  0.21070  1.0000
  Cu  Cu4       1.0  0.03813  0.83272  0.71070  1.0000
  Cu  Cu5       1.0  0.46187  0.33272  0.71070  1.0000
  Cu  Cu6       1.0  0.03813  0.16728  0.21070  1.0000
  Cu  Cu7       1.0  0.53813  0.33272  0.78930  1.0000
  Cu  Cu8       1.0  0.96187  0.16728  0.28930  1.0000
  Cu  Cu9       1.0  0.58648  0.81404  0.22772  1.0000
  Cu  Cu10      1.0  0.91352  0.68596  0.72772  1.0000
  Cu  Cu11      1.0  0.41352  0.81404  0.27228  1.0000
  Cu  Cu12      1.0  0.08648  0.68596  0.77228  1.0000
  Cu  Cu13      1.0  0.41352  0.18596  0.77228  1.0000
  Cu  Cu14      1.0  0.08648  0.31404  0.27228  1.0000
  Cu  Cu15      1.0  0.58648  0.18596  0.72772  1.0000
  Cu  Cu16      1.0  0.91352  0.31404  0.22772  1.0000
  Cu  Cu17      1.0  0.80254  0.82336  0.23457  1.0000
  Cu  Cu18      1.0  0.69746  0.67664  0.73457  1.0000
  Cu  Cu19      1.0  0.19746  0.82336  0.26543  1.0000
  Cu  Cu20      1.0  0.30254  0.67664  0.76543  1.0000
  Cu  Cu21      1.0  0.19746  0.17664  0.76543  1.0000
  Cu  Cu22      1.0  0.30254  0.32336  0.26543  1.0000
  Cu  Cu23      1.0  0.80254  0.17664  0.73457  1.0000
  Cu  Cu24      1.0  0.69746  0.32336  0.23457  1.0000
  Cl  Cl1       1.0  0.71200  0.87609  0.18262  1.0000
  Cl  Cl2       1.0  0.78800  0.62391  0.68262  1.0000
  Cl  Cl3       1.0  0.28800  0.87609  0.31738  1.0000
  Cl  Cl4       1.0  0.21200  0.62391  0.81738  1.0000
  Cl  Cl5       1.0  0.28800  0.12391  0.81738  1.0000
  Cl  Cl6       1.0  0.21200  0.37609  0.31738  1.0000
  Cl  Cl7       1.0  0.71200  0.12391  0.68262  1.0000
  Cl  Cl8       1.0  0.78800  0.37609  0.18262  1.0000
  O   O1        1.0  0.65560  0.36620  0.52052  1.0000
  O   O2        1.0  0.84440  0.13380  0.02052  1.0000
  O   O3        1.0  0.34440  0.36620  0.97948  1.0000
  O   O4        1.0  0.15560  0.13380  0.47948  1.0000
  O   O5        1.0  0.34440  0.63380  0.47948  1.0000
  O   O6        1.0  0.15560  0.86620  0.97948  1.0000
  O   O7        1.0  0.65560  0.63380  0.02052  1.0000
  O   O8        1.0  0.84440  0.86620  0.52052  1.0000
  O   O9        1.0  0.84300  0.33620  0.47818  1.0000
  O   O10       1.0  0.65700  0.16380  0.97818  1.0000
  O   O11       1.0  0.15700  0.33620  0.02182  1.0000
  O   O12       1.0  0.34300  0.16380  0.52182  1.0000
  O   O13       1.0  0.15700  0.66380  0.52182  1.0000
  O   O14       1.0  0.34300  0.83620  0.02182  1.0000
  O   O15       1.0  0.84300  0.66380  0.97818  1.0000
  O   O16       1.0  0.65700  0.83620  0.47818  1.0000
  O   O17       1.0  0.80420  0.52060  0.51676  1.0000
  O   O18       1.0  0.69580  0.97940  0.01676  1.0000
  O   O19       1.0  0.19580  0.52060  0.98324  1.0000
  O   O20       1.0  0.30420  0.97940  0.48324  1.0000
  O   O21       1.0  0.19580  0.47940  0.48324  1.0000
  O   O22       1.0  0.30420  0.02060  0.98324  1.0000
  O   O23       1.0  0.80420  0.47940  0.01676  1.0000
  O   O24       1.0  0.69580  0.02060  0.51676  1.0000
  O   O25       1.0  0.79640  0.23910  0.55748  1.0000
  O   O26       1.0  0.70360  0.26090  0.05748  1.0000
  O   O27       1.0  0.20360  0.23910  0.94252  1.0000
  O   O28       1.0  0.29640  0.26090  0.44252  1.0000
  O   O29       1.0  0.20360  0.76090  0.44252  1.0000
  O   O30       1.0  0.29640  0.73910  0.94252  1.0000
  O   O31       1.0  0.79640  0.76090  0.05748  1.0000
  O   O32       1.0  0.70360  0.73910  0.55748  1.0000
  N   N1        1.0  0.58200  0.59850  0.34326  1.0000
  N   N2        1.0  0.91800  0.90150  0.84326  1.0000
  N   N3        1.0  0.41800  0.59850  0.15674  1.0000
  N   N4        1.0  0.08200  0.90150  0.65674  1.0000
  N   N5        1.0  0.41800  0.40150  0.65674  1.0000
  N   N6        1.0  0.08200  0.09850  0.15674  1.0000
  N   N7        1.0  0.58200  0.40150  0.84326  1.0000
  N   N8        1.0  0.91800  0.09850  0.34326  1.0000
  O   O33       1.0  0.78570  0.43240  0.59140  1.0000
  O   O34       1.0  0.71430  0.06760  0.09140  1.0000
  O   O35       1.0  0.21430  0.43240  0.90860  1.0000
  O   O36       1.0  0.28570  0.06760  0.40860  1.0000
  O   O37       1.0  0.21430  0.56760  0.40860  1.0000
  O   O38       1.0  0.28570  0.93240  0.90860  1.0000
  O   O39       1.0  0.78570  0.56760  0.09140  1.0000
  O   O40       1.0  0.71430  0.93240  0.59140  1.0000
  C   C1        1.0  0.55320  0.53630  0.41271  1.0000
  C   C2        1.0  0.94680  0.96370  0.91271  1.0000
  C   C3        1.0  0.44680  0.53630  0.08729  1.0000
  C   C4        1.0  0.05320  0.96370  0.58729  1.0000
  C   C5        1.0  0.44680  0.46370  0.58729  1.0000
  C   C6        1.0  0.05320  0.03630  0.08729  1.0000
  C   C7        1.0  0.55320  0.46370  0.91271  1.0000
  C   C8        1.0  0.94680  0.03630  0.41271  1.0000
  H   H1        1.0  0.50640  0.52830  0.43490  1.0000
  H   H2        1.0  0.99360  0.97170  0.93490  1.0000
  H   H3        1.0  0.49360  0.52830  0.06510  1.0000
  H   H4        1.0  0.00640  0.97170  0.56510  1.0000
  H   H5        1.0  0.49360  0.47170  0.56510  1.0000
  H   H6        1.0  0.00640  0.02830  0.06510  1.0000
  H   H7        1.0  0.50640  0.47170  0.93490  1.0000
  H   H8        1.0  0.99360  0.02830  0.43490  1.0000
  O   O41       1.0  0.96130  0.37570  0.54554  1.0000
  O   O42       1.0  0.53870  0.12430  0.04554  1.0000
  O   O43       1.0  0.03870  0.37570  0.95446  1.0000
  O   O44       1.0  0.46130  0.12430  0.45446  1.0000
  O   O45       1.0  0.03870  0.62430  0.45446  1.0000
  O   O46       1.0  0.46130  0.87570  0.95446  1.0000
  O   O47       1.0  0.96130  0.62430  0.04554  1.0000
  O   O48       1.0  0.53870  0.87570  0.54554  1.0000
  C   C9        1.0  0.51790  0.58000  0.37563  1.0000
  C   C10       1.0  0.98210  0.92000  0.87563  1.0000
  C   C11       1.0  0.48210  0.58000  0.12437  1.0000
  C   C12       1.0  0.01790  0.92000  0.62437  1.0000
  C   C13       1.0  0.48210  0.42000  0.62437  1.0000
  C   C14       1.0  0.01790  0.08000  0.12437  1.0000
  C   C15       1.0  0.51790  0.42000  0.87563  1.0000
  C   C16       1.0  0.98210  0.08000  0.37563  1.0000
  H   H9        1.0  0.44640  0.59710  0.37330  1.0000
  H   H10       1.0  0.05360  0.90290  0.87330  1.0000
  H   H11       1.0  0.55360  0.59710  0.12670  1.0000
  H   H12       1.0  0.94640  0.90290  0.62670  1.0000
  H   H13       1.0  0.55360  0.40290  0.62670  1.0000
  H   H14       1.0  0.94640  0.09710  0.12670  1.0000
  H   H15       1.0  0.44640  0.40290  0.87330  1.0000
  H   H16       1.0  0.05360  0.09710  0.37330  1.0000
  C   C17       1.0  0.65740  0.50480  0.41663  1.0000
  C   C18       1.0  0.84260  0.99520  0.91663  1.0000
  C   C19       1.0  0.34260  0.50480  0.08337  1.0000
  C   C20       1.0  0.15740  0.99520  0.58337  1.0000
  C   C21       1.0  0.34260  0.49520  0.58337  1.0000
  C   C22       1.0  0.15740  0.00480  0.08337  1.0000
  C   C23       1.0  0.65740  0.49520  0.91663  1.0000
  C   C24       1.0  0.84260  0.00480  0.41663  1.0000
  C   C25       1.0  0.70400  0.45880  0.45630  1.0000
  C   C26       1.0  0.79600  0.04120  0.95630  1.0000
  C   C27       1.0  0.29600  0.45880  0.04370  1.0000
  C   C28       1.0  0.20400  0.04120  0.54370  1.0000
  C   C29       1.0  0.29600  0.54120  0.54370  1.0000
  C   C30       1.0  0.20400  0.95880  0.04370  1.0000
  C   C31       1.0  0.70400  0.54120  0.95630  1.0000
  C   C32       1.0  0.79600  0.95880  0.45630  1.0000
  C   C33       1.0  0.91380  0.30050  0.61396  1.0000
  C   C34       1.0  0.58620  0.19950  0.11396  1.0000
  C   C35       1.0  0.08620  0.30050  0.88604  1.0000
  C   C36       1.0  0.41380  0.19950  0.38604  1.0000
  C   C37       1.0  0.08620  0.69950  0.38604  1.0000
  C   C38       1.0  0.41380  0.80050  0.88604  1.0000
  C   C39       1.0  0.91380  0.69950  0.11396  1.0000
  C   C40       1.0  0.58620  0.80050  0.61396  1.0000
  C   C41       1.0  0.97450  0.26830  0.65274  1.0000
  C   C42       1.0  0.52550  0.23170  0.15274  1.0000
  C   C43       1.0  0.02550  0.26830  0.84726  1.0000
  C   C44       1.0  0.47450  0.23170  0.34726  1.0000
  C   C45       1.0  0.02550  0.73170  0.34726  1.0000
  C   C46       1.0  0.47450  0.76830  0.84726  1.0000
  C   C47       1.0  0.97450  0.73170  0.15274  1.0000
  C   C48       1.0  0.52550  0.76830  0.65274  1.0000
  C   C49       1.0  0.87010  0.20930  0.58880  1.0000
  C   C50       1.0  0.62990  0.29070  0.08880  1.0000
  C   C51       1.0  0.12990  0.20930  0.91120  1.0000
  C   C52       1.0  0.37010  0.29070  0.41120  1.0000
  C   C53       1.0  0.12990  0.79070  0.41120  1.0000
  C   C54       1.0  0.37010  0.70930  0.91120  1.0000
  C   C55       1.0  0.87010  0.79070  0.08880  1.0000
  C   C56       1.0  0.62990  0.70930  0.58880  1.0000
  H   H17       1.0  0.92890  0.17360  0.57590  1.0000
  H   H18       1.0  0.57110  0.32640  0.07590  1.0000
  H   H19       1.0  0.07110  0.17360  0.92410  1.0000
  H   H20       1.0  0.42890  0.32640  0.42410  1.0000
  H   H21       1.0  0.07110  0.82640  0.42410  1.0000
  H   H22       1.0  0.42890  0.67360  0.92410  1.0000
  H   H23       1.0  0.92890  0.82640  0.07590  1.0000
  H   H24       1.0  0.57110  0.67360  0.57590  1.0000
  H   H25       1.0  0.83540  0.16210  0.60780  1.0000
  H   H26       1.0  0.66460  0.33790  0.10780  1.0000
  H   H27       1.0  0.16460  0.16210  0.89220  1.0000
  H   H28       1.0  0.33540  0.33790  0.39220  1.0000
  H   H29       1.0  0.16460  0.83790  0.39220  1.0000
  H   H30       1.0  0.33540  0.66210  0.89220  1.0000
  H   H31       1.0  0.83540  0.83790  0.10780  1.0000
  H   H32       1.0  0.66460  0.66210  0.60780  1.0000
  C   C57       1.0  0.82070  0.37220  0.62523  1.0000
  C   C58       1.0  0.67930  0.12780  0.12523  1.0000
  C   C59       1.0  0.17930  0.37220  0.87477  1.0000
  C   C60       1.0  0.32070  0.12780  0.37477  1.0000
  C   C61       1.0  0.17930  0.62780  0.37477  1.0000
  C   C62       1.0  0.32070  0.87220  0.87477  1.0000
  C   C63       1.0  0.82070  0.62780  0.12523  1.0000
  C   C64       1.0  0.67930  0.87220  0.62523  1.0000
  H   H33       1.0  0.76170  0.33130  0.63530  1.0000
  H   H34       1.0  0.73830  0.16870  0.13530  1.0000
  H   H35       1.0  0.23830  0.33130  0.86470  1.0000
  H   H36       1.0  0.26170  0.16870  0.36470  1.0000
  H   H37       1.0  0.23830  0.66870  0.36470  1.0000
  H   H38       1.0  0.26170  0.83130  0.86470  1.0000
  H   H39       1.0  0.76170  0.66870  0.13530  1.0000
  H   H40       1.0  0.73830  0.83130  0.63530  1.0000
  H   H41       1.0  0.84270  0.41690  0.64770  1.0000
  H   H42       1.0  0.65730  0.08310  0.14770  1.0000
  H   H43       1.0  0.15730  0.41690  0.85230  1.0000
  H   H44       1.0  0.34270  0.08310  0.35230  1.0000
  H   H45       1.0  0.15730  0.58310  0.35230  1.0000
  H   H46       1.0  0.34270  0.91690  0.85230  1.0000
  H   H47       1.0  0.84270  0.58310  0.14770  1.0000
  H   H48       1.0  0.65730  0.91690  0.64770  1.0000
  C   C65       1.0  0.02040  0.34160  0.67820  1.0000
  C   C66       1.0  0.47960  0.15840  0.17820  1.0000
  C   C67       1.0  0.97960  0.34160  0.82180  1.0000
  C   C68       1.0  0.52040  0.15840  0.32180  1.0000
  C   C69       1.0  0.97960  0.65840  0.32180  1.0000
  C   C70       1.0  0.52040  0.84160  0.82180  1.0000
  C   C71       1.0  0.02040  0.65840  0.17820  1.0000
  C   C72       1.0  0.47960  0.84160  0.67820  1.0000
  H   H49       1.0  0.00830  0.41040  0.67280  1.0000
  H   H50       1.0  0.49170  0.08960  0.17280  1.0000
  H   H51       1.0  0.99170  0.41040  0.82720  1.0000
  H   H52       1.0  0.50830  0.08960  0.32720  1.0000
  H   H53       1.0  0.99170  0.58960  0.32720  1.0000
  H   H54       1.0  0.50830  0.91040  0.82720  1.0000
  H   H55       1.0  0.00830  0.58960  0.17280  1.0000
  H   H56       1.0  0.49170  0.91040  0.67280  1.0000
  C   C73       1.0  0.99540  0.35810  0.58620  1.0000
  C   C74       1.0  0.50460  0.14190  0.08620  1.0000
  C   C75       1.0  0.00460  0.35810  0.91380  1.0000
  C   C76       1.0  0.49540  0.14190  0.41380  1.0000
  C   C77       1.0  0.00460  0.64190  0.41380  1.0000
  C   C78       1.0  0.49540  0.85810  0.91380  1.0000
  C   C79       1.0  0.99540  0.64190  0.08620  1.0000
  C   C80       1.0  0.50460  0.85810  0.58620  1.0000
  H   H57       1.0  0.01150  0.42330  0.59920  1.0000
  H   H58       1.0  0.48850  0.07670  0.09920  1.0000
  H   H59       1.0  0.98850  0.42330  0.90080  1.0000
  H   H60       1.0  0.51150  0.07670  0.40080  1.0000
  H   H61       1.0  0.98850  0.57670  0.40080  1.0000
  H   H62       1.0  0.51150  0.92330  0.90080  1.0000
  H   H63       1.0  0.01150  0.57670  0.09920  1.0000
  H   H64       1.0  0.48850  0.92330  0.59920  1.0000
  H   H65       1.0  0.06060  0.31870  0.58530  1.0000
  H   H66       1.0  0.43940  0.18130  0.08530  1.0000
  H   H67       1.0  0.93940  0.31870  0.91470  1.0000
  H   H68       1.0  0.56060  0.18130  0.41470  1.0000
  H   H69       1.0  0.93940  0.68130  0.41470  1.0000
  H   H70       1.0  0.56060  0.81870  0.91470  1.0000
  H   H71       1.0  0.06060  0.68130  0.08530  1.0000
  H   H72       1.0  0.43940  0.81870  0.58530  1.0000
  C   C81       1.0  0.99270  0.16730  0.66430  1.0000
  C   C82       1.0  0.50730  0.33270  0.16430  1.0000
  C   C83       1.0  0.00730  0.16730  0.83570  1.0000
  C   C84       1.0  0.49270  0.33270  0.33570  1.0000
  C   C85       1.0  0.00730  0.83270  0.33570  1.0000
  C   C86       1.0  0.49270  0.66730  0.83570  1.0000
  C   C87       1.0  0.99270  0.83270  0.16430  1.0000
  C   C88       1.0  0.50730  0.66730  0.66430  1.0000
  H   H73       1.0  0.96190  0.11450  0.64910  1.0000
  H   H74       1.0  0.53810  0.38550  0.14910  1.0000
  H   H75       1.0  0.03810  0.11450  0.85090  1.0000
  H   H76       1.0  0.46190  0.38550  0.35090  1.0000
  H   H77       1.0  0.03810  0.88550  0.35090  1.0000
  H   H78       1.0  0.46190  0.61450  0.85090  1.0000
  H   H79       1.0  0.96190  0.88550  0.14910  1.0000
  H   H80       1.0  0.53810  0.61450  0.64910  1.0000
  C   C89       1.0  0.72390  0.52340  0.38250  1.0000
  C   C90       1.0  0.77610  0.97660  0.88250  1.0000
  C   C91       1.0  0.27610  0.52340  0.11750  1.0000
  C   C92       1.0  0.22390  0.97660  0.61750  1.0000
  C   C93       1.0  0.27610  0.47660  0.61750  1.0000
  C   C94       1.0  0.22390  0.02340  0.11750  1.0000
  C   C95       1.0  0.72390  0.47660  0.88250  1.0000
  C   C96       1.0  0.77610  0.02340  0.38250  1.0000
  H   H81       1.0  0.79510  0.50470  0.38350  1.0000
  H   H82       1.0  0.70490  0.99530  0.88350  1.0000
  H   H83       1.0  0.20490  0.50470  0.11650  1.0000
  H   H84       1.0  0.29510  0.99530  0.61650  1.0000
  H   H85       1.0  0.20490  0.49530  0.61650  1.0000
  H   H86       1.0  0.29510  0.00470  0.11650  1.0000
  H   H87       1.0  0.79510  0.49530  0.88350  1.0000
  H   H88       1.0  0.70490  0.00470  0.38350  1.0000
  C   C97       1.0  0.68290  0.56950  0.34760  1.0000
  C   C98       1.0  0.81710  0.93050  0.84760  1.0000
  C   C99       1.0  0.31710  0.56950  0.15240  1.0000
  C   C100      1.0  0.18290  0.93050  0.65240  1.0000
  C   C101      1.0  0.31710  0.43050  0.65240  1.0000
  C   C102      1.0  0.18290  0.06950  0.15240  1.0000
  C   C103      1.0  0.68290  0.43050  0.84760  1.0000
  C   C104      1.0  0.81710  0.06950  0.34760  1.0000
  H   H89       1.0  0.72880  0.58140  0.32540  1.0000
  H   H90       1.0  0.77120  0.91860  0.82540  1.0000
  H   H91       1.0  0.27120  0.58140  0.17460  1.0000
  H   H92       1.0  0.22880  0.91860  0.67460  1.0000
  H   H93       1.0  0.27120  0.41860  0.67460  1.0000
  H   H94       1.0  0.22880  0.08140  0.17460  1.0000
  H   H95       1.0  0.72880  0.41860  0.82540  1.0000
  H   H96       1.0  0.77120  0.08140  0.32540  1.0000
  C   C105      1.0  0.76650  0.36050  0.44730  1.0000
  C   C106      1.0  0.73350  0.13950  0.94730  1.0000
  C   C107      1.0  0.23350  0.36050  0.05270  1.0000
  C   C108      1.0  0.26650  0.13950  0.55270  1.0000
  C   C109      1.0  0.23350  0.63950  0.55270  1.0000
  C   C110      1.0  0.26650  0.86050  0.05270  1.0000
  C   C111      1.0  0.76650  0.63950  0.94730  1.0000
  C   C112      1.0  0.73350  0.86050  0.44730  1.0000
  H   H97       1.0  0.71690  0.30410  0.44490  1.0000
  H   H98       1.0  0.78310  0.19590  0.94490  1.0000
  H   H99       1.0  0.28310  0.30410  0.05510  1.0000
  H   H100      1.0  0.21690  0.19590  0.55510  1.0000
  H   H101      1.0  0.28310  0.69590  0.55510  1.0000
  H   H102      1.0  0.21690  0.80410  0.05510  1.0000
  H   H103      1.0  0.71690  0.69590  0.94490  1.0000
  H   H104      1.0  0.78310  0.80410  0.44490  1.0000
  H   H105      1.0  0.80240  0.36780  0.42070  1.0000
  H   H106      1.0  0.69760  0.13220  0.92070  1.0000
  H   H107      1.0  0.19760  0.36780  0.07930  1.0000
  H   H108      1.0  0.30240  0.13220  0.57930  1.0000
  H   H109      1.0  0.19760  0.63220  0.57930  1.0000
  H   H110      1.0  0.30240  0.86780  0.07930  1.0000
  H   H111      1.0  0.80240  0.63220  0.92070  1.0000
  H   H112      1.0  0.69760  0.86780  0.42070  1.0000
  C   C113      1.0  0.62100  0.42610  0.48730  1.0000
  C   C114      1.0  0.87900  0.07390  0.98730  1.0000
  C   C115      1.0  0.37900  0.42610  0.01270  1.0000
  C   C116      1.0  0.12100  0.07390  0.51270  1.0000
  C   C117      1.0  0.37900  0.57390  0.51270  1.0000
  C   C118      1.0  0.12100  0.92610  0.01270  1.0000
  C   C119      1.0  0.62100  0.57390  0.98730  1.0000
  C   C120      1.0  0.87900  0.92610  0.48730  1.0000
  H   H113      1.0  0.58780  0.48700  0.49850  1.0000
  H   H114      1.0  0.91220  0.01300  0.99850  1.0000
  H   H115      1.0  0.41220  0.48700  0.00150  1.0000
  H   H116      1.0  0.08780  0.01300  0.50150  1.0000
  H   H117      1.0  0.41220  0.51300  0.50150  1.0000
  H   H118      1.0  0.08780  0.98700  0.00150  1.0000
  H   H119      1.0  0.58780  0.51300  0.99850  1.0000
  H   H120      1.0  0.91220  0.98700  0.49850  1.0000
  H   H121      1.0  0.56650  0.38830  0.47240  1.0000
  H   H122      1.0  0.93350  0.11170  0.97240  1.0000
  H   H123      1.0  0.43350  0.38830  0.02760  1.0000
  H   H124      1.0  0.06650  0.11170  0.52760  1.0000
  H   H125      1.0  0.43350  0.61170  0.52760  1.0000
  H   H126      1.0  0.06650  0.88830  0.02760  1.0000
  H   H127      1.0  0.56650  0.61170  0.97240  1.0000
  H   H128      1.0  0.93350  0.88830  0.47240  1.0000
  C   C121      1.0  0.08400  0.31380  0.71140  1.0000
  C   C122      1.0  0.41600  0.18620  0.21140  1.0000
  C   C123      1.0  0.91600  0.31380  0.78860  1.0000
  C   C124      1.0  0.58400  0.18620  0.28860  1.0000
  C   C125      1.0  0.91600  0.68620  0.28860  1.0000
  C   C126      1.0  0.58400  0.81380  0.78860  1.0000
  C   C127      1.0  0.08400  0.68620  0.21140  1.0000
  C   C128      1.0  0.41600  0.81380  0.71140  1.0000
  H   H129      1.0  0.11470  0.36520  0.72740  1.0000
  H   H130      1.0  0.38530  0.13480  0.22740  1.0000
  H   H131      1.0  0.88530  0.36520  0.77260  1.0000
  H   H132      1.0  0.61470  0.13480  0.27260  1.0000
  H   H133      1.0  0.88530  0.63480  0.27260  1.0000
  H   H134      1.0  0.61470  0.86520  0.77260  1.0000
  H   H135      1.0  0.11470  0.63480  0.22740  1.0000
  H   H136      1.0  0.38530  0.86520  0.72740  1.0000
  N   N9        1.0  0.10350  0.21640  0.72166  1.0000
  N   N10       1.0  0.39650  0.28360  0.22166  1.0000
  N   N11       1.0  0.89650  0.21640  0.77834  1.0000
  N   N12       1.0  0.60350  0.28360  0.27834  1.0000
  N   N13       1.0  0.89650  0.78360  0.27834  1.0000
  N   N14       1.0  0.60350  0.71640  0.77834  1.0000
  N   N15       1.0  0.10350  0.78360  0.22166  1.0000
  N   N16       1.0  0.39650  0.71640  0.72166  1.0000
  C   C129      1.0  0.05540  0.14490  0.69800  1.0000
  C   C130      1.0  0.44460  0.35510  0.19800  1.0000
  C   C131      1.0  0.94460  0.14490  0.80200  1.0000
  C   C132      1.0  0.55540  0.35510  0.30200  1.0000
  C   C133      1.0  0.94460  0.85510  0.30200  1.0000
  C   C134      1.0  0.55540  0.64490  0.80200  1.0000
  C   C135      1.0  0.05540  0.85510  0.19800  1.0000
  C   C136      1.0  0.44460  0.64490  0.69800  1.0000
  H   H137      1.0  0.06540  0.07650  0.70480  1.0000
  H   H138      1.0  0.43460  0.42350  0.20480  1.0000
  H   H139      1.0  0.93460  0.07650  0.79520  1.0000
  H   H140      1.0  0.56540  0.42350  0.29520  1.0000
  H   H141      1.0  0.93460  0.92350  0.29520  1.0000
  H   H142      1.0  0.56540  0.57650  0.79520  1.0000
  H   H143      1.0  0.06540  0.92350  0.20480  1.0000
  H   H144      1.0  0.43460  0.57650  0.70480  1.0000
  C   C137      1.0  0.77990  0.53630  0.47460  1.0000
  C   C138      1.0  0.72010  0.96370  0.97460  1.0000
  C   C139      1.0  0.22010  0.53630  0.02540  1.0000
  C   C140      1.0  0.27990  0.96370  0.52540  1.0000
  C   C141      1.0  0.22010  0.46370  0.52540  1.0000
  C   C142      1.0  0.27990  0.03630  0.02540  1.0000
  C   C143      1.0  0.77990  0.46370  0.97460  1.0000
  C   C144      1.0  0.72010  0.03630  0.47460  1.0000
  H   H145      1.0  0.84550  0.53470  0.45870  1.0000
  H   H146      1.0  0.65450  0.96530  0.95870  1.0000
  H   H147      1.0  0.15450  0.53470  0.04130  1.0000
  H   H148      1.0  0.34550  0.96530  0.54130  1.0000
  H   H149      1.0  0.15450  0.46530  0.54130  1.0000
  H   H150      1.0  0.34550  0.03470  0.04130  1.0000
  H   H151      1.0  0.84550  0.46530  0.95870  1.0000
  H   H152      1.0  0.65450  0.03470  0.45870  1.0000
  H   H153      1.0  0.74930  0.60390  0.47150  1.0000
  H   H154      1.0  0.75070  0.89610  0.97150  1.0000
  H   H155      1.0  0.25070  0.60390  0.02850  1.0000
  H   H156      1.0  0.24930  0.89610  0.52850  1.0000
  H   H157      1.0  0.25070  0.39610  0.52850  1.0000
  H   H158      1.0  0.24930  0.10390  0.02850  1.0000
  H   H159      1.0  0.74930  0.39610  0.97150  1.0000
  H   H160      1.0  0.75070  0.10390  0.47150  1.0000
