data_image0
_chemical_formula_structural       Sb4Cu4I4N8O24C8H8C8H8C8H8C16H8C16H16C8H16C8H16
_chemical_formula_sum              "Sb4 Cu4 I4 N8 O24 C72 H80"
_cell_length_a       17.557
_cell_length_b       26.674
_cell_length_c       8.0497
_cell_angle_alpha    90
_cell_angle_beta     109.822
_cell_angle_gamma    90

_space_group_name_H-M_alt    "P 1"
_space_group_IT_number       1

loop_
  _space_group_symop_operation_xyz
  'x, y, z'

loop_
  _atom_site_type_symbol
  _atom_site_label
  _atom_site_symmetry_multiplicity
  _atom_site_fract_x
  _atom_site_fract_y
  _atom_site_fract_z
  _atom_site_occupancy
  Sb  Sb1       1.0  0.25000  0.75000  0.50000  1.0000
  Sb  Sb2       1.0  0.75000  0.75000  0.50000  1.0000
  Sb  Sb3       1.0  0.75000  0.25000  0.50000  1.0000
  Sb  Sb4       1.0  0.25000  0.25000  0.50000  1.0000
  Cu  Cu1       1.0  0.00000  0.95046  0.50000  1.0000
  Cu  Cu2       1.0  0.50000  0.45046  0.50000  1.0000
  Cu  Cu3       1.0  0.00000  0.04954  0.50000  1.0000
  Cu  Cu4       1.0  0.50000  0.54954  0.50000  1.0000
  I   I1        1.0  0.11365  0.00000  0.41887  1.0000
  I   I2        1.0  0.88635  0.00000  0.58113  1.0000
  I   I3        1.0  0.61365  0.50000  0.41887  1.0000
  I   I4        1.0  0.38635  0.50000  0.58113  1.0000
  N   N1        1.0  0.05850  0.90900  0.71720  1.0000
  N   N2        1.0  0.94150  0.90900  0.28280  1.0000
  N   N3        1.0  0.55850  0.40900  0.71720  1.0000
  N   N4        1.0  0.44150  0.40900  0.28280  1.0000
  N   N5        1.0  0.94150  0.09100  0.28280  1.0000
  N   N6        1.0  0.05850  0.09100  0.71720  1.0000
  N   N7        1.0  0.44150  0.59100  0.28280  1.0000
  N   N8        1.0  0.55850  0.59100  0.71720  1.0000
  O   O1        1.0  0.29770  0.76510  0.31690  1.0000
  O   O2        1.0  0.70230  0.76510  0.68310  1.0000
  O   O3        1.0  0.79770  0.26510  0.31690  1.0000
  O   O4        1.0  0.20230  0.26510  0.68310  1.0000
  O   O5        1.0  0.70230  0.23490  0.68310  1.0000
  O   O6        1.0  0.29770  0.23490  0.31690  1.0000
  O   O7        1.0  0.20230  0.73490  0.68310  1.0000
  O   O8        1.0  0.79770  0.73490  0.31690  1.0000
  O   O9        1.0  0.22260  0.82040  0.51240  1.0000
  O   O10       1.0  0.77740  0.82040  0.48760  1.0000
  O   O11       1.0  0.72260  0.32040  0.51240  1.0000
  O   O12       1.0  0.27740  0.32040  0.48760  1.0000
  O   O13       1.0  0.77740  0.17960  0.48760  1.0000
  O   O14       1.0  0.22260  0.17960  0.51240  1.0000
  O   O15       1.0  0.27740  0.67960  0.48760  1.0000
  O   O16       1.0  0.72260  0.67960  0.51240  1.0000
  O   O17       1.0  0.14620  0.73940  0.31330  1.0000
  O   O18       1.0  0.85380  0.73940  0.68670  1.0000
  O   O19       1.0  0.64620  0.23940  0.31330  1.0000
  O   O20       1.0  0.35380  0.23940  0.68670  1.0000
  O   O21       1.0  0.85380  0.26060  0.68670  1.0000
  O   O22       1.0  0.14620  0.26060  0.31330  1.0000
  O   O23       1.0  0.35380  0.76060  0.68670  1.0000
  O   O24       1.0  0.64620  0.76060  0.31330  1.0000
  C   C1        1.0  0.06770  0.92450  0.87860  1.0000
  C   C2        1.0  0.93230  0.92450  0.12140  1.0000
  C   C3        1.0  0.56770  0.42450  0.87860  1.0000
  C   C4        1.0  0.43230  0.42450  0.12140  1.0000
  C   C5        1.0  0.93230  0.07550  0.12140  1.0000
  C   C6        1.0  0.06770  0.07550  0.87860  1.0000
  C   C7        1.0  0.43230  0.57550  0.12140  1.0000
  C   C8        1.0  0.56770  0.57550  0.87860  1.0000
  H   H1        1.0  0.04740  0.95590  0.89080  1.0000
  H   H2        1.0  0.95260  0.95590  0.10920  1.0000
  H   H3        1.0  0.54740  0.45590  0.89080  1.0000
  H   H4        1.0  0.45260  0.45590  0.10920  1.0000
  H   H5        1.0  0.95260  0.04410  0.10920  1.0000
  H   H6        1.0  0.04740  0.04410  0.89080  1.0000
  H   H7        1.0  0.45260  0.54410  0.10920  1.0000
  H   H8        1.0  0.54740  0.54410  0.89080  1.0000
  C   C9        1.0  0.12740  0.83460  0.85440  1.0000
  C   C10       1.0  0.87260  0.83460  0.14560  1.0000
  C   C11       1.0  0.62740  0.33460  0.85440  1.0000
  C   C12       1.0  0.37260  0.33460  0.14560  1.0000
  C   C13       1.0  0.87260  0.16540  0.14560  1.0000
  C   C14       1.0  0.12740  0.16540  0.85440  1.0000
  C   C15       1.0  0.37260  0.66540  0.14560  1.0000
  C   C16       1.0  0.62740  0.66540  0.85440  1.0000
  H   H9        1.0  0.14830  0.80370  0.83820  1.0000
  H   H10       1.0  0.85170  0.80370  0.16180  1.0000
  H   H11       1.0  0.64830  0.30370  0.83820  1.0000
  H   H12       1.0  0.35170  0.30370  0.16180  1.0000
  H   H13       1.0  0.85170  0.19630  0.16180  1.0000
  H   H14       1.0  0.14830  0.19630  0.83820  1.0000
  H   H15       1.0  0.35170  0.69630  0.16180  1.0000
  H   H16       1.0  0.64830  0.69630  0.83820  1.0000
  C   C17       1.0  0.10530  0.89750  0.03030  1.0000
  C   C18       1.0  0.89470  0.89750  0.96970  1.0000
  C   C19       1.0  0.60530  0.39750  0.03030  1.0000
  C   C20       1.0  0.39470  0.39750  0.96970  1.0000
  C   C21       1.0  0.89470  0.10250  0.96970  1.0000
  C   C22       1.0  0.10530  0.10250  0.03030  1.0000
  C   C23       1.0  0.39470  0.60250  0.96970  1.0000
  C   C24       1.0  0.60530  0.60250  0.03030  1.0000
  H   H17       1.0  0.11030  0.91160  0.13910  1.0000
  H   H18       1.0  0.88970  0.91160  0.86090  1.0000
  H   H19       1.0  0.61030  0.41160  0.13910  1.0000
  H   H20       1.0  0.38970  0.41160  0.86090  1.0000
  H   H21       1.0  0.88970  0.08840  0.86090  1.0000
  H   H22       1.0  0.11030  0.08840  0.13910  1.0000
  H   H23       1.0  0.38970  0.58840  0.86090  1.0000
  H   H24       1.0  0.61030  0.58840  0.13910  1.0000
  C   C25       1.0  0.13570  0.84990  0.02480  1.0000
  C   C26       1.0  0.86430  0.84990  0.97520  1.0000
  C   C27       1.0  0.63570  0.34990  0.02480  1.0000
  C   C28       1.0  0.36430  0.34990  0.97520  1.0000
  C   C29       1.0  0.86430  0.15010  0.97520  1.0000
  C   C30       1.0  0.13570  0.15010  0.02480  1.0000
  C   C31       1.0  0.36430  0.65010  0.97520  1.0000
  C   C32       1.0  0.63570  0.65010  0.02480  1.0000
  C   C33       1.0  0.08920  0.86360  0.70980  1.0000
  C   C34       1.0  0.91080  0.86360  0.29020  1.0000
  C   C35       1.0  0.58920  0.36360  0.70980  1.0000
  C   C36       1.0  0.41080  0.36360  0.29020  1.0000
  C   C37       1.0  0.91080  0.13640  0.29020  1.0000
  C   C38       1.0  0.08920  0.13640  0.70980  1.0000
  C   C39       1.0  0.41080  0.63640  0.29020  1.0000
  C   C40       1.0  0.58920  0.63640  0.70980  1.0000
  H   H25       1.0  0.08440  0.85080  0.59910  1.0000
  H   H26       1.0  0.91560  0.85080  0.40090  1.0000
  H   H27       1.0  0.58440  0.35080  0.59910  1.0000
  H   H28       1.0  0.41560  0.35080  0.40090  1.0000
  H   H29       1.0  0.91560  0.14920  0.40090  1.0000
  H   H30       1.0  0.08440  0.14920  0.59910  1.0000
  H   H31       1.0  0.41560  0.64920  0.40090  1.0000
  H   H32       1.0  0.58440  0.64920  0.59910  1.0000
  C   C41       1.0  0.17350  0.81810  0.18580  1.0000
  C   C42       1.0  0.82650  0.81810  0.81420  1.0000
  C   C43       1.0  0.67350  0.31810  0.18580  1.0000
  C   C44       1.0  0.32650  0.31810  0.81420  1.0000
  C   C45       1.0  0.82650  0.18190  0.81420  1.0000
  C   C46       1.0  0.17350  0.18190  0.18580  1.0000
  C   C47       1.0  0.32650  0.68190  0.81420  1.0000
  C   C48       1.0  0.67350  0.68190  0.18580  1.0000
  C   C49       1.0  0.18730  0.84670  0.35680  1.0000
  C   C50       1.0  0.81270  0.84670  0.64320  1.0000
  C   C51       1.0  0.68730  0.34670  0.35680  1.0000
  C   C52       1.0  0.31270  0.34670  0.64320  1.0000
  C   C53       1.0  0.81270  0.15330  0.64320  1.0000
  C   C54       1.0  0.18730  0.15330  0.35680  1.0000
  C   C55       1.0  0.31270  0.65330  0.64320  1.0000
  C   C56       1.0  0.68730  0.65330  0.35680  1.0000
  H   H33       1.0  0.22110  0.87550  0.35740  1.0000
  H   H34       1.0  0.77890  0.87550  0.64260  1.0000
  H   H35       1.0  0.72110  0.37550  0.35740  1.0000
  H   H36       1.0  0.27890  0.37550  0.64260  1.0000
  H   H37       1.0  0.77890  0.12450  0.64260  1.0000
  H   H38       1.0  0.22110  0.12450  0.35740  1.0000
  H   H39       1.0  0.27890  0.62450  0.64260  1.0000
  H   H40       1.0  0.72110  0.62450  0.35740  1.0000
  H   H41       1.0  0.13540  0.85930  0.35640  1.0000
  H   H42       1.0  0.86460  0.85930  0.64360  1.0000
  H   H43       1.0  0.63540  0.35930  0.35640  1.0000
  H   H44       1.0  0.36460  0.35930  0.64360  1.0000
  H   H45       1.0  0.86460  0.14070  0.64360  1.0000
  H   H46       1.0  0.13540  0.14070  0.35640  1.0000
  H   H47       1.0  0.36460  0.64070  0.64360  1.0000
  H   H48       1.0  0.63540  0.64070  0.35640  1.0000
  C   C57       1.0  0.12410  0.77560  0.17770  1.0000
  C   C58       1.0  0.87590  0.77560  0.82230  1.0000
  C   C59       1.0  0.62410  0.27560  0.17770  1.0000
  C   C60       1.0  0.37590  0.27560  0.82230  1.0000
  C   C61       1.0  0.87590  0.22440  0.82230  1.0000
  C   C62       1.0  0.12410  0.22440  0.17770  1.0000
  C   C63       1.0  0.37590  0.72440  0.82230  1.0000
  C   C64       1.0  0.62410  0.72440  0.17770  1.0000
  H   H49       1.0  0.07080  0.78780  0.16810  1.0000
  H   H50       1.0  0.92920  0.78780  0.83190  1.0000
  H   H51       1.0  0.57080  0.28780  0.16810  1.0000
  H   H52       1.0  0.42920  0.28780  0.83190  1.0000
  H   H53       1.0  0.92920  0.21220  0.83190  1.0000
  H   H54       1.0  0.07080  0.21220  0.16810  1.0000
  H   H55       1.0  0.42920  0.71220  0.83190  1.0000
  H   H56       1.0  0.57080  0.71220  0.16810  1.0000
  H   H57       1.0  0.11850  0.75830  0.06810  1.0000
  H   H58       1.0  0.88150  0.75830  0.93190  1.0000
  H   H59       1.0  0.61850  0.25830  0.06810  1.0000
  H   H60       1.0  0.38150  0.25830  0.93190  1.0000
  H   H61       1.0  0.88150  0.24170  0.93190  1.0000
  H   H62       1.0  0.11850  0.24170  0.06810  1.0000
  H   H63       1.0  0.38150  0.74170  0.93190  1.0000
  H   H64       1.0  0.61850  0.74170  0.06810  1.0000
  C   C65       1.0  0.26030  0.80310  0.18850  1.0000
  C   C66       1.0  0.73970  0.80310  0.81150  1.0000
  C   C67       1.0  0.76030  0.30310  0.18850  1.0000
  C   C68       1.0  0.23970  0.30310  0.81150  1.0000
  C   C69       1.0  0.73970  0.19690  0.81150  1.0000
  C   C70       1.0  0.26030  0.19690  0.18850  1.0000
  C   C71       1.0  0.23970  0.69690  0.81150  1.0000
  C   C72       1.0  0.76030  0.69690  0.18850  1.0000
  H   H65       1.0  0.25660  0.79110  0.07230  1.0000
  H   H66       1.0  0.74340  0.79110  0.92770  1.0000
  H   H67       1.0  0.75660  0.29110  0.07230  1.0000
  H   H68       1.0  0.24340  0.29110  0.92770  1.0000
  H   H69       1.0  0.74340  0.20890  0.92770  1.0000
  H   H70       1.0  0.25660  0.20890  0.07230  1.0000
  H   H71       1.0  0.24340  0.70890  0.92770  1.0000
  H   H72       1.0  0.75660  0.70890  0.07230  1.0000
  H   H73       1.0  0.29440  0.83270  0.21360  1.0000
  H   H74       1.0  0.70560  0.83270  0.78640  1.0000
  H   H75       1.0  0.79440  0.33270  0.21360  1.0000
  H   H76       1.0  0.20560  0.33270  0.78640  1.0000
  H   H77       1.0  0.70560  0.16730  0.78640  1.0000
  H   H78       1.0  0.29440  0.16730  0.21360  1.0000
  H   H79       1.0  0.20560  0.66730  0.78640  1.0000
  H   H80       1.0  0.79440  0.66730  0.21360  1.0000
