data_image0
_chemical_formula_structural       Mn2C8H2C4H2C4H2C2H4C4H2C2H2C4H2C2H2C4H2C2H2C2H2C2H2C4O14
_chemical_formula_sum              "Mn2 C44 H26 O14"
_cell_length_a       9.6652
_cell_length_b       11.6743
_cell_length_c       11.8784
_cell_angle_alpha    71.653
_cell_angle_beta     80.651
_cell_angle_gamma    78.363

_space_group_name_H-M_alt    "P 1"
_space_group_IT_number       1

loop_
  _space_group_symop_operation_xyz
  'x, y, z'

loop_
  _atom_site_type_symbol
  _atom_site_label
  _atom_site_symmetry_multiplicity
  _atom_site_fract_x
  _atom_site_fract_y
  _atom_site_fract_z
  _atom_site_occupancy
  Mn  Mn1       1.0  0.12060  0.43800  0.09077  1.0000
  Mn  Mn2       1.0  0.87940  0.56200  0.90923  1.0000
  C   C1        1.0  0.82610  0.36890  0.16360  1.0000
  C   C2        1.0  0.17390  0.63110  0.83640  1.0000
  C   C3        1.0  0.32280  0.30580  0.27440  1.0000
  C   C4        1.0  0.67720  0.69420  0.72560  1.0000
  C   C5        1.0  0.47350  0.27190  0.30550  1.0000
  C   C6        1.0  0.52650  0.72810  0.69450  1.0000
  C   C7        1.0  0.50820  0.19570  0.41700  1.0000
  C   C8        1.0  0.49180  0.80430  0.58300  1.0000
  H   H1        1.0  0.43820  0.15950  0.47230  1.0000
  H   H2        1.0  0.56180  0.84050  0.52770  1.0000
  C   C9        1.0  0.64670  0.17330  0.44610  1.0000
  C   C10       1.0  0.35330  0.82670  0.55390  1.0000
  C   C11       1.0  0.75290  0.22530  0.36440  1.0000
  C   C12       1.0  0.24710  0.77470  0.63560  1.0000
  H   H3        1.0  0.84570  0.20960  0.38360  1.0000
  H   H4        1.0  0.15430  0.79040  0.61640  1.0000
  C   C13       1.0  0.71780  0.30210  0.25230  1.0000
  C   C14       1.0  0.28220  0.69790  0.74770  1.0000
  C   C15       1.0  0.58010  0.32380  0.22400  1.0000
  C   C16       1.0  0.41990  0.67620  0.77600  1.0000
  H   H5        1.0  0.55840  0.37420  0.14900  1.0000
  H   H6        1.0  0.44160  0.62580  0.85100  1.0000
  C   C17       1.0  0.80540  0.06240  0.59480  1.0000
  C   C18       1.0  0.19460  0.93760  0.40520  1.0000
  H   H7        1.0  0.85290  0.13320  0.57320  1.0000
  H   H8        1.0  0.14710  0.86680  0.42680  1.0000
  H   H9        1.0  0.85970  0.00500  0.55390  1.0000
  H   H10       1.0  0.14030  0.99500  0.44610  1.0000
  C   C19       1.0  0.79810  0.00340  0.72790  1.0000
  C   C20       1.0  0.20190  0.99660  0.27210  1.0000
  C   C21       1.0  0.67410  0.97600  0.79800  1.0000
  C   C22       1.0  0.32590  0.02400  0.20200  1.0000
  H   H11       1.0  0.59070  0.99050  0.76260  1.0000
  H   H12       1.0  0.40930  0.00950  0.23740  1.0000
  C   C23       1.0  0.67230  0.92690  0.92100  1.0000
  C   C24       1.0  0.32770  0.07310  0.07900  1.0000
  H   H13       1.0  0.58730  0.90920  0.96680  1.0000
  H   H14       1.0  0.41270  0.09080  0.03320  1.0000
  C   C25       1.0  0.79460  0.90380  0.97670  1.0000
  C   C26       1.0  0.20540  0.09620  0.02330  1.0000
  C   C27       1.0  0.92030  0.92660  0.90490  1.0000
  C   C28       1.0  0.07970  0.07340  0.09510  1.0000
  H   H15       1.0  0.00470  0.90850  0.93960  1.0000
  H   H16       1.0  0.99530  0.09150  0.06040  1.0000
  C   C29       1.0  0.92220  0.97590  0.78260  1.0000
  C   C30       1.0  0.07780  0.02410  0.21740  1.0000
  H   H17       1.0  0.00770  0.99080  0.73630  1.0000
  H   H18       1.0  0.99230  0.00920  0.26370  1.0000
  C   C31       1.0  0.79250  0.86610  0.10930  1.0000
  C   C32       1.0  0.20750  0.13390  0.89070  1.0000
  C   C33       1.0  0.71060  0.94200  0.17230  1.0000
  C   C34       1.0  0.28940  0.05800  0.82770  1.0000
  H   H19       1.0  0.65040  0.01020  0.13180  1.0000
  H   H20       1.0  0.34960  0.98980  0.86820  1.0000
  C   C35       1.0  0.71490  0.92030  0.29320  1.0000
  C   C36       1.0  0.28510  0.07970  0.70680  1.0000
  H   H21       1.0  0.65690  0.97230  0.33300  1.0000
  H   H22       1.0  0.34310  0.02770  0.66700  1.0000
  C   C37       1.0  0.80590  0.82080  0.35500  1.0000
  C   C38       1.0  0.19410  0.17920  0.64500  1.0000
  H   H23       1.0  0.81270  0.80730  0.43550  1.0000
  H   H24       1.0  0.18730  0.19270  0.56450  1.0000
  C   C39       1.0  0.88660  0.74150  0.29450  1.0000
  C   C40       1.0  0.11340  0.25850  0.70550  1.0000
  H   H25       1.0  0.94720  0.67410  0.33550  1.0000
  H   H26       1.0  0.05280  0.32590  0.66450  1.0000
  C   C41       1.0  0.87900  0.76050  0.17340  1.0000
  C   C42       1.0  0.12100  0.23950  0.82660  1.0000
  C   C43       1.0  0.94860  0.66120  0.12030  1.0000
  C   C44       1.0  0.05140  0.33880  0.87970  1.0000
  O   O1        1.0  0.94700  0.35918  0.19626  1.0000
  O   O2        1.0  0.05300  0.64082  0.80374  1.0000
  O   O3        1.0  0.78780  0.43193  0.06285  1.0000
  O   O4        1.0  0.21220  0.56807  0.93715  1.0000
  O   O5        1.0  0.30723  0.36378  0.16532  1.0000
  O   O6        1.0  0.69277  0.63622  0.83468  1.0000
  O   O7        1.0  0.22400  0.27890  0.35342  1.0000
  O   O8        1.0  0.77600  0.72110  0.64658  1.0000
  O   O9        1.0  0.66580  0.09860  0.55951  1.0000
  O   O10       1.0  0.33420  0.90140  0.44049  1.0000
  O   O11       1.0  0.05720  0.59077  0.16316  1.0000
  O   O12       1.0  0.94280  0.40923  0.83684  1.0000
  O   O13       1.0  0.88950  0.64809  0.03919  1.0000
  O   O14       1.0  0.11050  0.35191  0.96081  1.0000
