data_image0
_chemical_formula_structural       Co2C8H2C4H2C4H2C2H4C4H2C2H2C4H2C2H2C4H2C2H2C2H2C2H2C4O14
_chemical_formula_sum              "Co2 C44 H26 O14"
_cell_length_a       9.5637
_cell_length_b       10.988
_cell_length_c       11.922
_cell_angle_alpha    72.491
_cell_angle_beta     83.489
_cell_angle_gamma    80.575

_space_group_name_H-M_alt    "P 1"
_space_group_IT_number       1

loop_
  _space_group_symop_operation_xyz
  'x, y, z'

loop_
  _atom_site_type_symbol
  _atom_site_label
  _atom_site_symmetry_multiplicity
  _atom_site_fract_x
  _atom_site_fract_y
  _atom_site_fract_z
  _atom_site_occupancy
  Co  Co1       1.0  0.88704  0.05465  0.91106  1.0000
  Co  Co2       1.0  0.11296  0.94535  0.08894  1.0000
  C   C1        1.0  0.68490  0.18650  0.72840  1.0000
  C   C2        1.0  0.31510  0.81350  0.27160  1.0000
  C   C3        1.0  0.17540  0.13190  0.84770  1.0000
  C   C4        1.0  0.82460  0.86810  0.15230  1.0000
  C   C5        1.0  0.53090  0.22040  0.70090  1.0000
  C   C6        1.0  0.46910  0.77960  0.29910  1.0000
  C   C7        1.0  0.42540  0.17330  0.78460  1.0000
  C   C8        1.0  0.57460  0.82670  0.21540  1.0000
  H   H1        1.0  0.44940  0.12600  0.86040  1.0000
  H   H2        1.0  0.55060  0.87400  0.13960  1.0000
  C   C9        1.0  0.28440  0.19550  0.75760  1.0000
  C   C10       1.0  0.71560  0.80450  0.24240  1.0000
  C   C11       1.0  0.24670  0.26840  0.64450  1.0000
  C   C12       1.0  0.75330  0.73160  0.35550  1.0000
  H   H3        1.0  0.15250  0.28440  0.62560  1.0000
  H   H4        1.0  0.84750  0.71560  0.37440  1.0000
  C   C13       1.0  0.35260  0.31640  0.56090  1.0000
  C   C14       1.0  0.64740  0.68360  0.43910  1.0000
  C   C15       1.0  0.49340  0.29280  0.58810  1.0000
  C   C16       1.0  0.50660  0.70720  0.41190  1.0000
  H   H5        1.0  0.56310  0.32540  0.53100  1.0000
  H   H6        1.0  0.43690  0.67460  0.46900  1.0000
  C   C17       1.0  0.19030  0.42640  0.41050  1.0000
  C   C18       1.0  0.80970  0.57360  0.58950  1.0000
  H   H7        1.0  0.14260  0.49140  0.44680  1.0000
  H   H8        1.0  0.85740  0.50860  0.55320  1.0000
  H   H9        1.0  0.13720  0.35360  0.43480  1.0000
  H   H10       1.0  0.86280  0.64640  0.56520  1.0000
  C   C19       1.0  0.19670  0.48070  0.27810  1.0000
  C   C20       1.0  0.80330  0.51930  0.72190  1.0000
  C   C21       1.0  0.07190  0.52540  0.22140  1.0000
  C   C22       1.0  0.92810  0.47460  0.77860  1.0000
  H   H11       1.0  0.98530  0.52540  0.26570  1.0000
  H   H12       1.0  0.01470  0.47460  0.73430  1.0000
  C   C23       1.0  0.07420  0.56990  0.10000  1.0000
  C   C24       1.0  0.92580  0.43010  0.90000  1.0000
  H   H13       1.0  0.98880  0.59860  0.06390  1.0000
  H   H14       1.0  0.01120  0.40140  0.93610  1.0000
  C   C25       1.0  0.20060  0.57270  0.03080  1.0000
  C   C26       1.0  0.79940  0.42730  0.96920  1.0000
  C   C27       1.0  0.32410  0.53200  0.08920  1.0000
  C   C28       1.0  0.67590  0.46800  0.91080  1.0000
  H   H15       1.0  0.41090  0.53560  0.04530  1.0000
  H   H16       1.0  0.58910  0.46440  0.95470  1.0000
  C   C29       1.0  0.32310  0.48610  0.21040  1.0000
  C   C30       1.0  0.67690  0.51390  0.78960  1.0000
  H   H17       1.0  0.40850  0.45860  0.24650  1.0000
  H   H18       1.0  0.59150  0.54140  0.75350  1.0000
  C   C31       1.0  0.20410  0.61240  0.89970  1.0000
  C   C32       1.0  0.79590  0.38760  0.10030  1.0000
  C   C33       1.0  0.28450  0.53340  0.83740  1.0000
  C   C34       1.0  0.71550  0.46660  0.16260  1.0000
  H   H19       1.0  0.33910  0.45860  0.87870  1.0000
  H   H20       1.0  0.66090  0.54140  0.12130  1.0000
  C   C35       1.0  0.28580  0.56280  0.71590  1.0000
  C   C36       1.0  0.71420  0.43720  0.28410  1.0000
  H   H21       1.0  0.34340  0.50970  0.67650  1.0000
  H   H22       1.0  0.65660  0.49030  0.32350  1.0000
  C   C37       1.0  0.20170  0.67080  0.65330  1.0000
  C   C38       1.0  0.79830  0.32920  0.34670  1.0000
  H   H23       1.0  0.19990  0.68980  0.57190  1.0000
  H   H24       1.0  0.80010  0.31020  0.42810  1.0000
  C   C39       1.0  0.12050  0.75010  0.71290  1.0000
  C   C40       1.0  0.87950  0.24990  0.28710  1.0000
  H   H25       1.0  0.06210  0.82210  0.67130  1.0000
  H   H26       1.0  0.93790  0.17790  0.32870  1.0000
  C   C41       1.0  0.12390  0.72490  0.83420  1.0000
  C   C42       1.0  0.87610  0.27510  0.16580  1.0000
  C   C43       1.0  0.05510  0.82900  0.88830  1.0000
  C   C44       1.0  0.94490  0.17100  0.11170  1.0000
  O   O1        1.0  0.70610  0.12850  0.83608  1.0000
  O   O2        1.0  0.29390  0.87150  0.16392  1.0000
  O   O3        1.0  0.77780  0.21250  0.64863  1.0000
  O   O4        1.0  0.22220  0.78750  0.35137  1.0000
  O   O5        1.0  0.21610  0.07220  0.94856  1.0000
  O   O6        1.0  0.78390  0.92780  0.05144  1.0000
  O   O7        1.0  0.05300  0.13810  0.81467  1.0000
  O   O8        1.0  0.94700  0.86190  0.18533  1.0000
  O   O9        1.0  0.32970  0.38690  0.44640  1.0000
  O   O10       1.0  0.67030  0.61310  0.55360  1.0000
  O   O11       1.0  0.11910  0.84520  0.96794  1.0000
  O   O12       1.0  0.88090  0.15480  0.03206  1.0000
  O   O13       1.0  0.94410  0.89810  0.84630  1.0000
  O   O14       1.0  0.05590  0.10190  0.15370  1.0000
