data_image0
_chemical_formula_structural       Co2O16N8C12H4C4H4C8
_chemical_formula_sum              "Co2 O16 N8 C24 H8"
_cell_length_a       6.5238
_cell_length_b       17.3808
_cell_length_c       10.6599
_cell_angle_alpha    90
_cell_angle_beta     100.656
_cell_angle_gamma    90

_space_group_name_H-M_alt    "P 1"
_space_group_IT_number       1

loop_
  _space_group_symop_operation_xyz
  'x, y, z'

loop_
  _atom_site_type_symbol
  _atom_site_label
  _atom_site_symmetry_multiplicity
  _atom_site_fract_x
  _atom_site_fract_y
  _atom_site_fract_z
  _atom_site_occupancy
  Co  Co1       1.0  0.00000  0.00000  0.00000  1.0000
  Co  Co2       1.0  0.50000  0.50000  0.50000  1.0000
  O   O1        1.0  0.23666  0.95015  0.12825  1.0000
  O   O2        1.0  0.26334  0.45015  0.37175  1.0000
  O   O3        1.0  0.76334  0.04985  0.87175  1.0000
  O   O4        1.0  0.73666  0.54985  0.62825  1.0000
  O   O5        1.0  0.55067  0.97525  0.24765  1.0000
  O   O6        1.0  0.94933  0.47525  0.25235  1.0000
  O   O7        1.0  0.44933  0.02475  0.75235  1.0000
  O   O8        1.0  0.05067  0.52475  0.74765  1.0000
  O   O9        1.0  0.80158  0.13153  0.30239  1.0000
  O   O10       1.0  0.69842  0.63153  0.19761  1.0000
  O   O11       1.0  0.19842  0.86847  0.69761  1.0000
  O   O12       1.0  0.30158  0.36847  0.80239  1.0000
  O   O13       1.0  0.92673  0.06019  0.15954  1.0000
  O   O14       1.0  0.57327  0.56019  0.34046  1.0000
  O   O15       1.0  0.07327  0.93981  0.84046  1.0000
  O   O16       1.0  0.42673  0.43981  0.65954  1.0000
  N   N1        1.0  0.23817  0.08169  0.00078  1.0000
  N   N2        1.0  0.26183  0.58169  0.49922  1.0000
  N   N3        1.0  0.76183  0.91831  0.99922  1.0000
  N   N4        1.0  0.73817  0.41831  0.50078  1.0000
  N   N5        1.0  0.57931  0.17953  0.03747  1.0000
  N   N6        1.0  0.92069  0.67953  0.46253  1.0000
  N   N7        1.0  0.42069  0.82047  0.96253  1.0000
  N   N8        1.0  0.07931  0.32047  0.53747  1.0000
  C   C1        1.0  0.41064  0.06441  0.08623  1.0000
  C   C2        1.0  0.08936  0.56441  0.41377  1.0000
  C   C3        1.0  0.58936  0.93559  0.91377  1.0000
  C   C4        1.0  0.91064  0.43559  0.58623  1.0000
  C   C5        1.0  0.58346  0.11325  0.10262  1.0000
  C   C6        1.0  0.91654  0.61325  0.39738  1.0000
  C   C7        1.0  0.41654  0.88675  0.89738  1.0000
  C   C8        1.0  0.08346  0.38675  0.60262  1.0000
  C   C9        1.0  0.40667  0.19561  0.95268  1.0000
  C   C10       1.0  0.09333  0.69561  0.54732  1.0000
  C   C11       1.0  0.59333  0.80439  0.04732  1.0000
  C   C12       1.0  0.90667  0.30439  0.45268  1.0000
  H   H1        1.0  0.40060  0.24190  0.90470  1.0000
  H   H2        1.0  0.09940  0.74190  0.59530  1.0000
  H   H3        1.0  0.59940  0.75810  0.09530  1.0000
  H   H4        1.0  0.90060  0.25810  0.40470  1.0000
  C   C13       1.0  0.23572  0.14636  0.93298  1.0000
  C   C14       1.0  0.26428  0.64636  0.56702  1.0000
  C   C15       1.0  0.76428  0.85364  0.06702  1.0000
  C   C16       1.0  0.73572  0.35364  0.43298  1.0000
  H   H5        1.0  0.11630  0.15880  0.87080  1.0000
  H   H6        1.0  0.38370  0.65880  0.62920  1.0000
  H   H7        1.0  0.88370  0.84120  0.12920  1.0000
  H   H8        1.0  0.61630  0.34120  0.37080  1.0000
  C   C17       1.0  0.40230  0.99073  0.16184  1.0000
  C   C18       1.0  0.09770  0.49073  0.33816  1.0000
  C   C19       1.0  0.59770  0.00927  0.83816  1.0000
  C   C20       1.0  0.90230  0.50927  0.66184  1.0000
  C   C21       1.0  0.78639  0.09878  0.19544  1.0000
  C   C22       1.0  0.71361  0.59878  0.30456  1.0000
  C   C23       1.0  0.21361  0.90122  0.80456  1.0000
  C   C24       1.0  0.28639  0.40122  0.69544  1.0000
