data_image0
_chemical_formula_structural       Zn6O40C12H4C4H4C20H4C4H4C8
_chemical_formula_sum              "Zn6 O40 C48 H16"
_cell_length_a       9.3468
_cell_length_b       15.2267
_cell_length_c       17.6517
_cell_angle_alpha    90
_cell_angle_beta     95.599
_cell_angle_gamma    90

_space_group_name_H-M_alt    "P 1"
_space_group_IT_number       1

loop_
  _space_group_symop_operation_xyz
  'x, y, z'

loop_
  _atom_site_type_symbol
  _atom_site_label
  _atom_site_symmetry_multiplicity
  _atom_site_fract_x
  _atom_site_fract_y
  _atom_site_fract_z
  _atom_site_occupancy
  Zn  Zn1       1.0  0.92742  0.60963  0.33770  1.0000
  Zn  Zn2       1.0  0.07258  0.10963  0.16230  1.0000
  Zn  Zn3       1.0  0.07258  0.39037  0.66230  1.0000
  Zn  Zn4       1.0  0.92742  0.89037  0.83770  1.0000
  Zn  Zn5       1.0  0.00000  0.50000  0.50000  1.0000
  Zn  Zn6       1.0  0.00000  0.00000  0.00000  1.0000
  O   O1        1.0  0.73320  0.56940  0.35880  1.0000
  O   O2        1.0  0.26680  0.06940  0.14120  1.0000
  O   O3        1.0  0.26680  0.43060  0.64120  1.0000
  O   O4        1.0  0.73320  0.93060  0.85880  1.0000
  O   O5        1.0  0.80320  0.46220  0.44180  1.0000
  O   O6        1.0  0.19680  0.96220  0.05820  1.0000
  O   O7        1.0  0.19680  0.53780  0.55820  1.0000
  O   O8        1.0  0.80320  0.03780  0.94180  1.0000
  O   O9        1.0  0.45470  0.53770  0.37520  1.0000
  O   O10       1.0  0.54530  0.03770  0.12480  1.0000
  O   O11       1.0  0.54530  0.46230  0.62480  1.0000
  O   O12       1.0  0.45470  0.96230  0.87520  1.0000
  O   O13       1.0  0.20340  0.62030  0.32700  1.0000
  O   O14       1.0  0.79660  0.12030  0.17300  1.0000
  O   O15       1.0  0.79660  0.37970  0.67300  1.0000
  O   O16       1.0  0.20340  0.87970  0.82700  1.0000
  O   O17       1.0  0.07490  0.52360  0.38350  1.0000
  O   O18       1.0  0.92510  0.02360  0.11650  1.0000
  O   O19       1.0  0.92510  0.47640  0.61650  1.0000
  O   O20       1.0  0.07490  0.97640  0.88350  1.0000
  O   O21       1.0  0.94160  0.71920  0.39830  1.0000
  O   O22       1.0  0.05840  0.21920  0.10170  1.0000
  O   O23       1.0  0.05840  0.28080  0.60170  1.0000
  O   O24       1.0  0.94160  0.78080  0.89830  1.0000
  O   O25       1.0  0.94570  0.64350  0.50840  1.0000
  O   O26       1.0  0.05430  0.14350  0.99160  1.0000
  O   O27       1.0  0.05430  0.35650  0.49160  1.0000
  O   O28       1.0  0.94570  0.85650  0.00840  1.0000
  O   O29       1.0  0.91610  0.79880  0.58540  1.0000
  O   O30       1.0  0.08390  0.29880  0.91460  1.0000
  O   O31       1.0  0.08390  0.20120  0.41460  1.0000
  O   O32       1.0  0.91610  0.70120  0.08540  1.0000
  O   O33       1.0  0.88020  0.98430  0.70570  1.0000
  O   O34       1.0  0.11980  0.48430  0.79430  1.0000
  O   O35       1.0  0.11980  0.01570  0.29430  1.0000
  O   O36       1.0  0.88020  0.51570  0.20570  1.0000
  O   O37       1.0  0.91010  0.84340  0.73320  1.0000
  O   O38       1.0  0.08990  0.34340  0.76680  1.0000
  O   O39       1.0  0.08990  0.15660  0.26680  1.0000
  O   O40       1.0  0.91010  0.65660  0.23320  1.0000
  C   C1        1.0  0.71060  0.50490  0.40040  1.0000
  C   C2        1.0  0.28940  0.00490  0.09960  1.0000
  C   C3        1.0  0.28940  0.49510  0.59960  1.0000
  C   C4        1.0  0.71060  0.99510  0.90040  1.0000
  C   C5        1.0  0.55860  0.47970  0.40360  1.0000
  C   C6        1.0  0.44140  0.97970  0.09640  1.0000
  C   C7        1.0  0.44140  0.52030  0.59640  1.0000
  C   C8        1.0  0.55860  0.02030  0.90360  1.0000
  C   C9        1.0  0.49650  0.40690  0.43260  1.0000
  C   C10       1.0  0.50350  0.90690  0.06740  1.0000
  C   C11       1.0  0.50350  0.59310  0.56740  1.0000
  C   C12       1.0  0.49650  0.09310  0.93260  1.0000
  H   H1        1.0  0.54380  0.35780  0.45420  1.0000
  H   H2        1.0  0.45620  0.85780  0.04580  1.0000
  H   H3        1.0  0.45620  0.64220  0.54580  1.0000
  H   H4        1.0  0.54380  0.14220  0.95420  1.0000
  C   C13       1.0  0.34510  0.42140  0.42290  1.0000
  C   C14       1.0  0.65490  0.92140  0.07710  1.0000
  C   C15       1.0  0.65490  0.57860  0.57710  1.0000
  C   C16       1.0  0.34510  0.07860  0.92290  1.0000
  H   H5        1.0  0.27410  0.38370  0.43710  1.0000
  H   H6        1.0  0.72590  0.88370  0.06290  1.0000
  H   H7        1.0  0.72590  0.61630  0.56290  1.0000
  H   H8        1.0  0.27410  0.11630  0.93710  1.0000
  C   C17       1.0  0.32480  0.50050  0.38900  1.0000
  C   C18       1.0  0.67520  0.00050  0.11100  1.0000
  C   C19       1.0  0.67520  0.49950  0.61100  1.0000
  C   C20       1.0  0.32480  0.99950  0.88900  1.0000
  C   C21       1.0  0.19590  0.55430  0.36470  1.0000
  C   C22       1.0  0.80410  0.05430  0.13530  1.0000
  C   C23       1.0  0.80410  0.44570  0.63530  1.0000
  C   C24       1.0  0.19590  0.94570  0.86470  1.0000
  C   C25       1.0  0.93820  0.71180  0.47080  1.0000
  C   C26       1.0  0.06180  0.21180  0.02920  1.0000
  C   C27       1.0  0.06180  0.28820  0.52920  1.0000
  C   C28       1.0  0.93820  0.78820  0.97080  1.0000
  C   C29       1.0  0.91600  0.79860  0.50790  1.0000
  C   C30       1.0  0.08400  0.29860  0.99210  1.0000
  C   C31       1.0  0.08400  0.20140  0.49210  1.0000
  C   C32       1.0  0.91600  0.70140  0.00790  1.0000
  C   C33       1.0  0.89240  0.88000  0.48000  1.0000
  C   C34       1.0  0.10760  0.38000  0.02000  1.0000
  C   C35       1.0  0.10760  0.12000  0.52000  1.0000
  C   C36       1.0  0.89240  0.62000  0.98000  1.0000
  H   H9        1.0  0.88640  0.89650  0.42900  1.0000
  H   H10       1.0  0.11360  0.39650  0.07100  1.0000
  H   H11       1.0  0.11360  0.10350  0.57100  1.0000
  H   H12       1.0  0.88640  0.60350  0.92900  1.0000
  C   C37       1.0  0.87850  0.93550  0.54260  1.0000
  C   C38       1.0  0.12150  0.43550  0.95740  1.0000
  C   C39       1.0  0.12150  0.06450  0.45740  1.0000
  C   C40       1.0  0.87850  0.56450  0.04260  1.0000
  H   H13       1.0  0.86260  0.99580  0.54080  1.0000
  H   H14       1.0  0.13740  0.49580  0.95920  1.0000
  H   H15       1.0  0.13740  0.00420  0.45920  1.0000
  H   H16       1.0  0.86260  0.50420  0.04080  1.0000
  C   C41       1.0  0.89220  0.88600  0.60440  1.0000
  C   C42       1.0  0.10780  0.38600  0.89560  1.0000
  C   C43       1.0  0.10780  0.11400  0.39560  1.0000
  C   C44       1.0  0.89220  0.61400  0.10440  1.0000
  C   C45       1.0  0.89530  0.90740  0.68690  1.0000
  C   C46       1.0  0.10470  0.40740  0.81310  1.0000
  C   C47       1.0  0.10470  0.09260  0.31310  1.0000
  C   C48       1.0  0.89530  0.59260  0.18690  1.0000
