data_image0
_chemical_formula_structural       La8C12H4C12H4C24H4C12H4C20O44H4O32H24
_chemical_formula_sum              "La8 C80 H44 O76"
_cell_length_a       7.6002
_cell_length_b       18.954
_cell_length_c       18.212
_cell_angle_alpha    90
_cell_angle_beta     90.121
_cell_angle_gamma    90

_space_group_name_H-M_alt    "P 1"
_space_group_IT_number       1

loop_
  _space_group_symop_operation_xyz
  'x, y, z'

loop_
  _atom_site_type_symbol
  _atom_site_label
  _atom_site_symmetry_multiplicity
  _atom_site_fract_x
  _atom_site_fract_y
  _atom_site_fract_z
  _atom_site_occupancy
  La  La1       1.0  0.24770  0.30356  0.46084  1.0000
  La  La2       1.0  0.25230  0.80356  0.03916  1.0000
  La  La3       1.0  0.75230  0.69644  0.53916  1.0000
  La  La4       1.0  0.74770  0.19644  0.96084  1.0000
  La  La5       1.0  0.24590  0.30360  0.94766  1.0000
  La  La6       1.0  0.25410  0.80360  0.55234  1.0000
  La  La7       1.0  0.75410  0.69640  0.05234  1.0000
  La  La8       1.0  0.74590  0.19640  0.44766  1.0000
  C   C1        1.0  0.85900  0.31540  0.64170  1.0000
  C   C2        1.0  0.64100  0.81540  0.85830  1.0000
  C   C3        1.0  0.14100  0.68460  0.35830  1.0000
  C   C4        1.0  0.35900  0.18460  0.14170  1.0000
  C   C5        1.0  0.67400  0.32380  0.63290  1.0000
  C   C6        1.0  0.82600  0.82380  0.86710  1.0000
  C   C7        1.0  0.32600  0.67620  0.36710  1.0000
  C   C8        1.0  0.17400  0.17620  0.13290  1.0000
  C   C9        1.0  0.57400  0.32400  0.69410  1.0000
  C   C10       1.0  0.92600  0.82400  0.80590  1.0000
  C   C11       1.0  0.42600  0.67600  0.30590  1.0000
  C   C12       1.0  0.07400  0.17600  0.19410  1.0000
  H   H1        1.0  0.45260  0.32830  0.68840  1.0000
  H   H2        1.0  0.04740  0.82830  0.81160  1.0000
  H   H3        1.0  0.54740  0.67170  0.31160  1.0000
  H   H4        1.0  0.95260  0.17170  0.18840  1.0000
  C   C13       1.0  0.64600  0.31790  0.77030  1.0000
  C   C14       1.0  0.85400  0.81790  0.72970  1.0000
  C   C15       1.0  0.35400  0.68210  0.22970  1.0000
  C   C16       1.0  0.14600  0.18210  0.27030  1.0000
  C   C17       1.0  0.82300  0.31760  0.77270  1.0000
  C   C18       1.0  0.67700  0.81760  0.72730  1.0000
  C   C19       1.0  0.17700  0.68240  0.22730  1.0000
  C   C20       1.0  0.32300  0.18240  0.27270  1.0000
  C   C21       1.0  0.93000  0.31600  0.71240  1.0000
  C   C22       1.0  0.57000  0.81600  0.78760  1.0000
  C   C23       1.0  0.07000  0.68400  0.28760  1.0000
  C   C24       1.0  0.43000  0.18400  0.21240  1.0000
  H   H5        1.0  0.05130  0.31530  0.71860  1.0000
  H   H6        1.0  0.44870  0.81530  0.78140  1.0000
  H   H7        1.0  0.94870  0.68470  0.28140  1.0000
  H   H8        1.0  0.55130  0.18470  0.21860  1.0000
  C   C25       1.0  0.98200  0.31490  0.57700  1.0000
  C   C26       1.0  0.51800  0.81490  0.92300  1.0000
  C   C27       1.0  0.01800  0.68510  0.42300  1.0000
  C   C28       1.0  0.48200  0.18510  0.07700  1.0000
  C   C29       1.0  0.57500  0.33290  0.56220  1.0000
  C   C30       1.0  0.92500  0.83290  0.93780  1.0000
  C   C31       1.0  0.42500  0.66710  0.43780  1.0000
  C   C32       1.0  0.07500  0.16710  0.06220  1.0000
  C   C33       1.0  0.52200  0.31460  0.83330  1.0000
  C   C34       1.0  0.97800  0.81460  0.66670  1.0000
  C   C35       1.0  0.47800  0.68540  0.16670  1.0000
  C   C36       1.0  0.02200  0.18540  0.33330  1.0000
  C   C37       1.0  0.92400  0.31600  0.84510  1.0000
  C   C38       1.0  0.57600  0.81600  0.65490  1.0000
  C   C39       1.0  0.07600  0.68400  0.15490  1.0000
  C   C40       1.0  0.42400  0.18400  0.34510  1.0000
  C   C41       1.0  0.21300  0.54120  0.86420  1.0000
  C   C42       1.0  0.28700  0.04120  0.63580  1.0000
  C   C43       1.0  0.78700  0.45880  0.13580  1.0000
  C   C44       1.0  0.71300  0.95880  0.36420  1.0000
  C   C45       1.0  0.23900  0.50760  0.79640  1.0000
  C   C46       1.0  0.26100  0.00760  0.70360  1.0000
  C   C47       1.0  0.76100  0.49240  0.20360  1.0000
  C   C48       1.0  0.73900  0.99240  0.29640  1.0000
  H   H9        1.0  0.28160  0.46160  0.79520  1.0000
  H   H10       1.0  0.21840  0.96160  0.70480  1.0000
  H   H11       1.0  0.71840  0.53840  0.20480  1.0000
  H   H12       1.0  0.78160  0.03840  0.29520  1.0000
  C   C49       1.0  0.20200  0.54300  0.73060  1.0000
  C   C50       1.0  0.29800  0.04300  0.76940  1.0000
  C   C51       1.0  0.79800  0.45700  0.26940  1.0000
  C   C52       1.0  0.70200  0.95700  0.23060  1.0000
  C   C53       1.0  0.14200  0.60840  0.73300  1.0000
  C   C54       1.0  0.35800  0.10840  0.76700  1.0000
  C   C55       1.0  0.85800  0.39160  0.26700  1.0000
  C   C56       1.0  0.64200  0.89160  0.23300  1.0000
  C   C57       1.0  0.11700  0.64320  0.79990  1.0000
  C   C58       1.0  0.38300  0.14320  0.70010  1.0000
  C   C59       1.0  0.88300  0.35680  0.20010  1.0000
  C   C60       1.0  0.61700  0.85680  0.29990  1.0000
  H   H13       1.0  0.07610  0.68950  0.79950  1.0000
  H   H14       1.0  0.42390  0.18950  0.70050  1.0000
  H   H15       1.0  0.92390  0.31050  0.20050  1.0000
  H   H16       1.0  0.57610  0.81050  0.29950  1.0000
  C   C61       1.0  0.15100  0.61080  0.86680  1.0000
  C   C62       1.0  0.34900  0.11080  0.63320  1.0000
  C   C63       1.0  0.84900  0.38920  0.13320  1.0000
  C   C64       1.0  0.65100  0.88920  0.36680  1.0000
  C   C65       1.0  0.26400  0.50020  0.93360  1.0000
  C   C66       1.0  0.23600  0.00020  0.56640  1.0000
  C   C67       1.0  0.73600  0.49980  0.06640  1.0000
  C   C68       1.0  0.76400  0.99980  0.43360  1.0000
  C   C69       1.0  0.23400  0.50440  0.66050  1.0000
  C   C70       1.0  0.26600  0.00440  0.83950  1.0000
  C   C71       1.0  0.76600  0.49560  0.33950  1.0000
  C   C72       1.0  0.73400  0.99560  0.16050  1.0000
  C   C73       1.0  0.10000  0.65250  0.66470  1.0000
  C   C74       1.0  0.40000  0.15250  0.83530  1.0000
  C   C75       1.0  0.90000  0.34750  0.33530  1.0000
  C   C76       1.0  0.60000  0.84750  0.16470  1.0000
  C   C77       1.0  0.10100  0.65040  0.93810  1.0000
  C   C78       1.0  0.39900  0.15040  0.56190  1.0000
  C   C79       1.0  0.89900  0.34960  0.06190  1.0000
  C   C80       1.0  0.60100  0.84960  0.43810  1.0000
  O   O1        1.0  0.93200  0.29320  0.51500  1.0000
  O   O2        1.0  0.56800  0.79320  0.98500  1.0000
  O   O3        1.0  0.06800  0.70680  0.48500  1.0000
  O   O4        1.0  0.43200  0.20680  0.01500  1.0000
  O   O5        1.0  0.14100  0.32730  0.59230  1.0000
  O   O6        1.0  0.35900  0.82730  0.90770  1.0000
  O   O7        1.0  0.85900  0.67270  0.40770  1.0000
  O   O8        1.0  0.64100  0.17270  0.09230  1.0000
  O   O9        1.0  0.57300  0.28690  0.51370  1.0000
  O   O10       1.0  0.92700  0.78690  0.98630  1.0000
  O   O11       1.0  0.42700  0.71310  0.48630  1.0000
  O   O12       1.0  0.07300  0.21310  0.01370  1.0000
  O   O13       1.0  0.46750  0.38690  0.55730  1.0000
  O   O14       1.0  0.03250  0.88690  0.94270  1.0000
  O   O15       1.0  0.53250  0.61310  0.44270  1.0000
  O   O16       1.0  0.96750  0.11310  0.05730  1.0000
  O   O17       1.0  0.36290  0.32560  0.81930  1.0000
  O   O18       1.0  0.13710  0.82560  0.68070  1.0000
  O   O19       1.0  0.63710  0.67440  0.18070  1.0000
  O   O20       1.0  0.86290  0.17440  0.31930  1.0000
  O   O21       1.0  0.58120  0.30280  0.89640  1.0000
  O   O22       1.0  0.91880  0.80280  0.60360  1.0000
  O   O23       1.0  0.41880  0.69720  0.10360  1.0000
  O   O24       1.0  0.08120  0.19720  0.39640  1.0000
  O   O25       1.0  0.01010  0.37340  0.86410  1.0000
  O   O26       1.0  0.48990  0.87340  0.63590  1.0000
  O   O27       1.0  0.98990  0.62660  0.13590  1.0000
  O   O28       1.0  0.51010  0.12660  0.36410  1.0000
  O   O29       1.0  0.94760  0.26000  0.88040  1.0000
  O   O30       1.0  0.55240  0.76000  0.61960  1.0000
  O   O31       1.0  0.05240  0.74000  0.11960  1.0000
  O   O32       1.0  0.44760  0.24000  0.38040  1.0000
  O   O33       1.0  0.24800  0.53830  0.99240  1.0000
  O   O34       1.0  0.25200  0.03830  0.50760  1.0000
  O   O35       1.0  0.75200  0.46170  0.00760  1.0000
  O   O36       1.0  0.74800  0.96170  0.49240  1.0000
  O   O37       1.0  0.29750  0.43890  0.93330  1.0000
  O   O38       1.0  0.20250  0.93890  0.56670  1.0000
  O   O39       1.0  0.70250  0.56110  0.06670  1.0000
  O   O40       1.0  0.79750  0.06110  0.43330  1.0000
  O   O41       1.0  0.34820  0.45230  0.66910  1.0000
  O   O42       1.0  0.15180  0.95230  0.83090  1.0000
  O   O43       1.0  0.65180  0.54770  0.33090  1.0000
  O   O44       1.0  0.84820  0.04770  0.16910  1.0000
  H   H17       1.0  0.35000  0.42690  0.63070  1.0000
  H   H18       1.0  0.15000  0.92690  0.86930  1.0000
  H   H19       1.0  0.65000  0.57310  0.36930  1.0000
  H   H20       1.0  0.85000  0.07310  0.13070  1.0000
  O   O45       1.0  0.16580  0.51940  0.60330  1.0000
  O   O46       1.0  0.33420  0.01940  0.89670  1.0000
  O   O47       1.0  0.83420  0.48060  0.39670  1.0000
  O   O48       1.0  0.66580  0.98060  0.10330  1.0000
  O   O49       1.0  0.22200  0.68300  0.63170  1.0000
  O   O50       1.0  0.27800  0.18300  0.86830  1.0000
  O   O51       1.0  0.77800  0.31700  0.36830  1.0000
  O   O52       1.0  0.72200  0.81700  0.13170  1.0000
  O   O53       1.0  0.93940  0.65770  0.64470  1.0000
  O   O54       1.0  0.56060  0.15770  0.85530  1.0000
  O   O55       1.0  0.06060  0.34230  0.35530  1.0000
  O   O56       1.0  0.43940  0.84230  0.14470  1.0000
  O   O57       1.0  0.94900  0.64030  0.96060  1.0000
  O   O58       1.0  0.55100  0.14030  0.53940  1.0000
  O   O59       1.0  0.05100  0.35970  0.03940  1.0000
  O   O60       1.0  0.44900  0.85970  0.46060  1.0000
  O   O61       1.0  0.21700  0.69230  0.96100  1.0000
  O   O62       1.0  0.28300  0.19230  0.53900  1.0000
  O   O63       1.0  0.78300  0.30770  0.03900  1.0000
  O   O64       1.0  0.71700  0.80770  0.46100  1.0000
  O   O65       1.0  0.43500  0.34500  0.05410  1.0000
  O   O66       1.0  0.06500  0.84500  0.44590  1.0000
  O   O67       1.0  0.56500  0.65500  0.94590  1.0000
  O   O68       1.0  0.93500  0.15500  0.55410  1.0000
  O   O69       1.0  0.46800  0.38770  0.39710  1.0000
  O   O70       1.0  0.03200  0.88770  0.10290  1.0000
  O   O71       1.0  0.53200  0.61230  0.60290  1.0000
  O   O72       1.0  0.96800  0.11230  0.89710  1.0000
  O   O73       1.0  0.15180  0.43450  0.47260  1.0000
  O   O74       1.0  0.34820  0.93450  0.02740  1.0000
  O   O75       1.0  0.84820  0.56550  0.52740  1.0000
  O   O76       1.0  0.65180  0.06550  0.97260  1.0000
  H   H21       1.0  0.55460  0.33890  0.05410  1.0000
  H   H22       1.0  0.94540  0.83890  0.44590  1.0000
  H   H23       1.0  0.44540  0.66110  0.94590  1.0000
  H   H24       1.0  0.05460  0.16110  0.55410  1.0000
  H   H25       1.0  0.42720  0.39000  0.05940  1.0000
  H   H26       1.0  0.07280  0.89000  0.44060  1.0000
  H   H27       1.0  0.57280  0.61000  0.94060  1.0000
  H   H28       1.0  0.92720  0.11000  0.55940  1.0000
  H   H29       1.0  0.51460  0.40620  0.43710  1.0000
  H   H30       1.0  0.98540  0.90620  0.06290  1.0000
  H   H31       1.0  0.48540  0.59380  0.56290  1.0000
  H   H32       1.0  0.01460  0.09380  0.93710  1.0000
  H   H33       1.0  0.56070  0.36810  0.37590  1.0000
  H   H34       1.0  0.93930  0.86810  0.12410  1.0000
  H   H35       1.0  0.43930  0.63190  0.62410  1.0000
  H   H36       1.0  0.06070  0.13190  0.87590  1.0000
  H   H37       1.0  0.13380  0.44370  0.51770  1.0000
  H   H38       1.0  0.36620  0.94370  0.98230  1.0000
  H   H39       1.0  0.86620  0.55630  0.48230  1.0000
  H   H40       1.0  0.63380  0.05630  0.01770  1.0000
  H   H41       1.0  0.05280  0.43520  0.45080  1.0000
  H   H42       1.0  0.44720  0.93520  0.04920  1.0000
  H   H43       1.0  0.94720  0.56480  0.54920  1.0000
  H   H44       1.0  0.55280  0.06480  0.95080  1.0000
