data_image0
_chemical_formula_structural       Zn8C8H8O16C16N8C8H8O8C16O8C8H8O8C8N4O4
_chemical_formula_sum              "Zn8 C64 H24 O44 N12"
_cell_length_a       27.768
_cell_length_b       7.9
_cell_length_c       18.298
_cell_angle_alpha    90
_cell_angle_beta     108.329
_cell_angle_gamma    90

_space_group_name_H-M_alt    "P 1"
_space_group_IT_number       1

loop_
  _space_group_symop_operation_xyz
  'x, y, z'

loop_
  _atom_site_type_symbol
  _atom_site_label
  _atom_site_symmetry_multiplicity
  _atom_site_fract_x
  _atom_site_fract_y
  _atom_site_fract_z
  _atom_site_occupancy
  Zn  Zn1       1.0  0.04098  0.17319  0.19715  1.0000
  Zn  Zn2       1.0  0.95902  0.17319  0.30285  1.0000
  Zn  Zn3       1.0  0.54098  0.67319  0.19715  1.0000
  Zn  Zn4       1.0  0.45902  0.67319  0.30285  1.0000
  Zn  Zn5       1.0  0.95902  0.82681  0.80285  1.0000
  Zn  Zn6       1.0  0.04098  0.82681  0.69715  1.0000
  Zn  Zn7       1.0  0.45902  0.32681  0.80285  1.0000
  Zn  Zn8       1.0  0.54098  0.32681  0.69715  1.0000
  C   C1        1.0  0.08892  0.09000  0.97785  1.0000
  C   C2        1.0  0.91108  0.09000  0.52215  1.0000
  C   C3        1.0  0.58892  0.59000  0.97785  1.0000
  C   C4        1.0  0.41108  0.59000  0.52215  1.0000
  C   C5        1.0  0.91108  0.91000  0.02215  1.0000
  C   C6        1.0  0.08892  0.91000  0.47785  1.0000
  C   C7        1.0  0.41108  0.41000  0.02215  1.0000
  C   C8        1.0  0.58892  0.41000  0.47785  1.0000
  H   H1        1.0  0.05650  0.06010  0.97780  1.0000
  H   H2        1.0  0.94350  0.06010  0.52220  1.0000
  H   H3        1.0  0.55650  0.56010  0.97780  1.0000
  H   H4        1.0  0.44350  0.56010  0.52220  1.0000
  H   H5        1.0  0.94350  0.93990  0.02220  1.0000
  H   H6        1.0  0.05650  0.93990  0.47780  1.0000
  H   H7        1.0  0.44350  0.43990  0.02220  1.0000
  H   H8        1.0  0.55650  0.43990  0.47780  1.0000
  O   O1        1.0  0.02387  0.94390  0.84830  1.0000
  O   O2        1.0  0.97613  0.94390  0.65170  1.0000
  O   O3        1.0  0.52387  0.44390  0.84830  1.0000
  O   O4        1.0  0.47613  0.44390  0.65170  1.0000
  O   O5        1.0  0.97613  0.05610  0.15170  1.0000
  O   O6        1.0  0.02387  0.05610  0.34830  1.0000
  O   O7        1.0  0.47613  0.55610  0.15170  1.0000
  O   O8        1.0  0.52387  0.55610  0.34830  1.0000
  O   O9        1.0  0.08269  0.94460  0.78870  1.0000
  O   O10       1.0  0.91731  0.94460  0.71130  1.0000
  O   O11       1.0  0.58269  0.44460  0.78870  1.0000
  O   O12       1.0  0.41731  0.44460  0.71130  1.0000
  O   O13       1.0  0.91731  0.05540  0.21130  1.0000
  O   O14       1.0  0.08269  0.05540  0.28870  1.0000
  O   O15       1.0  0.41731  0.55540  0.21130  1.0000
  O   O16       1.0  0.58269  0.55540  0.28870  1.0000
  C   C9        1.0  0.06728  0.97670  0.84495  1.0000
  C   C10       1.0  0.93272  0.97670  0.65505  1.0000
  C   C11       1.0  0.56728  0.47670  0.84495  1.0000
  C   C12       1.0  0.43272  0.47670  0.65505  1.0000
  C   C13       1.0  0.93272  0.02330  0.15505  1.0000
  C   C14       1.0  0.06728  0.02330  0.34495  1.0000
  C   C15       1.0  0.43272  0.52330  0.15505  1.0000
  C   C16       1.0  0.56728  0.52330  0.34495  1.0000
  C   C17       1.0  0.10345  0.05920  0.91342  1.0000
  C   C18       1.0  0.89655  0.05920  0.58658  1.0000
  C   C19       1.0  0.60345  0.55920  0.91342  1.0000
  C   C20       1.0  0.39655  0.55920  0.58658  1.0000
  C   C21       1.0  0.89655  0.94080  0.08658  1.0000
  C   C22       1.0  0.10345  0.94080  0.41342  1.0000
  C   C23       1.0  0.39655  0.44080  0.08658  1.0000
  C   C24       1.0  0.60345  0.44080  0.41342  1.0000
  N   N1        1.0  0.23368  0.22260  0.97251  1.0000
  N   N2        1.0  0.76632  0.22260  0.52749  1.0000
  N   N3        1.0  0.73368  0.72260  0.97251  1.0000
  N   N4        1.0  0.26632  0.72260  0.52749  1.0000
  N   N5        1.0  0.76632  0.77740  0.02749  1.0000
  N   N6        1.0  0.23368  0.77740  0.47251  1.0000
  N   N7        1.0  0.26632  0.27740  0.02749  1.0000
  N   N8        1.0  0.73368  0.27740  0.47251  1.0000
  C   C25       1.0  0.15197  0.10340  0.91352  1.0000
  C   C26       1.0  0.84803  0.10340  0.58648  1.0000
  C   C27       1.0  0.65197  0.60340  0.91352  1.0000
  C   C28       1.0  0.34803  0.60340  0.58648  1.0000
  C   C29       1.0  0.84803  0.89660  0.08648  1.0000
  C   C30       1.0  0.15197  0.89660  0.41352  1.0000
  C   C31       1.0  0.34803  0.39660  0.08648  1.0000
  C   C32       1.0  0.65197  0.39660  0.41352  1.0000
  H   H9        1.0  0.16230  0.08260  0.87060  1.0000
  H   H10       1.0  0.83770  0.08260  0.62940  1.0000
  H   H11       1.0  0.66230  0.58260  0.87060  1.0000
  H   H12       1.0  0.33770  0.58260  0.62940  1.0000
  H   H13       1.0  0.83770  0.91740  0.12940  1.0000
  H   H14       1.0  0.16230  0.91740  0.37060  1.0000
  H   H15       1.0  0.33770  0.41740  0.12940  1.0000
  H   H16       1.0  0.66230  0.41740  0.37060  1.0000
  O   O17       1.0  0.06231  0.14760  0.10822  1.0000
  O   O18       1.0  0.93769  0.14760  0.39178  1.0000
  O   O19       1.0  0.56231  0.64760  0.10822  1.0000
  O   O20       1.0  0.43769  0.64760  0.39178  1.0000
  O   O21       1.0  0.93769  0.85240  0.89178  1.0000
  O   O22       1.0  0.06231  0.85240  0.60822  1.0000
  O   O23       1.0  0.43769  0.35240  0.89178  1.0000
  O   O24       1.0  0.56231  0.35240  0.60822  1.0000
  C   C33       1.0  0.12245  0.16550  0.04284  1.0000
  C   C34       1.0  0.87755  0.16550  0.45716  1.0000
  C   C35       1.0  0.62245  0.66550  0.04284  1.0000
  C   C36       1.0  0.37755  0.66550  0.45716  1.0000
  C   C37       1.0  0.87755  0.83450  0.95716  1.0000
  C   C38       1.0  0.12245  0.83450  0.54284  1.0000
  C   C39       1.0  0.37755  0.33450  0.95716  1.0000
  C   C40       1.0  0.62245  0.33450  0.54284  1.0000
  C   C41       1.0  0.18484  0.17920  0.97884  1.0000
  C   C42       1.0  0.81516  0.17920  0.52116  1.0000
  C   C43       1.0  0.68484  0.67920  0.97884  1.0000
  C   C44       1.0  0.31516  0.67920  0.52116  1.0000
  C   C45       1.0  0.81516  0.82080  0.02116  1.0000
  C   C46       1.0  0.18484  0.82080  0.47884  1.0000
  C   C47       1.0  0.31516  0.32080  0.02116  1.0000
  C   C48       1.0  0.68484  0.32080  0.47884  1.0000
  O   O25       1.0  0.02830  0.40520  0.21866  1.0000
  O   O26       1.0  0.97170  0.40520  0.28134  1.0000
  O   O27       1.0  0.52830  0.90520  0.21866  1.0000
  O   O28       1.0  0.47170  0.90520  0.28134  1.0000
  O   O29       1.0  0.97170  0.59480  0.78134  1.0000
  O   O30       1.0  0.02830  0.59480  0.71866  1.0000
  O   O31       1.0  0.47170  0.09480  0.78134  1.0000
  O   O32       1.0  0.52830  0.09480  0.71866  1.0000
  C   C49       1.0  0.17062  0.21110  0.04299  1.0000
  C   C50       1.0  0.82938  0.21110  0.45701  1.0000
  C   C51       1.0  0.67062  0.71110  0.04299  1.0000
  C   C52       1.0  0.32938  0.71110  0.45701  1.0000
  C   C53       1.0  0.82938  0.78890  0.95701  1.0000
  C   C54       1.0  0.17062  0.78890  0.54299  1.0000
  C   C55       1.0  0.32938  0.28890  0.95701  1.0000
  C   C56       1.0  0.67062  0.28890  0.54299  1.0000
  H   H17       1.0  0.19310  0.26270  0.08600  1.0000
  H   H18       1.0  0.80690  0.26270  0.41400  1.0000
  H   H19       1.0  0.69310  0.76270  0.08600  1.0000
  H   H20       1.0  0.30690  0.76270  0.41400  1.0000
  H   H21       1.0  0.80690  0.73730  0.91400  1.0000
  H   H22       1.0  0.19310  0.73730  0.58600  1.0000
  H   H23       1.0  0.30690  0.23730  0.91400  1.0000
  H   H24       1.0  0.69310  0.23730  0.58600  1.0000
  O   O33       1.0  0.13526  0.26550  0.16989  1.0000
  O   O34       1.0  0.86474  0.26550  0.33011  1.0000
  O   O35       1.0  0.63526  0.76550  0.16989  1.0000
  O   O36       1.0  0.36474  0.76550  0.33011  1.0000
  O   O37       1.0  0.86474  0.73450  0.83011  1.0000
  O   O38       1.0  0.13526  0.73450  0.66989  1.0000
  O   O39       1.0  0.36474  0.23450  0.83011  1.0000
  O   O40       1.0  0.63526  0.23450  0.66989  1.0000
  C   C57       1.0  0.10667  0.19700  0.11288  1.0000
  C   C58       1.0  0.89333  0.19700  0.38712  1.0000
  C   C59       1.0  0.60667  0.69700  0.11288  1.0000
  C   C60       1.0  0.39333  0.69700  0.38712  1.0000
  C   C61       1.0  0.89333  0.80300  0.88712  1.0000
  C   C62       1.0  0.10667  0.80300  0.61288  1.0000
  C   C63       1.0  0.39333  0.30300  0.88712  1.0000
  C   C64       1.0  0.60667  0.30300  0.61288  1.0000
  N   N9        1.0  0.00000  0.47490  0.25000  1.0000
  N   N10       1.0  0.50000  0.97490  0.25000  1.0000
  N   N11       1.0  0.00000  0.52510  0.75000  1.0000
  N   N12       1.0  0.50000  0.02510  0.75000  1.0000
  O   O41       1.0  0.00000  0.66630  0.25000  1.0000
  O   O42       1.0  0.50000  0.16630  0.25000  1.0000
  O   O43       1.0  0.00000  0.33370  0.75000  1.0000
  O   O44       1.0  0.50000  0.83370  0.75000  1.0000
