data_image0
_chemical_formula_structural       Eu4O16C8H4C4O4N12C4O4C4
_chemical_formula_sum              "Eu4 O24 C20 H4 N12"
_cell_length_a       12.7834
_cell_length_b       10.0323
_cell_length_c       8.8998
_cell_angle_alpha    90
_cell_angle_beta     90
_cell_angle_gamma    90

_space_group_name_H-M_alt    "P 1"
_space_group_IT_number       1

loop_
  _space_group_symop_operation_xyz
  'x, y, z'

loop_
  _atom_site_type_symbol
  _atom_site_label
  _atom_site_symmetry_multiplicity
  _atom_site_fract_x
  _atom_site_fract_y
  _atom_site_fract_z
  _atom_site_occupancy
  Eu  Eu1       1.0  0.69733  0.63183  0.76285  1.0000
  Eu  Eu2       1.0  0.30267  0.36817  0.26285  1.0000
  Eu  Eu3       1.0  0.19733  0.86817  0.76285  1.0000
  Eu  Eu4       1.0  0.80267  0.13183  0.26285  1.0000
  O   O1        1.0  0.73210  0.78410  0.57390  1.0000
  O   O2        1.0  0.26790  0.21590  0.07390  1.0000
  O   O3        1.0  0.23210  0.71590  0.57390  1.0000
  O   O4        1.0  0.76790  0.28410  0.07390  1.0000
  O   O5        1.0  0.74820  0.96390  0.42650  1.0000
  O   O6        1.0  0.25180  0.03610  0.92650  1.0000
  O   O7        1.0  0.24820  0.53610  0.42650  1.0000
  O   O8        1.0  0.75180  0.46390  0.92650  1.0000
  O   O9        1.0  0.61900  0.16580  0.27310  1.0000
  O   O10       1.0  0.38100  0.83420  0.77310  1.0000
  O   O11       1.0  0.11900  0.33420  0.27310  1.0000
  O   O12       1.0  0.88100  0.66580  0.77310  1.0000
  O   O13       1.0  0.45720  0.23100  0.22390  1.0000
  O   O14       1.0  0.54280  0.76900  0.72390  1.0000
  O   O15       1.0  0.95720  0.26900  0.22390  1.0000
  O   O16       1.0  0.04280  0.73100  0.72390  1.0000
  C   C1        1.0  0.74010  0.38510  0.51490  1.0000
  C   C2        1.0  0.25990  0.61490  0.01490  1.0000
  C   C3        1.0  0.24010  0.11490  0.51490  1.0000
  C   C4        1.0  0.75990  0.88510  0.01490  1.0000
  C   C5        1.0  0.75450  0.90310  0.54750  1.0000
  C   C6        1.0  0.24550  0.09690  0.04750  1.0000
  C   C7        1.0  0.25450  0.59690  0.54750  1.0000
  C   C8        1.0  0.74550  0.40310  0.04750  1.0000
  H   H1        1.0  0.77960  0.95330  0.63050  1.0000
  H   H2        1.0  0.22040  0.04670  0.13050  1.0000
  H   H3        1.0  0.27960  0.54670  0.63050  1.0000
  H   H4        1.0  0.72040  0.45330  0.13050  1.0000
  C   C9        1.0  0.54290  0.24370  0.29100  1.0000
  C   C10       1.0  0.45710  0.75630  0.79100  1.0000
  C   C11       1.0  0.04290  0.25630  0.29100  1.0000
  C   C12       1.0  0.95710  0.74370  0.79100  1.0000
  O   O17       1.0  0.78750  0.29700  0.45090  1.0000
  O   O18       1.0  0.21250  0.70300  0.95090  1.0000
  O   O19       1.0  0.28750  0.20300  0.45090  1.0000
  O   O20       1.0  0.71250  0.79700  0.95090  1.0000
  N   N1        1.0  0.48320  0.52130  0.52980  1.0000
  N   N2        1.0  0.51680  0.47870  0.02980  1.0000
  N   N3        1.0  0.98320  0.97870  0.52980  1.0000
  N   N4        1.0  0.01680  0.02130  0.02980  1.0000
  N   N5        1.0  0.58140  0.51110  0.56980  1.0000
  N   N6        1.0  0.41860  0.48890  0.06980  1.0000
  N   N7        1.0  0.08140  0.98890  0.56980  1.0000
  N   N8        1.0  0.91860  0.01110  0.06980  1.0000
  N   N9        1.0  0.46130  0.42870  0.42340  1.0000
  N   N10       1.0  0.53870  0.57130  0.92340  1.0000
  N   N11       1.0  0.96130  0.07130  0.42340  1.0000
  N   N12       1.0  0.03870  0.92870  0.92340  1.0000
  C   C13       1.0  0.62740  0.40940  0.49070  1.0000
  C   C14       1.0  0.37260  0.59060  0.99070  1.0000
  C   C15       1.0  0.12740  0.09060  0.49070  1.0000
  C   C16       1.0  0.87260  0.90940  0.99070  1.0000
  O   O21       1.0  0.78430  0.46630  0.60560  1.0000
  O   O22       1.0  0.21570  0.53370  0.10560  1.0000
  O   O23       1.0  0.28430  0.03370  0.60560  1.0000
  O   O24       1.0  0.71570  0.96630  0.10560  1.0000
  C   C17       1.0  0.55000  0.35760  0.39860  1.0000
  C   C18       1.0  0.45000  0.64240  0.89860  1.0000
  C   C19       1.0  0.05000  0.14240  0.39860  1.0000
  C   C20       1.0  0.95000  0.85760  0.89860  1.0000
