data_image0
_chemical_formula_structural       In4Co2Br4O20C4O4C4H4C4H4O4C20H4C4
_chemical_formula_sum              "In4 Co2 Br4 O28 C36 H12"
_cell_length_a       10.273
_cell_length_b       11.318
_cell_length_c       16.461
_cell_angle_alpha    90
_cell_angle_beta     100.064
_cell_angle_gamma    90

_space_group_name_H-M_alt    "P 1"
_space_group_IT_number       1

loop_
  _space_group_symop_operation_xyz
  'x, y, z'

loop_
  _atom_site_type_symbol
  _atom_site_label
  _atom_site_symmetry_multiplicity
  _atom_site_fract_x
  _atom_site_fract_y
  _atom_site_fract_z
  _atom_site_occupancy
  In  In1       1.0  0.73797  0.19724  0.07669  1.0000
  In  In2       1.0  0.26203  0.69724  0.42331  1.0000
  In  In3       1.0  0.26203  0.80276  0.92331  1.0000
  In  In4       1.0  0.73797  0.30276  0.57669  1.0000
  Co  Co1       1.0  0.50000  0.00000  0.00000  1.0000
  Co  Co2       1.0  0.50000  0.50000  0.50000  1.0000
  Br  Br1       1.0  0.71171  0.36718  0.96834  1.0000
  Br  Br2       1.0  0.28829  0.86718  0.53166  1.0000
  Br  Br3       1.0  0.28829  0.63282  0.03166  1.0000
  Br  Br4       1.0  0.71171  0.13282  0.46834  1.0000
  O   O1        1.0  0.10560  0.79980  0.33910  1.0000
  O   O2        1.0  0.89440  0.29980  0.16090  1.0000
  O   O3        1.0  0.89440  0.20020  0.66090  1.0000
  O   O4        1.0  0.10560  0.70020  0.83910  1.0000
  O   O5        1.0  0.57220  0.66220  0.45800  1.0000
  O   O6        1.0  0.42780  0.16220  0.04200  1.0000
  O   O7        1.0  0.42780  0.33780  0.54200  1.0000
  O   O8        1.0  0.57220  0.83780  0.95800  1.0000
  O   O9        1.0  0.76670  0.05520  0.16710  1.0000
  O   O10       1.0  0.23330  0.55520  0.33290  1.0000
  O   O11       1.0  0.23330  0.94480  0.83290  1.0000
  O   O12       1.0  0.76670  0.44480  0.66710  1.0000
  O   O13       1.0  0.04310  0.67380  0.42550  1.0000
  O   O14       1.0  0.95690  0.17380  0.07450  1.0000
  O   O15       1.0  0.95690  0.32620  0.57450  1.0000
  O   O16       1.0  0.04310  0.82620  0.92550  1.0000
  O   O17       1.0  0.41980  0.75210  0.36470  1.0000
  O   O18       1.0  0.58020  0.25210  0.13530  1.0000
  O   O19       1.0  0.58020  0.24790  0.63530  1.0000
  O   O20       1.0  0.41980  0.74790  0.86470  1.0000
  C   C1        1.0  0.68000  0.97900  0.17550  1.0000
  C   C2        1.0  0.32000  0.47900  0.32450  1.0000
  C   C3        1.0  0.32000  0.02100  0.82450  1.0000
  C   C4        1.0  0.68000  0.52100  0.67550  1.0000
  O   O21       1.0  0.57480  0.96030  0.12750  1.0000
  O   O22       1.0  0.42520  0.46030  0.37250  1.0000
  O   O23       1.0  0.42520  0.03970  0.87250  1.0000
  O   O24       1.0  0.57480  0.53970  0.62750  1.0000
  C   C5        1.0  0.61200  0.85020  0.28640  1.0000
  C   C6        1.0  0.38800  0.35020  0.21360  1.0000
  C   C7        1.0  0.38800  0.14980  0.71360  1.0000
  C   C8        1.0  0.61200  0.64980  0.78640  1.0000
  H   H1        1.0  0.52410  0.86850  0.26610  1.0000
  H   H2        1.0  0.47590  0.36850  0.23390  1.0000
  H   H3        1.0  0.47590  0.13150  0.73390  1.0000
  H   H4        1.0  0.52410  0.63150  0.76610  1.0000
  C   C9        1.0  0.84360  0.87170  0.28100  1.0000
  C   C10       1.0  0.15640  0.37170  0.21900  1.0000
  C   C11       1.0  0.15640  0.12830  0.71900  1.0000
  C   C12       1.0  0.84360  0.62830  0.78100  1.0000
  H   H5        1.0  0.91110  0.90870  0.25960  1.0000
  H   H6        1.0  0.08890  0.40870  0.24040  1.0000
  H   H7        1.0  0.08890  0.09130  0.74040  1.0000
  H   H8        1.0  0.91110  0.59130  0.75960  1.0000
  O   O25       1.0  0.67150  0.07410  0.98600  1.0000
  O   O26       1.0  0.32850  0.57410  0.51400  1.0000
  O   O27       1.0  0.32850  0.92590  0.01400  1.0000
  O   O28       1.0  0.67150  0.42590  0.48600  1.0000
  C   C13       1.0  0.01500  0.75220  0.37010  1.0000
  C   C14       1.0  0.98500  0.25220  0.12990  1.0000
  C   C15       1.0  0.98500  0.24780  0.62990  1.0000
  C   C16       1.0  0.01500  0.74780  0.87010  1.0000
  C   C17       1.0  0.53780  0.72430  0.39500  1.0000
  C   C18       1.0  0.46220  0.22430  0.10500  1.0000
  C   C19       1.0  0.46220  0.27570  0.60500  1.0000
  C   C20       1.0  0.53780  0.77570  0.89500  1.0000
  C   C21       1.0  0.71270  0.89950  0.25030  1.0000
  C   C22       1.0  0.28730  0.39950  0.24970  1.0000
  C   C23       1.0  0.28730  0.10050  0.74970  1.0000
  C   C24       1.0  0.71270  0.60050  0.75030  1.0000
  C   C25       1.0  0.64400  0.77370  0.35260  1.0000
  C   C26       1.0  0.35600  0.27370  0.14740  1.0000
  C   C27       1.0  0.35600  0.22630  0.64740  1.0000
  C   C28       1.0  0.64400  0.72630  0.85260  1.0000
  C   C29       1.0  0.77560  0.73970  0.37920  1.0000
  C   C30       1.0  0.22440  0.23970  0.12080  1.0000
  C   C31       1.0  0.22440  0.26030  0.62080  1.0000
  C   C32       1.0  0.77560  0.76030  0.87920  1.0000
  H   H9        1.0  0.79650  0.68400  0.42100  1.0000
  H   H10       1.0  0.20350  0.18400  0.07900  1.0000
  H   H11       1.0  0.20350  0.31600  0.57900  1.0000
  H   H12       1.0  0.79650  0.81600  0.92100  1.0000
  C   C33       1.0  0.87390  0.78930  0.34320  1.0000
  C   C34       1.0  0.12610  0.28930  0.15680  1.0000
  C   C35       1.0  0.12610  0.21070  0.65680  1.0000
  C   C36       1.0  0.87390  0.71070  0.84320  1.0000
