data_image0
_chemical_formula_structural       Sr20Br8O16C16H4C4H4C12H4C4H4C4H4C4H4C4O16C16H4C4H4C12H4C4H4C4H4C4H4C4O16C16H4C4H4C12H4C4H4C4H4C4H4C4O16C16H4C4H4C12H4C4H4C4H4C4H4C4O16C16H4C4H4C12H4C4H4C4H4C4H4C4
_chemical_formula_sum              "Sr20 Br8 O80 C240 H120"
_cell_length_a       14.023
_cell_length_b       20.762
_cell_length_c       23.874
_cell_angle_alpha    90
_cell_angle_beta     90
_cell_angle_gamma    90

_space_group_name_H-M_alt    "P 1"
_space_group_IT_number       1

loop_
  _space_group_symop_operation_xyz
  'x, y, z'

loop_
  _atom_site_type_symbol
  _atom_site_label
  _atom_site_symmetry_multiplicity
  _atom_site_fract_x
  _atom_site_fract_y
  _atom_site_fract_z
  _atom_site_occupancy
  Sr  Sr1       1.0  0.90725  0.22621  0.50234  1.0000
  Sr  Sr2       1.0  0.59275  0.77379  0.00234  1.0000
  Sr  Sr3       1.0  0.09275  0.72621  0.99766  1.0000
  Sr  Sr4       1.0  0.40725  0.27379  0.49766  1.0000
  Sr  Sr5       1.0  0.13247  0.72356  0.49672  1.0000
  Sr  Sr6       1.0  0.36753  0.27644  0.99672  1.0000
  Sr  Sr7       1.0  0.86753  0.22356  0.00328  1.0000
  Sr  Sr8       1.0  0.63247  0.77644  0.50328  1.0000
  Sr  Sr9       1.0  0.67077  0.32584  0.55014  1.0000
  Sr  Sr10      1.0  0.82923  0.67416  0.05014  1.0000
  Sr  Sr11      1.0  0.32923  0.82584  0.94986  1.0000
  Sr  Sr12      1.0  0.17077  0.17416  0.44986  1.0000
  Sr  Sr13      1.0  0.87548  0.67104  0.45438  1.0000
  Sr  Sr14      1.0  0.62452  0.32896  0.95438  1.0000
  Sr  Sr15      1.0  0.12452  0.17104  0.04562  1.0000
  Sr  Sr16      1.0  0.37548  0.82896  0.54562  1.0000
  Sr  Sr17      1.0  0.77213  0.49960  0.50695  1.0000
  Sr  Sr18      1.0  0.72787  0.50040  0.00695  1.0000
  Sr  Sr19      1.0  0.22787  0.99960  0.99305  1.0000
  Sr  Sr20      1.0  0.27213  0.00040  0.49305  1.0000
  Br  Br1       1.0  0.84598  0.36682  0.47519  1.0000
  Br  Br2       1.0  0.65402  0.63318  0.97519  1.0000
  Br  Br3       1.0  0.15402  0.86682  0.02481  1.0000
  Br  Br4       1.0  0.34598  0.13318  0.52481  1.0000
  Br  Br5       1.0  0.19760  0.86305  0.47149  1.0000
  Br  Br6       1.0  0.30240  0.13695  0.97149  1.0000
  Br  Br7       1.0  0.80240  0.36305  0.02851  1.0000
  Br  Br8       1.0  0.69760  0.63695  0.52851  1.0000
  O   O1        1.0  0.73130  0.41950  0.60570  1.0000
  O   O2        1.0  0.76870  0.58050  0.10570  1.0000
  O   O3        1.0  0.26870  0.91950  0.89430  1.0000
  O   O4        1.0  0.23130  0.08050  0.39430  1.0000
  O   O5        1.0  0.80770  0.50330  0.61380  1.0000
  O   O6        1.0  0.69230  0.49670  0.11380  1.0000
  O   O7        1.0  0.19230  0.00330  0.88620  1.0000
  O   O8        1.0  0.30770  0.99670  0.38620  1.0000
  O   O9        1.0  0.66940  0.42760  0.90490  1.0000
  O   O10       1.0  0.83060  0.57240  0.40490  1.0000
  O   O11       1.0  0.33060  0.92760  0.59510  1.0000
  O   O12       1.0  0.16940  0.07240  0.09510  1.0000
  O   O13       1.0  0.77340  0.50180  0.90190  1.0000
  O   O14       1.0  0.72660  0.49820  0.40190  1.0000
  O   O15       1.0  0.22660  0.00180  0.59810  1.0000
  O   O16       1.0  0.27340  0.99820  0.09810  1.0000
  C   C1        1.0  0.76220  0.45750  0.63230  1.0000
  C   C2        1.0  0.73780  0.54250  0.13230  1.0000
  C   C3        1.0  0.23780  0.95750  0.86770  1.0000
  C   C4        1.0  0.26220  0.04250  0.36770  1.0000
  C   C5        1.0  0.72230  0.46330  0.88040  1.0000
  C   C6        1.0  0.77770  0.53670  0.38040  1.0000
  C   C7        1.0  0.27770  0.96330  0.61960  1.0000
  C   C8        1.0  0.22230  0.03670  0.11960  1.0000
  C   C9        1.0  0.74780  0.45720  0.69760  1.0000
  C   C10       1.0  0.75220  0.54280  0.19760  1.0000
  C   C11       1.0  0.25220  0.95720  0.80240  1.0000
  C   C12       1.0  0.24780  0.04280  0.30240  1.0000
  C   C13       1.0  0.82200  0.45760  0.73150  1.0000
  C   C14       1.0  0.67800  0.54240  0.23150  1.0000
  C   C15       1.0  0.17800  0.95760  0.76850  1.0000
  C   C16       1.0  0.32200  0.04240  0.26850  1.0000
  H   H1        1.0  0.88220  0.45600  0.71520  1.0000
  H   H2        1.0  0.61780  0.54400  0.21520  1.0000
  H   H3        1.0  0.11780  0.95600  0.78480  1.0000
  H   H4        1.0  0.38220  0.04400  0.28480  1.0000
  C   C17       1.0  0.81740  0.46020  0.78970  1.0000
  C   C18       1.0  0.68260  0.53980  0.28970  1.0000
  C   C19       1.0  0.18260  0.96020  0.71030  1.0000
  C   C20       1.0  0.31740  0.03980  0.21030  1.0000
  H   H5        1.0  0.87320  0.46220  0.81070  1.0000
  H   H6        1.0  0.62680  0.53780  0.31070  1.0000
  H   H7        1.0  0.12680  0.96220  0.68930  1.0000
  H   H8        1.0  0.37320  0.03780  0.18930  1.0000
  C   C21       1.0  0.72690  0.45970  0.81700  1.0000
  C   C22       1.0  0.77310  0.54030  0.31700  1.0000
  C   C23       1.0  0.27310  0.95970  0.68300  1.0000
  C   C24       1.0  0.22690  0.04030  0.18300  1.0000
  C   C25       1.0  0.64280  0.46120  0.78070  1.0000
  C   C26       1.0  0.85720  0.53880  0.28070  1.0000
  C   C27       1.0  0.35720  0.96120  0.71930  1.0000
  C   C28       1.0  0.14280  0.03880  0.21930  1.0000
  C   C29       1.0  0.55090  0.46460  0.80340  1.0000
  C   C30       1.0  0.94910  0.53540  0.30340  1.0000
  C   C31       1.0  0.44910  0.96460  0.69660  1.0000
  C   C32       1.0  0.05090  0.03540  0.19660  1.0000
  H   H9        1.0  0.54460  0.46330  0.84210  1.0000
  H   H10       1.0  0.95540  0.53670  0.34210  1.0000
  H   H11       1.0  0.45540  0.96330  0.65790  1.0000
  H   H12       1.0  0.04460  0.03670  0.15790  1.0000
  C   C33       1.0  0.47040  0.46960  0.77190  1.0000
  C   C34       1.0  0.02960  0.53040  0.27190  1.0000
  C   C35       1.0  0.52960  0.96960  0.72810  1.0000
  C   C36       1.0  0.97040  0.03040  0.22810  1.0000
  H   H13       1.0  0.41020  0.47190  0.78820  1.0000
  H   H14       1.0  0.08980  0.52810  0.28820  1.0000
  H   H15       1.0  0.58980  0.97190  0.71180  1.0000
  H   H16       1.0  0.91020  0.02810  0.21180  1.0000
  C   C37       1.0  0.48320  0.47120  0.71330  1.0000
  C   C38       1.0  0.01680  0.52880  0.21330  1.0000
  C   C39       1.0  0.51680  0.97120  0.78670  1.0000
  C   C40       1.0  0.98320  0.02880  0.28670  1.0000
  H   H17       1.0  0.42950  0.47560  0.69080  1.0000
  H   H18       1.0  0.07050  0.52440  0.19080  1.0000
  H   H19       1.0  0.57050  0.97560  0.80920  1.0000
  H   H20       1.0  0.92950  0.02440  0.30920  1.0000
  C   C41       1.0  0.56620  0.46680  0.68900  1.0000
  C   C42       1.0  0.93380  0.53320  0.18900  1.0000
  C   C43       1.0  0.43380  0.96680  0.81100  1.0000
  C   C44       1.0  0.06620  0.03320  0.31100  1.0000
  H   H21       1.0  0.57030  0.46580  0.65010  1.0000
  H   H22       1.0  0.92970  0.53420  0.15010  1.0000
  H   H23       1.0  0.42970  0.96580  0.84990  1.0000
  H   H24       1.0  0.07030  0.03420  0.34990  1.0000
  C   C45       1.0  0.65070  0.46350  0.72210  1.0000
  C   C46       1.0  0.84930  0.53650  0.22210  1.0000
  C   C47       1.0  0.34930  0.96350  0.77790  1.0000
  C   C48       1.0  0.15070  0.03650  0.27790  1.0000
  O   O17       1.0  0.79940  0.26090  0.59550  1.0000
  O   O18       1.0  0.70060  0.73910  0.09550  1.0000
  O   O19       1.0  0.20060  0.76090  0.90450  1.0000
  O   O20       1.0  0.29940  0.23910  0.40450  1.0000
  O   O21       1.0  0.94200  0.22420  0.60860  1.0000
  O   O22       1.0  0.55800  0.77580  0.10860  1.0000
  O   O23       1.0  0.05800  0.72420  0.89140  1.0000
  O   O24       1.0  0.44200  0.27580  0.39140  1.0000
  O   O25       1.0  0.70830  0.27280  0.87750  1.0000
  O   O26       1.0  0.79170  0.72720  0.37750  1.0000
  O   O27       1.0  0.29170  0.77280  0.62250  1.0000
  O   O28       1.0  0.20830  0.22720  0.12250  1.0000
  O   O29       1.0  0.84990  0.24200  0.90190  1.0000
  O   O30       1.0  0.65010  0.75800  0.40190  1.0000
  O   O31       1.0  0.15010  0.74200  0.59810  1.0000
  O   O32       1.0  0.34990  0.25800  0.09810  1.0000
  C   C49       1.0  0.86020  0.24140  0.62540  1.0000
  C   C50       1.0  0.63980  0.75860  0.12540  1.0000
  C   C51       1.0  0.13980  0.74140  0.87460  1.0000
  C   C52       1.0  0.36020  0.25860  0.37460  1.0000
  C   C53       1.0  0.78970  0.25470  0.86730  1.0000
  C   C54       1.0  0.71030  0.74530  0.36730  1.0000
  C   C55       1.0  0.21030  0.75470  0.63270  1.0000
  C   C56       1.0  0.28970  0.24530  0.13270  1.0000
  C   C57       1.0  0.84260  0.23840  0.68930  1.0000
  C   C58       1.0  0.65740  0.76160  0.18930  1.0000
  C   C59       1.0  0.15740  0.73840  0.81070  1.0000
  C   C60       1.0  0.34260  0.26160  0.31070  1.0000
  C   C61       1.0  0.78700  0.28600  0.71030  1.0000
  C   C62       1.0  0.71300  0.71400  0.21030  1.0000
  C   C63       1.0  0.21300  0.78600  0.78970  1.0000
  C   C64       1.0  0.28700  0.21400  0.28970  1.0000
  H   H25       1.0  0.75890  0.31640  0.68690  1.0000
  H   H26       1.0  0.74110  0.68360  0.18690  1.0000
  H   H27       1.0  0.24110  0.81640  0.81310  1.0000
  H   H28       1.0  0.25890  0.18360  0.31310  1.0000
  C   C65       1.0  0.77290  0.28810  0.76920  1.0000
  C   C66       1.0  0.72710  0.71190  0.26920  1.0000
  C   C67       1.0  0.22710  0.78810  0.73080  1.0000
  C   C68       1.0  0.27290  0.21190  0.23080  1.0000
  H   H29       1.0  0.73400  0.32020  0.78380  1.0000
  H   H30       1.0  0.76600  0.67980  0.28380  1.0000
  H   H31       1.0  0.26600  0.82020  0.71620  1.0000
  H   H32       1.0  0.23400  0.17980  0.21620  1.0000
  C   C69       1.0  0.81180  0.24710  0.80410  1.0000
  C   C70       1.0  0.68820  0.75290  0.30410  1.0000
  C   C71       1.0  0.18820  0.74710  0.69590  1.0000
  C   C72       1.0  0.31180  0.25290  0.19590  1.0000
  C   C73       1.0  0.86600  0.19270  0.78300  1.0000
  C   C74       1.0  0.63400  0.80730  0.28300  1.0000
  C   C75       1.0  0.13400  0.69270  0.71700  1.0000
  C   C76       1.0  0.36600  0.30730  0.21700  1.0000
  C   C77       1.0  0.90500  0.14400  0.81650  1.0000
  C   C78       1.0  0.59500  0.85600  0.31650  1.0000
  C   C79       1.0  0.09500  0.64400  0.68350  1.0000
  C   C80       1.0  0.40500  0.35600  0.18350  1.0000
  H   H33       1.0  0.89790  0.14740  0.85510  1.0000
  H   H34       1.0  0.60210  0.85260  0.35510  1.0000
  H   H35       1.0  0.10210  0.64740  0.64490  1.0000
  H   H36       1.0  0.39790  0.35260  0.14490  1.0000
  C   C81       1.0  0.94990  0.09490  0.79720  1.0000
  C   C82       1.0  0.55010  0.90510  0.29720  1.0000
  C   C83       1.0  0.05010  0.59490  0.70280  1.0000
  C   C84       1.0  0.44990  0.40510  0.20280  1.0000
  H   H37       1.0  0.97050  0.06310  0.82180  1.0000
  H   H38       1.0  0.52950  0.93690  0.32180  1.0000
  H   H39       1.0  0.02950  0.56310  0.67820  1.0000
  H   H40       1.0  0.47050  0.43690  0.17820  1.0000
  C   C85       1.0  0.96880  0.08800  0.73890  1.0000
  C   C86       1.0  0.53120  0.91200  0.23890  1.0000
  C   C87       1.0  0.03120  0.58800  0.76110  1.0000
  C   C88       1.0  0.46880  0.41200  0.26110  1.0000
  H   H41       1.0  0.00470  0.05420  0.72440  1.0000
  H   H42       1.0  0.49530  0.94580  0.22440  1.0000
  H   H43       1.0  0.99530  0.55420  0.77560  1.0000
  H   H44       1.0  0.50470  0.44580  0.27560  1.0000
  C   C89       1.0  0.92910  0.13620  0.70490  1.0000
  C   C90       1.0  0.57090  0.86380  0.20490  1.0000
  C   C91       1.0  0.07090  0.63620  0.79510  1.0000
  C   C92       1.0  0.42910  0.36380  0.29510  1.0000
  H   H45       1.0  0.93480  0.13200  0.66620  1.0000
  H   H46       1.0  0.56520  0.86800  0.16620  1.0000
  H   H47       1.0  0.06520  0.63200  0.83380  1.0000
  H   H48       1.0  0.43480  0.36800  0.33380  1.0000
  C   C93       1.0  0.88270  0.18870  0.72560  1.0000
  C   C94       1.0  0.61730  0.81130  0.22560  1.0000
  C   C95       1.0  0.11730  0.68870  0.77440  1.0000
  C   C96       1.0  0.38270  0.31130  0.27440  1.0000
  O   O33       1.0  0.07800  0.26470  0.50310  1.0000
  O   O34       1.0  0.42200  0.73530  0.00310  1.0000
  O   O35       1.0  0.92200  0.76470  0.99690  1.0000
  O   O36       1.0  0.57800  0.23530  0.49690  1.0000
  O   O37       1.0  0.23090  0.28720  0.51170  1.0000
  O   O38       1.0  0.26910  0.71280  0.01170  1.0000
  O   O39       1.0  0.76910  0.78720  0.98830  1.0000
  O   O40       1.0  0.73090  0.21280  0.48830  1.0000
  O   O41       1.0  0.05930  0.61840  0.51840  1.0000
  O   O42       1.0  0.44070  0.38160  0.01840  1.0000
  O   O43       1.0  0.94070  0.11840  0.98160  1.0000
  O   O44       1.0  0.55930  0.88160  0.48160  1.0000
  O   O45       1.0  0.92000  0.57000  0.51610  1.0000
  O   O46       1.0  0.58000  0.43000  0.01610  1.0000
  O   O47       1.0  0.08000  0.07000  0.98390  1.0000
  O   O48       1.0  0.42000  0.93000  0.48390  1.0000
  C   C97       1.0  0.14560  0.30500  0.51000  1.0000
  C   C98       1.0  0.35440  0.69500  0.01000  1.0000
  C   C99       1.0  0.85440  0.80500  0.99000  1.0000
  C   C100      1.0  0.64560  0.19500  0.49000  1.0000
  C   C101      1.0  0.00770  0.56830  0.51590  1.0000
  C   C102      1.0  0.49230  0.43170  0.01590  1.0000
  C   C103      1.0  0.99230  0.06830  0.98410  1.0000
  C   C104      1.0  0.50770  0.93170  0.48410  1.0000
  C   C105      1.0  0.12030  0.37540  0.51530  1.0000
  C   C106      1.0  0.37970  0.62460  0.01530  1.0000
  C   C107      1.0  0.87970  0.87540  0.98470  1.0000
  C   C108      1.0  0.62030  0.12460  0.48470  1.0000
  C   C109      1.0  0.05230  0.39510  0.55170  1.0000
  C   C110      1.0  0.44770  0.60490  0.05170  1.0000
  C   C111      1.0  0.94770  0.89510  0.94830  1.0000
  C   C112      1.0  0.55230  0.10490  0.44830  1.0000
  H   H49       1.0  0.02680  0.36560  0.57690  1.0000
  H   H50       1.0  0.47320  0.63440  0.07690  1.0000
  H   H51       1.0  0.97320  0.86560  0.92310  1.0000
  H   H52       1.0  0.52680  0.13440  0.42310  1.0000
  C   C113      1.0  0.02020  0.45760  0.55230  1.0000
  C   C114      1.0  0.47980  0.54240  0.05230  1.0000
  C   C115      1.0  0.97980  0.95760  0.94770  1.0000
  C   C116      1.0  0.52020  0.04240  0.44770  1.0000
  H   H53       1.0  0.97100  0.46920  0.57640  1.0000
  H   H54       1.0  0.52900  0.53080  0.07640  1.0000
  H   H55       1.0  0.02900  0.96920  0.92360  1.0000
  H   H56       1.0  0.47100  0.03080  0.42360  1.0000
  C   C117      1.0  0.05830  0.50140  0.51890  1.0000
  C   C118      1.0  0.44170  0.49860  0.01890  1.0000
  C   C119      1.0  0.94170  0.00140  0.98110  1.0000
  C   C120      1.0  0.55830  0.99860  0.48110  1.0000
  C   C121      1.0  0.12840  0.48760  0.48080  1.0000
  C   C122      1.0  0.37160  0.51240  0.98080  1.0000
  C   C123      1.0  0.87160  0.98760  0.01920  1.0000
  C   C124      1.0  0.62840  0.01240  0.51920  1.0000
  C   C125      1.0  0.17120  0.53140  0.44060  1.0000
  C   C126      1.0  0.32880  0.46860  0.94060  1.0000
  C   C127      1.0  0.82880  0.03140  0.05940  1.0000
  C   C128      1.0  0.67120  0.96860  0.55940  1.0000
  H   H57       1.0  0.14980  0.57370  0.43890  1.0000
  H   H58       1.0  0.35020  0.42630  0.93890  1.0000
  H   H59       1.0  0.85020  0.07370  0.06110  1.0000
  H   H60       1.0  0.64980  0.92630  0.56110  1.0000
  C   C129      1.0  0.24050  0.51240  0.40590  1.0000
  C   C130      1.0  0.25950  0.48760  0.90590  1.0000
  C   C131      1.0  0.75950  0.01240  0.09410  1.0000
  C   C132      1.0  0.74050  0.98760  0.59410  1.0000
  H   H61       1.0  0.27080  0.54290  0.38360  1.0000
  H   H62       1.0  0.22920  0.45710  0.88360  1.0000
  H   H63       1.0  0.72920  0.04290  0.11640  1.0000
  H   H64       1.0  0.77080  0.95710  0.61640  1.0000
  C   C133      1.0  0.26900  0.44750  0.40220  1.0000
  C   C134      1.0  0.23100  0.55250  0.90220  1.0000
  C   C135      1.0  0.73100  0.94750  0.09780  1.0000
  C   C136      1.0  0.76900  0.05250  0.59780  1.0000
  H   H65       1.0  0.31180  0.43440  0.37470  1.0000
  H   H66       1.0  0.18820  0.56560  0.87470  1.0000
  H   H67       1.0  0.68820  0.93440  0.12530  1.0000
  H   H68       1.0  0.81180  0.06560  0.62530  1.0000
  C   C137      1.0  0.23330  0.40420  0.43940  1.0000
  C   C138      1.0  0.26670  0.59580  0.93940  1.0000
  C   C139      1.0  0.76670  0.90420  0.06060  1.0000
  C   C140      1.0  0.73330  0.09580  0.56060  1.0000
  H   H69       1.0  0.25800  0.36260  0.43990  1.0000
  H   H70       1.0  0.24200  0.63740  0.93990  1.0000
  H   H71       1.0  0.74200  0.86260  0.06010  1.0000
  H   H72       1.0  0.75800  0.13740  0.56010  1.0000
  C   C141      1.0  0.16030  0.42030  0.47700  1.0000
  C   C142      1.0  0.33970  0.57970  0.97700  1.0000
  C   C143      1.0  0.83970  0.92030  0.02300  1.0000
  C   C144      1.0  0.66030  0.07970  0.52300  1.0000
  O   O49       1.0  0.31170  0.71560  0.50090  1.0000
  O   O50       1.0  0.18830  0.28440  0.00090  1.0000
  O   O51       1.0  0.68830  0.21560  0.99910  1.0000
  O   O52       1.0  0.81170  0.78440  0.49910  1.0000
  O   O53       1.0  0.46470  0.73530  0.49120  1.0000
  O   O54       1.0  0.03530  0.26470  0.99120  1.0000
  O   O55       1.0  0.53530  0.23530  0.00880  1.0000
  O   O56       1.0  0.96470  0.76470  0.50880  1.0000
  O   O57       1.0  0.48410  0.37970  0.49630  1.0000
  O   O58       1.0  0.01590  0.62030  0.99630  1.0000
  O   O59       1.0  0.51590  0.87970  0.00370  1.0000
  O   O60       1.0  0.98410  0.12030  0.50370  1.0000
  O   O61       1.0  0.62110  0.43340  0.50260  1.0000
  O   O62       1.0  0.87890  0.56660  0.00260  1.0000
  O   O63       1.0  0.37890  0.93340  0.99740  1.0000
  O   O64       1.0  0.12110  0.06660  0.49740  1.0000
  C   C145      1.0  0.39670  0.69620  0.49460  1.0000
  C   C146      1.0  0.10330  0.30380  0.99460  1.0000
  C   C147      1.0  0.60330  0.19620  0.00540  1.0000
  C   C148      1.0  0.89670  0.80380  0.50540  1.0000
  C   C149      1.0  0.53130  0.43010  0.49540  1.0000
  C   C150      1.0  0.96870  0.56990  0.99540  1.0000
  C   C151      1.0  0.46870  0.93010  0.00460  1.0000
  C   C152      1.0  0.03130  0.06990  0.50460  1.0000
  C   C153      1.0  0.42120  0.62490  0.49210  1.0000
  C   C154      1.0  0.07880  0.37510  0.99210  1.0000
  C   C155      1.0  0.57880  0.12490  0.00790  1.0000
  C   C156      1.0  0.92120  0.87510  0.50790  1.0000
  C   C157      1.0  0.48700  0.60560  0.45640  1.0000
  C   C158      1.0  0.01300  0.39440  0.95640  1.0000
  C   C159      1.0  0.51300  0.10560  0.04360  1.0000
  C   C160      1.0  0.98700  0.89440  0.54360  1.0000
  H   H73       1.0  0.51360  0.63510  0.43150  1.0000
  H   H74       1.0  0.98640  0.36490  0.93150  1.0000
  H   H75       1.0  0.48640  0.13510  0.06850  1.0000
  H   H76       1.0  0.01360  0.86490  0.56850  1.0000
  C   C161      1.0  0.51780  0.54080  0.45520  1.0000
  C   C162      1.0  0.98220  0.45920  0.95520  1.0000
  C   C163      1.0  0.48220  0.04080  0.04480  1.0000
  C   C164      1.0  0.01780  0.95920  0.54480  1.0000
  H   H77       1.0  0.56250  0.52780  0.42870  1.0000
  H   H78       1.0  0.93750  0.47220  0.92870  1.0000
  H   H79       1.0  0.43750  0.02780  0.07130  1.0000
  H   H80       1.0  0.06250  0.97220  0.57130  1.0000
  C   C165      1.0  0.48310  0.49770  0.49190  1.0000
  C   C166      1.0  0.01690  0.50230  0.99190  1.0000
  C   C167      1.0  0.51690  0.99770  0.00810  1.0000
  C   C168      1.0  0.98310  0.00230  0.50810  1.0000
  C   C169      1.0  0.40760  0.51500  0.52870  1.0000
  C   C170      1.0  0.09240  0.48500  0.02870  1.0000
  C   C171      1.0  0.59240  0.01500  0.97130  1.0000
  C   C172      1.0  0.90760  0.98500  0.47130  1.0000
  C   C173      1.0  0.36530  0.46950  0.56360  1.0000
  C   C174      1.0  0.13470  0.53050  0.06360  1.0000
  C   C175      1.0  0.63470  0.96950  0.93640  1.0000
  C   C176      1.0  0.86530  0.03050  0.43640  1.0000
  H   H81       1.0  0.38850  0.42750  0.56490  1.0000
  H   H82       1.0  0.11150  0.57250  0.06490  1.0000
  H   H83       1.0  0.61150  0.92750  0.93510  1.0000
  H   H84       1.0  0.88850  0.07250  0.43510  1.0000
  C   C177      1.0  0.28820  0.48740  0.59640  1.0000
  C   C178      1.0  0.21180  0.51260  0.09640  1.0000
  C   C179      1.0  0.71180  0.98740  0.90360  1.0000
  C   C180      1.0  0.78820  0.01260  0.40360  1.0000
  H   H85       1.0  0.25710  0.45610  0.61750  1.0000
  H   H86       1.0  0.24290  0.54390  0.11750  1.0000
  H   H87       1.0  0.74290  0.95610  0.88250  1.0000
  H   H88       1.0  0.75710  0.04390  0.38250  1.0000
  C   C181      1.0  0.25730  0.54760  0.59880  1.0000
  C   C182      1.0  0.24270  0.45240  0.09880  1.0000
  C   C183      1.0  0.74270  0.04760  0.90120  1.0000
  C   C184      1.0  0.75730  0.95240  0.40120  1.0000
  H   H89       1.0  0.20830  0.55820  0.62340  1.0000
  H   H90       1.0  0.29170  0.44180  0.12340  1.0000
  H   H91       1.0  0.79170  0.05820  0.87660  1.0000
  H   H92       1.0  0.70830  0.94180  0.37660  1.0000
  C   C185      1.0  0.29730  0.59540  0.56490  1.0000
  C   C186      1.0  0.20270  0.40460  0.06490  1.0000
  C   C187      1.0  0.70270  0.09540  0.93510  1.0000
  C   C188      1.0  0.79730  0.90460  0.43510  1.0000
  H   H93       1.0  0.27550  0.63760  0.56710  1.0000
  H   H94       1.0  0.22450  0.36240  0.06710  1.0000
  H   H95       1.0  0.72450  0.13760  0.93290  1.0000
  H   H96       1.0  0.77550  0.86240  0.43290  1.0000
  C   C189      1.0  0.37160  0.57880  0.52700  1.0000
  C   C190      1.0  0.12840  0.42120  0.02700  1.0000
  C   C191      1.0  0.62840  0.07880  0.97300  1.0000
  C   C192      1.0  0.87160  0.92120  0.47300  1.0000
  O   O65       1.0  0.02290  0.69090  0.40460  1.0000
  O   O66       1.0  0.47710  0.30910  0.90460  1.0000
  O   O67       1.0  0.97710  0.19090  0.09540  1.0000
  O   O68       1.0  0.52290  0.80910  0.59540  1.0000
  O   O69       1.0  0.17870  0.69430  0.39660  1.0000
  O   O70       1.0  0.32130  0.30570  0.89660  1.0000
  O   O71       1.0  0.82130  0.19430  0.10340  1.0000
  O   O72       1.0  0.67870  0.80570  0.60340  1.0000
  O   O73       1.0  0.95220  0.69400  0.11950  1.0000
  O   O74       1.0  0.54780  0.30600  0.61950  1.0000
  O   O75       1.0  0.04780  0.19400  0.38050  1.0000
  O   O76       1.0  0.45220  0.80600  0.88050  1.0000
  O   O77       1.0  0.10220  0.70700  0.09830  1.0000
  O   O78       1.0  0.39780  0.29300  0.59830  1.0000
  O   O79       1.0  0.89780  0.20700  0.40170  1.0000
  O   O80       1.0  0.60220  0.79300  0.90170  1.0000
  C   C193      1.0  0.09750  0.68860  0.37500  1.0000
  C   C194      1.0  0.40250  0.31140  0.87500  1.0000
  C   C195      1.0  0.90250  0.18860  0.12500  1.0000
  C   C196      1.0  0.59750  0.81140  0.62500  1.0000
  C   C197      1.0  0.04150  0.69670  0.13110  1.0000
  C   C198      1.0  0.45850  0.30330  0.63110  1.0000
  C   C199      1.0  0.95850  0.19670  0.36890  1.0000
  C   C200      1.0  0.54150  0.80330  0.86890  1.0000
  C   C201      1.0  0.08680  0.68650  0.31220  1.0000
  C   C202      1.0  0.41320  0.31350  0.81220  1.0000
  C   C203      1.0  0.91320  0.18650  0.18780  1.0000
  C   C204      1.0  0.58680  0.81350  0.68780  1.0000
  C   C205      1.0  0.00170  0.70050  0.29120  1.0000
  C   C206      1.0  0.49830  0.29950  0.79120  1.0000
  C   C207      1.0  0.99830  0.20050  0.20880  1.0000
  C   C208      1.0  0.50170  0.79950  0.70880  1.0000
  H   H97       1.0  0.95060  0.70770  0.31520  1.0000
  H   H98       1.0  0.54940  0.29230  0.81520  1.0000
  H   H99       1.0  0.04940  0.20770  0.18480  1.0000
  H   H100      1.0  0.45060  0.79230  0.68480  1.0000
  C   C209      1.0  0.98730  0.70460  0.23000  1.0000
  C   C210      1.0  0.51270  0.29540  0.73000  1.0000
  C   C211      1.0  0.01270  0.20460  0.27000  1.0000
  C   C212      1.0  0.48730  0.79540  0.77000  1.0000
  H   H101      1.0  0.92830  0.71600  0.21520  1.0000
  H   H102      1.0  0.57170  0.28400  0.71520  1.0000
  H   H103      1.0  0.07170  0.21600  0.28480  1.0000
  H   H104      1.0  0.42830  0.78400  0.78480  1.0000
  C   C213      1.0  0.06290  0.69130  0.19550  1.0000
  C   C214      1.0  0.43710  0.30870  0.69550  1.0000
  C   C215      1.0  0.93710  0.19130  0.30450  1.0000
  C   C216      1.0  0.56290  0.80870  0.80450  1.0000
  C   C217      1.0  0.15300  0.67320  0.21680  1.0000
  C   C218      1.0  0.34700  0.32680  0.71680  1.0000
  C   C219      1.0  0.84700  0.17320  0.28320  1.0000
  C   C220      1.0  0.65300  0.82680  0.78320  1.0000
  C   C221      1.0  0.22610  0.65500  0.18050  1.0000
  C   C222      1.0  0.27390  0.34500  0.68050  1.0000
  C   C223      1.0  0.77390  0.15500  0.31950  1.0000
  C   C224      1.0  0.72610  0.84500  0.81950  1.0000
  H   H105      1.0  0.21730  0.65960  0.14210  1.0000
  H   H106      1.0  0.28270  0.34040  0.64210  1.0000
  H   H107      1.0  0.78270  0.15960  0.35790  1.0000
  H   H108      1.0  0.71730  0.84040  0.85790  1.0000
  C   C225      1.0  0.31200  0.63000  0.20020  1.0000
  C   C226      1.0  0.18800  0.37000  0.70020  1.0000
  C   C227      1.0  0.68800  0.13000  0.29980  1.0000
  C   C228      1.0  0.81200  0.87000  0.79980  1.0000
  H   H109      1.0  0.36020  0.61720  0.17590  1.0000
  H   H110      1.0  0.13980  0.38280  0.67590  1.0000
  H   H111      1.0  0.63980  0.11720  0.32410  1.0000
  H   H112      1.0  0.86020  0.88280  0.82410  1.0000
  C   C229      1.0  0.32290  0.62480  0.26170  1.0000
  C   C230      1.0  0.17710  0.37520  0.76170  1.0000
  C   C231      1.0  0.67710  0.12480  0.23830  1.0000
  C   C232      1.0  0.82290  0.87520  0.73830  1.0000
  H   H113      1.0  0.37810  0.60730  0.27710  1.0000
  H   H114      1.0  0.12190  0.39270  0.77710  1.0000
  H   H115      1.0  0.62190  0.10730  0.22290  1.0000
  H   H116      1.0  0.87810  0.89270  0.72290  1.0000
  C   C233      1.0  0.25230  0.64540  0.29490  1.0000
  C   C234      1.0  0.24770  0.35460  0.79490  1.0000
  C   C235      1.0  0.74770  0.14540  0.20510  1.0000
  C   C236      1.0  0.75230  0.85460  0.70510  1.0000
  H   H117      1.0  0.26100  0.64340  0.33350  1.0000
  H   H118      1.0  0.23900  0.35660  0.83350  1.0000
  H   H119      1.0  0.73900  0.14340  0.16650  1.0000
  H   H120      1.0  0.76100  0.85660  0.66650  1.0000
  C   C237      1.0  0.16510  0.67020  0.27420  1.0000
  C   C238      1.0  0.33490  0.32980  0.77420  1.0000
  C   C239      1.0  0.83490  0.17020  0.22580  1.0000
  C   C240      1.0  0.66510  0.82980  0.72580  1.0000
