data_image0
_chemical_formula_structural       In8Cl8O72C8H8C8H8C88H16C24H8C8H8C8H8C16H16C16H8C8H8C8H8C8H16C8H8C8H24C16H24C8H24C8H8C8H8C8H8
_chemical_formula_sum              "In8 Cl8 O72 C264 H216"
_cell_length_a       38.698
_cell_length_b       9.9673
_cell_length_c       36.412
_cell_angle_alpha    90
_cell_angle_beta     113.672
_cell_angle_gamma    90

_space_group_name_H-M_alt    "P 1"
_space_group_IT_number       1

loop_
  _space_group_symop_operation_xyz
  'x, y, z'

loop_
  _atom_site_type_symbol
  _atom_site_label
  _atom_site_symmetry_multiplicity
  _atom_site_fract_x
  _atom_site_fract_y
  _atom_site_fract_z
  _atom_site_occupancy
  In  In1       1.0  0.74973  0.42422  0.89366  1.0000
  In  In2       1.0  0.25027  0.42422  0.60634  1.0000
  In  In3       1.0  0.24973  0.92422  0.89366  1.0000
  In  In4       1.0  0.75027  0.92422  0.60634  1.0000
  In  In5       1.0  0.25027  0.57578  0.10634  1.0000
  In  In6       1.0  0.74973  0.57578  0.39366  1.0000
  In  In7       1.0  0.75027  0.07578  0.10634  1.0000
  In  In8       1.0  0.24973  0.07578  0.39366  1.0000
  Cl  Cl1       1.0  0.78398  0.24601  0.87301  1.0000
  Cl  Cl2       1.0  0.21602  0.24601  0.62699  1.0000
  Cl  Cl3       1.0  0.28398  0.74601  0.87301  1.0000
  Cl  Cl4       1.0  0.71602  0.74601  0.62699  1.0000
  Cl  Cl5       1.0  0.21602  0.75399  0.12699  1.0000
  Cl  Cl6       1.0  0.78398  0.75399  0.37301  1.0000
  Cl  Cl7       1.0  0.71602  0.25399  0.12699  1.0000
  Cl  Cl8       1.0  0.28398  0.25399  0.37301  1.0000
  O   O1        1.0  0.72588  0.68060  0.43317  1.0000
  O   O2        1.0  0.27412  0.68060  0.06683  1.0000
  O   O3        1.0  0.22588  0.18060  0.43317  1.0000
  O   O4        1.0  0.77412  0.18060  0.06683  1.0000
  O   O5        1.0  0.27412  0.31940  0.56683  1.0000
  O   O6        1.0  0.72588  0.31940  0.93317  1.0000
  O   O7        1.0  0.77412  0.81940  0.56683  1.0000
  O   O8        1.0  0.22588  0.81940  0.93317  1.0000
  O   O9        1.0  0.71412  0.47090  0.42028  1.0000
  O   O10       1.0  0.28588  0.47090  0.07972  1.0000
  O   O11       1.0  0.21412  0.97090  0.42028  1.0000
  O   O12       1.0  0.78588  0.97090  0.07972  1.0000
  O   O13       1.0  0.28588  0.52910  0.57972  1.0000
  O   O14       1.0  0.71412  0.52910  0.92028  1.0000
  O   O15       1.0  0.78588  0.02910  0.57972  1.0000
  O   O16       1.0  0.21412  0.02910  0.92028  1.0000
  O   O17       1.0  0.29273  0.91730  0.40530  1.0000
  O   O18       1.0  0.70727  0.91730  0.09470  1.0000
  O   O19       1.0  0.79273  0.41730  0.40530  1.0000
  O   O20       1.0  0.20727  0.41730  0.09470  1.0000
  O   O21       1.0  0.70727  0.08270  0.59470  1.0000
  O   O22       1.0  0.29273  0.08270  0.90530  1.0000
  O   O23       1.0  0.20727  0.58270  0.59470  1.0000
  O   O24       1.0  0.79273  0.58270  0.90530  1.0000
  O   O25       1.0  0.46042  0.77590  0.52340  1.0000
  O   O26       1.0  0.53958  0.77590  0.97660  1.0000
  O   O27       1.0  0.96042  0.27590  0.52340  1.0000
  O   O28       1.0  0.03958  0.27590  0.97660  1.0000
  O   O29       1.0  0.53958  0.22410  0.47660  1.0000
  O   O30       1.0  0.46042  0.22410  0.02340  1.0000
  O   O31       1.0  0.03958  0.72410  0.47660  1.0000
  O   O32       1.0  0.96042  0.72410  0.02340  1.0000
  O   O33       1.0  0.30118  0.05400  0.45473  1.0000
  O   O34       1.0  0.69882  0.05400  0.04527  1.0000
  O   O35       1.0  0.80118  0.55400  0.45473  1.0000
  O   O36       1.0  0.19882  0.55400  0.04527  1.0000
  O   O37       1.0  0.69882  0.94600  0.54527  1.0000
  O   O38       1.0  0.30118  0.94600  0.95473  1.0000
  O   O39       1.0  0.19882  0.44600  0.54527  1.0000
  O   O40       1.0  0.80118  0.44600  0.95473  1.0000
  O   O41       1.0  0.72027  0.53510  0.83921  1.0000
  O   O42       1.0  0.27973  0.53510  0.66079  1.0000
  O   O43       1.0  0.22027  0.03510  0.83921  1.0000
  O   O44       1.0  0.77973  0.03510  0.66079  1.0000
  O   O45       1.0  0.27973  0.46490  0.16079  1.0000
  O   O46       1.0  0.72027  0.46490  0.33921  1.0000
  O   O47       1.0  0.77973  0.96490  0.16079  1.0000
  O   O48       1.0  0.22027  0.96490  0.33921  1.0000
  O   O49       1.0  0.69190  0.35580  0.84189  1.0000
  O   O50       1.0  0.30810  0.35580  0.65811  1.0000
  O   O51       1.0  0.19190  0.85580  0.84189  1.0000
  O   O52       1.0  0.80810  0.85580  0.65811  1.0000
  O   O53       1.0  0.30810  0.64420  0.15811  1.0000
  O   O54       1.0  0.69190  0.64420  0.34189  1.0000
  O   O55       1.0  0.80810  0.14420  0.15811  1.0000
  O   O56       1.0  0.19190  0.14420  0.34189  1.0000
  O   O57       1.0  0.61052  0.56710  0.51290  1.0000
  O   O58       1.0  0.38948  0.56710  0.98710  1.0000
  O   O59       1.0  0.11052  0.06710  0.51290  1.0000
  O   O60       1.0  0.88948  0.06710  0.98710  1.0000
  O   O61       1.0  0.38948  0.43290  0.48710  1.0000
  O   O62       1.0  0.61052  0.43290  0.01290  1.0000
  O   O63       1.0  0.88948  0.93290  0.48710  1.0000
  O   O64       1.0  0.11052  0.93290  0.01290  1.0000
  O   O65       1.0  0.58590  0.58050  0.67010  1.0000
  O   O66       1.0  0.41410  0.58050  0.82990  1.0000
  O   O67       1.0  0.08590  0.08050  0.67010  1.0000
  O   O68       1.0  0.91410  0.08050  0.82990  1.0000
  O   O69       1.0  0.41410  0.41950  0.32990  1.0000
  O   O70       1.0  0.58590  0.41950  0.17010  1.0000
  O   O71       1.0  0.91410  0.91950  0.32990  1.0000
  O   O72       1.0  0.08590  0.91950  0.17010  1.0000
  C   C1        1.0  0.66298  0.67130  0.50510  1.0000
  C   C2        1.0  0.33702  0.67130  0.99490  1.0000
  C   C3        1.0  0.16298  0.17130  0.50510  1.0000
  C   C4        1.0  0.83702  0.17130  0.99490  1.0000
  C   C5        1.0  0.33702  0.32870  0.49490  1.0000
  C   C6        1.0  0.66298  0.32870  0.00510  1.0000
  C   C7        1.0  0.83702  0.82870  0.49490  1.0000
  C   C8        1.0  0.16298  0.82870  0.00510  1.0000
  H   H1        1.0  0.66534  0.73607  0.52435  1.0000
  H   H2        1.0  0.33466  0.73607  0.97565  1.0000
  H   H3        1.0  0.16534  0.23607  0.52435  1.0000
  H   H4        1.0  0.83466  0.23607  0.97565  1.0000
  H   H5        1.0  0.33466  0.26393  0.47565  1.0000
  H   H6        1.0  0.66534  0.26393  0.02435  1.0000
  H   H7        1.0  0.83466  0.76393  0.47565  1.0000
  H   H8        1.0  0.16534  0.76393  0.02435  1.0000
  C   C9        1.0  0.68646  0.67240  0.48570  1.0000
  C   C10       1.0  0.31354  0.67240  0.01430  1.0000
  C   C11       1.0  0.18646  0.17240  0.48570  1.0000
  C   C12       1.0  0.81354  0.17240  0.01430  1.0000
  C   C13       1.0  0.31354  0.32760  0.51430  1.0000
  C   C14       1.0  0.68646  0.32760  0.98570  1.0000
  C   C15       1.0  0.81354  0.82760  0.51430  1.0000
  C   C16       1.0  0.18646  0.82760  0.98570  1.0000
  H   H9        1.0  0.70444  0.74005  0.49152  1.0000
  H   H10       1.0  0.29556  0.74005  0.00848  1.0000
  H   H11       1.0  0.20444  0.24005  0.49152  1.0000
  H   H12       1.0  0.79556  0.24005  0.00848  1.0000
  H   H13       1.0  0.29556  0.25995  0.50848  1.0000
  H   H14       1.0  0.70444  0.25995  0.99152  1.0000
  H   H15       1.0  0.79556  0.75995  0.50848  1.0000
  H   H16       1.0  0.20444  0.75995  0.99152  1.0000
  C   C17       1.0  0.57915  0.62970  0.55360  1.0000
  C   C18       1.0  0.42085  0.62970  0.94640  1.0000
  C   C19       1.0  0.07915  0.12970  0.55360  1.0000
  C   C20       1.0  0.92085  0.12970  0.94640  1.0000
  C   C21       1.0  0.42085  0.37030  0.44640  1.0000
  C   C22       1.0  0.57915  0.37030  0.05360  1.0000
  C   C23       1.0  0.92085  0.87030  0.44640  1.0000
  C   C24       1.0  0.07915  0.87030  0.05360  1.0000
  C   C25       1.0  0.70978  0.57650  0.43590  1.0000
  C   C26       1.0  0.29022  0.57650  0.06410  1.0000
  C   C27       1.0  0.20978  0.07650  0.43590  1.0000
  C   C28       1.0  0.79022  0.07650  0.06410  1.0000
  C   C29       1.0  0.29022  0.42350  0.56410  1.0000
  C   C30       1.0  0.70978  0.42350  0.93590  1.0000
  C   C31       1.0  0.79022  0.92350  0.56410  1.0000
  C   C32       1.0  0.20978  0.92350  0.93590  1.0000
  C   C33       1.0  0.68460  0.57540  0.45720  1.0000
  C   C34       1.0  0.31540  0.57540  0.04280  1.0000
  C   C35       1.0  0.18460  0.07540  0.45720  1.0000
  C   C36       1.0  0.81540  0.07540  0.04280  1.0000
  C   C37       1.0  0.31540  0.42460  0.54280  1.0000
  C   C38       1.0  0.68460  0.42460  0.95720  1.0000
  C   C39       1.0  0.81540  0.92460  0.54280  1.0000
  C   C40       1.0  0.18460  0.92460  0.95720  1.0000
  C   C41       1.0  0.54180  0.66560  0.52810  1.0000
  C   C42       1.0  0.45820  0.66560  0.97190  1.0000
  C   C43       1.0  0.04180  0.16560  0.52810  1.0000
  C   C44       1.0  0.95820  0.16560  0.97190  1.0000
  C   C45       1.0  0.45820  0.33440  0.47190  1.0000
  C   C46       1.0  0.54180  0.33440  0.02810  1.0000
  C   C47       1.0  0.95820  0.83440  0.47190  1.0000
  C   C48       1.0  0.04180  0.83440  0.02810  1.0000
  C   C49       1.0  0.35150  0.90610  0.46240  1.0000
  C   C50       1.0  0.64850  0.90610  0.03760  1.0000
  C   C51       1.0  0.85150  0.40610  0.46240  1.0000
  C   C52       1.0  0.14850  0.40610  0.03760  1.0000
  C   C53       1.0  0.64850  0.09390  0.53760  1.0000
  C   C54       1.0  0.35150  0.09390  0.96240  1.0000
  C   C55       1.0  0.14850  0.59390  0.53760  1.0000
  C   C56       1.0  0.85150  0.59390  0.96240  1.0000
  C   C57       1.0  0.58680  0.56640  0.58890  1.0000
  C   C58       1.0  0.41320  0.56640  0.91110  1.0000
  C   C59       1.0  0.08680  0.06640  0.58890  1.0000
  C   C60       1.0  0.91320  0.06640  0.91110  1.0000
  C   C61       1.0  0.41320  0.43360  0.41110  1.0000
  C   C62       1.0  0.58680  0.43360  0.08890  1.0000
  C   C63       1.0  0.91320  0.93360  0.41110  1.0000
  C   C64       1.0  0.08680  0.93360  0.08890  1.0000
  C   C65       1.0  0.31300  0.96330  0.43960  1.0000
  C   C66       1.0  0.68700  0.96330  0.06040  1.0000
  C   C67       1.0  0.81300  0.46330  0.43960  1.0000
  C   C68       1.0  0.18700  0.46330  0.06040  1.0000
  C   C69       1.0  0.68700  0.03670  0.56040  1.0000
  C   C70       1.0  0.31300  0.03670  0.93960  1.0000
  C   C71       1.0  0.18700  0.53670  0.56040  1.0000
  C   C72       1.0  0.81300  0.53670  0.93960  1.0000
  C   C73       1.0  0.51300  0.62730  0.53980  1.0000
  C   C74       1.0  0.48700  0.62730  0.96020  1.0000
  C   C75       1.0  0.01300  0.12730  0.53980  1.0000
  C   C76       1.0  0.98700  0.12730  0.96020  1.0000
  C   C77       1.0  0.48700  0.37270  0.46020  1.0000
  C   C78       1.0  0.51300  0.37270  0.03980  1.0000
  C   C79       1.0  0.98700  0.87270  0.46020  1.0000
  C   C80       1.0  0.01300  0.87270  0.03980  1.0000
  C   C81       1.0  0.52040  0.56750  0.57600  1.0000
  C   C82       1.0  0.47960  0.56750  0.92400  1.0000
  C   C83       1.0  0.02040  0.06750  0.57600  1.0000
  C   C84       1.0  0.97960  0.06750  0.92400  1.0000
  C   C85       1.0  0.47960  0.43250  0.42400  1.0000
  C   C86       1.0  0.52040  0.43250  0.07600  1.0000
  C   C87       1.0  0.97960  0.93250  0.42400  1.0000
  C   C88       1.0  0.02040  0.93250  0.07600  1.0000
  C   C89       1.0  0.42433  0.81350  0.50220  1.0000
  C   C90       1.0  0.57567  0.81350  0.99780  1.0000
  C   C91       1.0  0.92433  0.31350  0.50220  1.0000
  C   C92       1.0  0.07567  0.31350  0.99780  1.0000
  C   C93       1.0  0.57567  0.18650  0.49780  1.0000
  C   C94       1.0  0.42433  0.18650  0.00220  1.0000
  C   C95       1.0  0.07567  0.68650  0.49780  1.0000
  C   C96       1.0  0.92433  0.68650  0.00220  1.0000
  C   C97       1.0  0.61060  0.66780  0.54020  1.0000
  C   C98       1.0  0.38940  0.66780  0.95980  1.0000
  C   C99       1.0  0.11060  0.16780  0.54020  1.0000
  C   C100      1.0  0.88940  0.16780  0.95980  1.0000
  C   C101      1.0  0.38940  0.33220  0.45980  1.0000
  C   C102      1.0  0.61060  0.33220  0.04020  1.0000
  C   C103      1.0  0.88940  0.83220  0.45980  1.0000
  C   C104      1.0  0.11060  0.83220  0.04020  1.0000
  H   H17       1.0  0.60568  0.75502  0.52736  1.0000
  H   H18       1.0  0.39432  0.75502  0.97264  1.0000
  H   H19       1.0  0.10568  0.25502  0.52736  1.0000
  H   H20       1.0  0.89432  0.25502  0.97264  1.0000
  H   H21       1.0  0.39432  0.24498  0.47264  1.0000
  H   H22       1.0  0.60568  0.24498  0.02736  1.0000
  H   H23       1.0  0.89432  0.74498  0.47264  1.0000
  H   H24       1.0  0.10568  0.74498  0.02736  1.0000
  H   H25       1.0  0.63474  0.67064  0.56303  1.0000
  H   H26       1.0  0.36526  0.67064  0.93697  1.0000
  H   H27       1.0  0.13474  0.17064  0.56303  1.0000
  H   H28       1.0  0.86526  0.17064  0.93697  1.0000
  H   H29       1.0  0.36526  0.32936  0.43697  1.0000
  H   H30       1.0  0.63474  0.32936  0.06303  1.0000
  H   H31       1.0  0.86526  0.82936  0.43697  1.0000
  H   H32       1.0  0.13474  0.82936  0.06303  1.0000
  C   C105      1.0  0.63630  0.57600  0.49640  1.0000
  C   C106      1.0  0.36370  0.57600  0.00360  1.0000
  C   C107      1.0  0.13630  0.07600  0.49640  1.0000
  C   C108      1.0  0.86370  0.07600  0.00360  1.0000
  C   C109      1.0  0.36370  0.42400  0.50360  1.0000
  C   C110      1.0  0.63630  0.42400  0.99640  1.0000
  C   C111      1.0  0.86370  0.92400  0.50360  1.0000
  C   C112      1.0  0.13630  0.92400  0.99640  1.0000
  C   C113      1.0  0.55800  0.53670  0.60090  1.0000
  C   C114      1.0  0.44200  0.53670  0.89910  1.0000
  C   C115      1.0  0.05800  0.03670  0.60090  1.0000
  C   C116      1.0  0.94200  0.03670  0.89910  1.0000
  C   C117      1.0  0.44200  0.46330  0.39910  1.0000
  C   C118      1.0  0.55800  0.46330  0.10090  1.0000
  C   C119      1.0  0.94200  0.96330  0.39910  1.0000
  C   C120      1.0  0.05800  0.96330  0.10090  1.0000
  C   C121      1.0  0.36400  0.80210  0.44700  1.0000
  C   C122      1.0  0.63600  0.80210  0.05300  1.0000
  C   C123      1.0  0.86400  0.30210  0.44700  1.0000
  C   C124      1.0  0.13600  0.30210  0.05300  1.0000
  C   C125      1.0  0.63600  0.19790  0.55300  1.0000
  C   C126      1.0  0.36400  0.19790  0.94700  1.0000
  C   C127      1.0  0.13600  0.69790  0.55300  1.0000
  C   C128      1.0  0.86400  0.69790  0.94700  1.0000
  H   H33       1.0  0.34807  0.76359  0.42285  1.0000
  H   H34       1.0  0.65193  0.76359  0.07715  1.0000
  H   H35       1.0  0.84807  0.26359  0.42285  1.0000
  H   H36       1.0  0.15193  0.26359  0.07715  1.0000
  H   H37       1.0  0.65193  0.23641  0.57715  1.0000
  H   H38       1.0  0.34807  0.23641  0.92285  1.0000
  H   H39       1.0  0.15193  0.73641  0.57715  1.0000
  H   H40       1.0  0.84807  0.73641  0.92285  1.0000
  C   C129      1.0  0.37510  0.96460  0.49760  1.0000
  C   C130      1.0  0.62490  0.96460  0.00240  1.0000
  C   C131      1.0  0.87510  0.46460  0.49760  1.0000
  C   C132      1.0  0.12490  0.46460  0.00240  1.0000
  C   C133      1.0  0.62490  0.03540  0.50240  1.0000
  C   C134      1.0  0.37510  0.03540  0.99760  1.0000
  C   C135      1.0  0.12490  0.53540  0.50240  1.0000
  C   C136      1.0  0.87510  0.53540  0.99760  1.0000
  H   H41       1.0  0.36650  0.03588  0.50815  1.0000
  H   H42       1.0  0.63350  0.03588  0.99185  1.0000
  H   H43       1.0  0.86650  0.53588  0.50815  1.0000
  H   H44       1.0  0.13350  0.53588  0.99185  1.0000
  H   H45       1.0  0.63350  0.96412  0.49185  1.0000
  H   H46       1.0  0.36650  0.96412  0.00815  1.0000
  H   H47       1.0  0.13350  0.46412  0.49185  1.0000
  H   H48       1.0  0.86650  0.46412  0.00815  1.0000
  C   C137      1.0  0.40100  0.75170  0.46710  1.0000
  C   C138      1.0  0.59900  0.75170  0.03290  1.0000
  C   C139      1.0  0.90100  0.25170  0.46710  1.0000
  C   C140      1.0  0.09900  0.25170  0.03290  1.0000
  C   C141      1.0  0.59900  0.24830  0.53290  1.0000
  C   C142      1.0  0.40100  0.24830  0.96710  1.0000
  C   C143      1.0  0.09900  0.74830  0.53290  1.0000
  C   C144      1.0  0.90100  0.74830  0.96710  1.0000
  H   H49       1.0  0.40935  0.67883  0.45692  1.0000
  H   H50       1.0  0.59065  0.67883  0.04308  1.0000
  H   H51       1.0  0.90935  0.17883  0.45692  1.0000
  H   H52       1.0  0.09065  0.17883  0.04308  1.0000
  H   H53       1.0  0.59065  0.32117  0.54308  1.0000
  H   H54       1.0  0.40935  0.32117  0.95692  1.0000
  H   H55       1.0  0.09065  0.82117  0.54308  1.0000
  H   H56       1.0  0.90935  0.82117  0.95692  1.0000
  C   C145      1.0  0.69250  0.45720  0.82340  1.0000
  C   C146      1.0  0.30750  0.45720  0.67660  1.0000
  C   C147      1.0  0.19250  0.95720  0.82340  1.0000
  C   C148      1.0  0.80750  0.95720  0.67660  1.0000
  C   C149      1.0  0.30750  0.54280  0.17660  1.0000
  C   C150      1.0  0.69250  0.54280  0.32340  1.0000
  C   C151      1.0  0.80750  0.04280  0.17660  1.0000
  C   C152      1.0  0.19250  0.04280  0.32340  1.0000
  C   C153      1.0  0.47230  0.65050  0.51180  1.0000
  C   C154      1.0  0.52770  0.65050  0.98820  1.0000
  C   C155      1.0  0.97230  0.15050  0.51180  1.0000
  C   C156      1.0  0.02770  0.15050  0.98820  1.0000
  C   C157      1.0  0.52770  0.34950  0.48820  1.0000
  C   C158      1.0  0.47230  0.34950  0.01180  1.0000
  C   C159      1.0  0.02770  0.84950  0.48820  1.0000
  C   C160      1.0  0.97230  0.84950  0.01180  1.0000
  H   H57       1.0  0.47002  0.65582  0.48427  1.0000
  H   H58       1.0  0.52998  0.65582  0.01573  1.0000
  H   H59       1.0  0.97002  0.15582  0.48427  1.0000
  H   H60       1.0  0.02998  0.15582  0.01573  1.0000
  H   H61       1.0  0.52998  0.34418  0.51573  1.0000
  H   H62       1.0  0.47002  0.34418  0.98427  1.0000
  H   H63       1.0  0.02998  0.84418  0.51573  1.0000
  H   H64       1.0  0.97002  0.84418  0.98427  1.0000
  H   H65       1.0  0.45667  0.57719  0.51376  1.0000
  H   H66       1.0  0.54333  0.57719  0.98624  1.0000
  H   H67       1.0  0.95667  0.07719  0.51376  1.0000
  H   H68       1.0  0.04333  0.07719  0.98624  1.0000
  H   H69       1.0  0.54333  0.42281  0.48624  1.0000
  H   H70       1.0  0.45667  0.42281  0.01376  1.0000
  H   H71       1.0  0.04333  0.92281  0.48624  1.0000
  H   H72       1.0  0.95667  0.92281  0.01376  1.0000
  C   C161      1.0  0.66310  0.48830  0.78290  1.0000
  C   C162      1.0  0.33690  0.48830  0.71710  1.0000
  C   C163      1.0  0.16310  0.98830  0.78290  1.0000
  C   C164      1.0  0.83690  0.98830  0.71710  1.0000
  C   C165      1.0  0.33690  0.51170  0.21710  1.0000
  C   C166      1.0  0.66310  0.51170  0.28290  1.0000
  C   C167      1.0  0.83690  0.01170  0.21710  1.0000
  C   C168      1.0  0.16310  0.01170  0.28290  1.0000
  C   C169      1.0  0.63410  0.47360  0.46970  1.0000
  C   C170      1.0  0.36590  0.47360  0.03030  1.0000
  C   C171      1.0  0.13410  0.97360  0.46970  1.0000
  C   C172      1.0  0.86590  0.97360  0.03030  1.0000
  C   C173      1.0  0.36590  0.52640  0.53030  1.0000
  C   C174      1.0  0.63410  0.52640  0.96970  1.0000
  C   C175      1.0  0.86590  0.02640  0.53030  1.0000
  C   C176      1.0  0.13410  0.02640  0.96970  1.0000
  H   H73       1.0  0.61659  0.40491  0.46509  1.0000
  H   H74       1.0  0.38341  0.40491  0.03491  1.0000
  H   H75       1.0  0.11659  0.90491  0.46509  1.0000
  H   H76       1.0  0.88341  0.90491  0.03491  1.0000
  H   H77       1.0  0.38341  0.59509  0.53491  1.0000
  H   H78       1.0  0.61659  0.59509  0.96509  1.0000
  H   H79       1.0  0.88341  0.09509  0.53491  1.0000
  H   H80       1.0  0.11659  0.09509  0.96509  1.0000
  C   C177      1.0  0.65810  0.47460  0.45020  1.0000
  C   C178      1.0  0.34190  0.47460  0.04980  1.0000
  C   C179      1.0  0.15810  0.97460  0.45020  1.0000
  C   C180      1.0  0.84190  0.97460  0.04980  1.0000
  C   C181      1.0  0.34190  0.52540  0.54980  1.0000
  C   C182      1.0  0.65810  0.52540  0.95020  1.0000
  C   C183      1.0  0.84190  0.02540  0.54980  1.0000
  C   C184      1.0  0.15810  0.02540  0.95020  1.0000
  H   H81       1.0  0.65648  0.40667  0.43208  1.0000
  H   H82       1.0  0.34352  0.40667  0.06792  1.0000
  H   H83       1.0  0.15648  0.90667  0.43208  1.0000
  H   H84       1.0  0.84352  0.90667  0.06792  1.0000
  H   H85       1.0  0.34352  0.59333  0.56792  1.0000
  H   H86       1.0  0.65648  0.59333  0.93208  1.0000
  H   H87       1.0  0.84352  0.09333  0.56792  1.0000
  H   H88       1.0  0.15648  0.09333  0.93208  1.0000
  C   C185      1.0  0.41160  0.91850  0.51770  1.0000
  C   C186      1.0  0.58840  0.91850  0.98230  1.0000
  C   C187      1.0  0.91160  0.41850  0.51770  1.0000
  C   C188      1.0  0.08840  0.41850  0.98230  1.0000
  C   C189      1.0  0.58840  0.08150  0.48230  1.0000
  C   C190      1.0  0.41160  0.08150  0.01770  1.0000
  C   C191      1.0  0.08840  0.58150  0.48230  1.0000
  C   C192      1.0  0.91160  0.58150  0.01770  1.0000
  H   H89       1.0  0.42751  0.95848  0.54162  1.0000
  H   H90       1.0  0.57249  0.95848  0.95838  1.0000
  H   H91       1.0  0.92751  0.45848  0.54162  1.0000
  H   H92       1.0  0.07249  0.45848  0.95838  1.0000
  H   H93       1.0  0.57249  0.04152  0.45838  1.0000
  H   H94       1.0  0.42751  0.04152  0.04162  1.0000
  H   H95       1.0  0.07249  0.54152  0.45838  1.0000
  H   H96       1.0  0.92751  0.54152  0.04162  1.0000
  C   C193      1.0  0.56800  0.47450  0.64230  1.0000
  C   C194      1.0  0.43200  0.47450  0.85770  1.0000
  C   C195      1.0  0.06800  0.97450  0.64230  1.0000
  C   C196      1.0  0.93200  0.97450  0.85770  1.0000
  C   C197      1.0  0.43200  0.52550  0.35770  1.0000
  C   C198      1.0  0.56800  0.52550  0.14230  1.0000
  C   C199      1.0  0.93200  0.02550  0.35770  1.0000
  C   C200      1.0  0.06800  0.02550  0.14230  1.0000
  H   H97       1.0  0.54551  0.44371  0.64528  1.0000
  H   H98       1.0  0.45449  0.44371  0.85472  1.0000
  H   H99       1.0  0.04551  0.94371  0.64528  1.0000
  H   H100      1.0  0.95449  0.94371  0.85472  1.0000
  H   H101      1.0  0.45449  0.55629  0.35472  1.0000
  H   H102      1.0  0.54551  0.55629  0.14528  1.0000
  H   H103      1.0  0.95449  0.05629  0.35472  1.0000
  H   H104      1.0  0.04551  0.05629  0.14528  1.0000
  H   H105      1.0  0.58506  0.39924  0.64640  1.0000
  H   H106      1.0  0.41494  0.39924  0.85360  1.0000
  H   H107      1.0  0.08506  0.89924  0.64640  1.0000
  H   H108      1.0  0.91494  0.89924  0.85360  1.0000
  H   H109      1.0  0.41494  0.60076  0.35360  1.0000
  H   H110      1.0  0.58506  0.60076  0.14640  1.0000
  H   H111      1.0  0.91494  0.10076  0.35360  1.0000
  H   H112      1.0  0.08506  0.10076  0.14640  1.0000
  C   C201      1.0  0.63650  0.39410  0.76340  1.0000
  C   C202      1.0  0.36350  0.39410  0.73660  1.0000
  C   C203      1.0  0.13650  0.89410  0.76340  1.0000
  C   C204      1.0  0.86350  0.89410  0.73660  1.0000
  C   C205      1.0  0.36350  0.60590  0.23660  1.0000
  C   C206      1.0  0.63650  0.60590  0.26340  1.0000
  C   C207      1.0  0.86350  0.10590  0.23660  1.0000
  C   C208      1.0  0.13650  0.10590  0.26340  1.0000
  H   H113      1.0  0.63623  0.31232  0.77551  1.0000
  H   H114      1.0  0.36377  0.31232  0.72449  1.0000
  H   H115      1.0  0.13623  0.81232  0.77551  1.0000
  H   H116      1.0  0.86377  0.81232  0.72449  1.0000
  H   H117      1.0  0.36377  0.68768  0.22449  1.0000
  H   H118      1.0  0.63623  0.68768  0.27551  1.0000
  H   H119      1.0  0.86377  0.18768  0.22449  1.0000
  H   H120      1.0  0.13623  0.18768  0.27551  1.0000
  C   C209      1.0  0.62800  0.52420  0.61380  1.0000
  C   C210      1.0  0.37200  0.52420  0.88620  1.0000
  C   C211      1.0  0.12800  0.02420  0.61380  1.0000
  C   C212      1.0  0.87200  0.02420  0.88620  1.0000
  C   C213      1.0  0.37200  0.47580  0.38620  1.0000
  C   C214      1.0  0.62800  0.47580  0.11380  1.0000
  C   C215      1.0  0.87200  0.97580  0.38620  1.0000
  C   C216      1.0  0.12800  0.97580  0.11380  1.0000
  H   H121      1.0  0.64064  0.50913  0.59622  1.0000
  H   H122      1.0  0.35936  0.50913  0.90378  1.0000
  H   H123      1.0  0.14064  0.00913  0.59622  1.0000
  H   H124      1.0  0.85936  0.00913  0.90378  1.0000
  H   H125      1.0  0.35936  0.49087  0.40378  1.0000
  H   H126      1.0  0.64064  0.49087  0.09622  1.0000
  H   H127      1.0  0.85936  0.99087  0.40378  1.0000
  H   H128      1.0  0.14064  0.99087  0.09622  1.0000
  H   H129      1.0  0.62837  0.44314  0.62820  1.0000
  H   H130      1.0  0.37163  0.44314  0.87180  1.0000
  H   H131      1.0  0.12837  0.94314  0.62820  1.0000
  H   H132      1.0  0.87163  0.94314  0.87180  1.0000
  H   H133      1.0  0.37163  0.55686  0.37180  1.0000
  H   H134      1.0  0.62837  0.55686  0.12820  1.0000
  H   H135      1.0  0.87163  0.05686  0.37180  1.0000
  H   H136      1.0  0.12837  0.05686  0.12820  1.0000
  H   H137      1.0  0.64076  0.59408  0.63251  1.0000
  H   H138      1.0  0.35924  0.59408  0.86749  1.0000
  H   H139      1.0  0.14076  0.09408  0.63251  1.0000
  H   H140      1.0  0.85924  0.09408  0.86749  1.0000
  H   H141      1.0  0.35924  0.40592  0.36749  1.0000
  H   H142      1.0  0.64076  0.40592  0.13251  1.0000
  H   H143      1.0  0.85924  0.90592  0.36749  1.0000
  H   H144      1.0  0.14076  0.90592  0.13251  1.0000
  C   C217      1.0  0.61090  0.54270  0.70780  1.0000
  C   C218      1.0  0.38910  0.54270  0.79220  1.0000
  C   C219      1.0  0.11090  0.04270  0.70780  1.0000
  C   C220      1.0  0.88910  0.04270  0.79220  1.0000
  C   C221      1.0  0.38910  0.45730  0.29220  1.0000
  C   C222      1.0  0.61090  0.45730  0.20780  1.0000
  C   C223      1.0  0.88910  0.95730  0.29220  1.0000
  C   C224      1.0  0.11090  0.95730  0.20780  1.0000
  C   C225      1.0  0.48940  0.53960  0.58980  1.0000
  C   C226      1.0  0.51060  0.53960  0.91020  1.0000
  C   C227      1.0  0.98940  0.03960  0.58980  1.0000
  C   C228      1.0  0.01060  0.03960  0.91020  1.0000
  C   C229      1.0  0.51060  0.46040  0.41020  1.0000
  C   C230      1.0  0.48940  0.46040  0.08980  1.0000
  C   C231      1.0  0.01060  0.96040  0.41020  1.0000
  C   C232      1.0  0.98940  0.96040  0.08980  1.0000
  H   H145      1.0  0.46759  0.59158  0.57417  1.0000
  H   H146      1.0  0.53241  0.59158  0.92583  1.0000
  H   H147      1.0  0.96759  0.09158  0.57417  1.0000
  H   H148      1.0  0.03241  0.09158  0.92583  1.0000
  H   H149      1.0  0.53241  0.40842  0.42583  1.0000
  H   H150      1.0  0.46759  0.40842  0.07417  1.0000
  H   H151      1.0  0.03241  0.90842  0.42583  1.0000
  H   H152      1.0  0.96759  0.90842  0.07417  1.0000
  H   H153      1.0  0.49772  0.56339  0.61759  1.0000
  H   H154      1.0  0.50228  0.56339  0.88241  1.0000
  H   H155      1.0  0.99772  0.06339  0.61759  1.0000
  H   H156      1.0  0.00228  0.06339  0.88241  1.0000
  H   H157      1.0  0.50228  0.43661  0.38241  1.0000
  H   H158      1.0  0.49772  0.43661  0.11759  1.0000
  H   H159      1.0  0.00228  0.93661  0.38241  1.0000
  H   H160      1.0  0.99772  0.93661  0.11759  1.0000
  H   H161      1.0  0.48319  0.44588  0.58651  1.0000
  H   H162      1.0  0.51681  0.44588  0.91349  1.0000
  H   H163      1.0  0.98319  0.94588  0.58651  1.0000
  H   H164      1.0  0.01681  0.94588  0.91349  1.0000
  H   H165      1.0  0.51681  0.55412  0.41349  1.0000
  H   H166      1.0  0.48319  0.55412  0.08651  1.0000
  H   H167      1.0  0.01681  0.05412  0.41349  1.0000
  H   H168      1.0  0.98319  0.05412  0.08651  1.0000
  C   C233      1.0  0.53330  0.73860  0.48970  1.0000
  C   C234      1.0  0.46670  0.73860  0.01030  1.0000
  C   C235      1.0  0.03330  0.23860  0.48970  1.0000
  C   C236      1.0  0.96670  0.23860  0.01030  1.0000
  C   C237      1.0  0.46670  0.26140  0.51030  1.0000
  C   C238      1.0  0.53330  0.26140  0.98970  1.0000
  C   C239      1.0  0.96670  0.76140  0.51030  1.0000
  C   C240      1.0  0.03330  0.76140  0.98970  1.0000
  H   H169      1.0  0.52504  0.82801  0.49184  1.0000
  H   H170      1.0  0.47496  0.82801  0.00816  1.0000
  H   H171      1.0  0.02504  0.32801  0.49184  1.0000
  H   H172      1.0  0.97496  0.32801  0.00816  1.0000
  H   H173      1.0  0.47496  0.17199  0.50816  1.0000
  H   H174      1.0  0.52504  0.17199  0.99184  1.0000
  H   H175      1.0  0.97496  0.67199  0.50816  1.0000
  H   H176      1.0  0.02504  0.67199  0.99184  1.0000
  H   H177      1.0  0.51381  0.69222  0.46827  1.0000
  H   H178      1.0  0.48619  0.69222  0.03173  1.0000
  H   H179      1.0  0.01381  0.19222  0.46827  1.0000
  H   H180      1.0  0.98619  0.19222  0.03173  1.0000
  H   H181      1.0  0.48619  0.30778  0.53173  1.0000
  H   H182      1.0  0.51381  0.30778  0.96827  1.0000
  H   H183      1.0  0.98619  0.80778  0.53173  1.0000
  H   H184      1.0  0.01381  0.80778  0.96827  1.0000
  H   H185      1.0  0.55567  0.74272  0.48442  1.0000
  H   H186      1.0  0.44433  0.74272  0.01558  1.0000
  H   H187      1.0  0.05567  0.24272  0.48442  1.0000
  H   H188      1.0  0.94433  0.24272  0.01558  1.0000
  H   H189      1.0  0.44433  0.25728  0.51558  1.0000
  H   H190      1.0  0.55567  0.25728  0.98442  1.0000
  H   H191      1.0  0.94433  0.75728  0.51558  1.0000
  H   H192      1.0  0.05567  0.75728  0.98442  1.0000
  C   C241      1.0  0.60940  0.42230  0.72440  1.0000
  C   C242      1.0  0.39060  0.42230  0.77560  1.0000
  C   C243      1.0  0.10940  0.92230  0.72440  1.0000
  C   C244      1.0  0.89060  0.92230  0.77560  1.0000
  C   C245      1.0  0.39060  0.57770  0.27560  1.0000
  C   C246      1.0  0.60940  0.57770  0.22440  1.0000
  C   C247      1.0  0.89060  0.07770  0.27560  1.0000
  C   C248      1.0  0.10940  0.07770  0.22440  1.0000
  H   H193      1.0  0.59095  0.35971  0.71047  1.0000
  H   H194      1.0  0.40905  0.35971  0.78953  1.0000
  H   H195      1.0  0.09095  0.85971  0.71047  1.0000
  H   H196      1.0  0.90905  0.85971  0.78953  1.0000
  H   H197      1.0  0.40905  0.64029  0.28953  1.0000
  H   H198      1.0  0.59095  0.64029  0.21047  1.0000
  H   H199      1.0  0.90905  0.14029  0.28953  1.0000
  H   H200      1.0  0.09095  0.14029  0.21047  1.0000
  C   C249      1.0  0.66330  0.60620  0.76530  1.0000
  C   C250      1.0  0.33670  0.60620  0.73470  1.0000
  C   C251      1.0  0.16330  0.10620  0.76530  1.0000
  C   C252      1.0  0.83670  0.10620  0.73470  1.0000
  C   C253      1.0  0.33670  0.39380  0.23470  1.0000
  C   C254      1.0  0.66330  0.39380  0.26530  1.0000
  C   C255      1.0  0.83670  0.89380  0.23470  1.0000
  C   C256      1.0  0.16330  0.89380  0.26530  1.0000
  H   H201      1.0  0.68199  0.66893  0.77848  1.0000
  H   H202      1.0  0.31801  0.66893  0.72152  1.0000
  H   H203      1.0  0.18199  0.16893  0.77848  1.0000
  H   H204      1.0  0.81801  0.16893  0.72152  1.0000
  H   H205      1.0  0.31801  0.33107  0.22152  1.0000
  H   H206      1.0  0.68199  0.33107  0.27848  1.0000
  H   H207      1.0  0.81801  0.83107  0.22152  1.0000
  H   H208      1.0  0.18199  0.83107  0.27848  1.0000
  C   C257      1.0  0.63690  0.63470  0.72880  1.0000
  C   C258      1.0  0.36310  0.63470  0.77120  1.0000
  C   C259      1.0  0.13690  0.13470  0.72880  1.0000
  C   C260      1.0  0.86310  0.13470  0.77120  1.0000
  C   C261      1.0  0.36310  0.36530  0.27120  1.0000
  C   C262      1.0  0.63690  0.36530  0.22880  1.0000
  C   C263      1.0  0.86310  0.86530  0.27120  1.0000
  C   C264      1.0  0.13690  0.86530  0.22880  1.0000
  H   H209      1.0  0.63657  0.71918  0.71778  1.0000
  H   H210      1.0  0.36343  0.71918  0.78222  1.0000
  H   H211      1.0  0.13657  0.21918  0.71778  1.0000
  H   H212      1.0  0.86343  0.21918  0.78222  1.0000
  H   H213      1.0  0.36343  0.28082  0.28222  1.0000
  H   H214      1.0  0.63657  0.28082  0.21778  1.0000
  H   H215      1.0  0.86343  0.78082  0.28222  1.0000
  H   H216      1.0  0.13657  0.78082  0.21778  1.0000
