data_image0
_chemical_formula_structural       U2O4P2O6C4H2C2H2C4H2C2H2P2O6
_chemical_formula_sum              "U2 O16 P4 C12 H8"
_cell_length_a       9.5417
_cell_length_b       9.9607
_cell_length_c       10.9998
_cell_angle_alpha    87.85
_cell_angle_beta     66.54
_cell_angle_gamma    87.98

_space_group_name_H-M_alt    "P 1"
_space_group_IT_number       1

loop_
  _space_group_symop_operation_xyz
  'x, y, z'

loop_
  _atom_site_type_symbol
  _atom_site_label
  _atom_site_symmetry_multiplicity
  _atom_site_fract_x
  _atom_site_fract_y
  _atom_site_fract_z
  _atom_site_occupancy
  U   U1        1.0  0.69459  0.55640  0.52485  1.0000
  U   U2        1.0  0.30541  0.44360  0.47515  1.0000
  O   O1        1.0  0.71090  0.70750  0.42840  1.0000
  O   O2        1.0  0.28910  0.29250  0.57160  1.0000
  O   O3        1.0  0.67890  0.40398  0.61900  1.0000
  O   O4        1.0  0.32110  0.59602  0.38100  1.0000
  P   P1        1.0  0.95393  0.62245  0.69374  1.0000
  P   P2        1.0  0.04607  0.37755  0.30626  1.0000
  O   O5        1.0  0.85390  0.64015  0.61623  1.0000
  O   O6        1.0  0.14610  0.35985  0.38377  1.0000
  O   O7        1.0  0.08170  0.51800  0.63728  1.0000
  O   O8        1.0  0.91830  0.48200  0.36272  1.0000
  O   O9        1.0  0.02030  0.76112  0.70058  1.0000
  O   O10       1.0  0.97970  0.23888  0.29942  1.0000
  C   C1        1.0  0.84440  0.56840  0.86190  1.0000
  C   C2        1.0  0.15560  0.43160  0.13810  1.0000
  C   C3        1.0  0.73610  0.46950  0.88760  1.0000
  C   C4        1.0  0.26390  0.53050  0.11240  1.0000
  H   H1        1.0  0.70980  0.44110  0.81800  1.0000
  H   H2        1.0  0.29020  0.55890  0.18200  1.0000
  C   C5        1.0  0.66610  0.41160  0.01340  1.0000
  C   C6        1.0  0.33390  0.58840  0.98660  1.0000
  H   H3        1.0  0.59150  0.34500  0.02960  1.0000
  H   H4        1.0  0.40850  0.65500  0.97040  1.0000
  C   C7        1.0  0.70480  0.45090  0.11620  1.0000
  C   C8        1.0  0.29520  0.54910  0.88380  1.0000
  C   C9        1.0  0.80760  0.55450  0.09280  1.0000
  C   C10       1.0  0.19240  0.44550  0.90720  1.0000
  H   H5        1.0  0.83060  0.58580  0.16310  1.0000
  H   H6        1.0  0.16940  0.41420  0.83690  1.0000
  C   C11       1.0  0.87640  0.61200  0.96640  1.0000
  C   C12       1.0  0.12360  0.38800  0.03360  1.0000
  H   H7        1.0  0.94660  0.68240  0.95120  1.0000
  H   H8        1.0  0.05340  0.31760  0.04880  1.0000
  P   P3        1.0  0.62909  0.35509  0.26960  1.0000
  P   P4        1.0  0.37091  0.64491  0.73040  1.0000
  O   O11       1.0  0.46940  0.31120  0.28792  1.0000
  O   O12       1.0  0.53060  0.68880  0.71208  1.0000
  O   O13       1.0  0.59610  0.45059  0.38668  1.0000
  O   O14       1.0  0.40390  0.54941  0.61332  1.0000
  O   O15       1.0  0.73850  0.24123  0.26456  1.0000
  O   O16       1.0  0.26150  0.75877  0.73544  1.0000
