data_image0
_chemical_formula_structural       Zn4C8H4C4H4C4H4C20H4C4H4C4H4C20O32
_chemical_formula_sum              "Zn4 C64 H24 O32"
_cell_length_a       13.203
_cell_length_b       8.9082
_cell_length_c       17.077
_cell_angle_alpha    90
_cell_angle_beta     90
_cell_angle_gamma    90

_space_group_name_H-M_alt    "P 1"
_space_group_IT_number       1

loop_
  _space_group_symop_operation_xyz
  'x, y, z'

loop_
  _atom_site_type_symbol
  _atom_site_label
  _atom_site_symmetry_multiplicity
  _atom_site_fract_x
  _atom_site_fract_y
  _atom_site_fract_z
  _atom_site_occupancy
  Zn  Zn1       1.0  0.62730  0.28387  0.08131  1.0000
  Zn  Zn2       1.0  0.37270  0.71613  0.58131  1.0000
  Zn  Zn3       1.0  0.12730  0.21613  0.08131  1.0000
  Zn  Zn4       1.0  0.87270  0.78387  0.58131  1.0000
  C   C1        1.0  0.83950  0.44370  0.03920  1.0000
  C   C2        1.0  0.16050  0.55630  0.53920  1.0000
  C   C3        1.0  0.33950  0.05630  0.03920  1.0000
  C   C4        1.0  0.66050  0.94370  0.53920  1.0000
  C   C5        1.0  0.84550  0.53410  0.97280  1.0000
  C   C6        1.0  0.15450  0.46590  0.47280  1.0000
  C   C7        1.0  0.34550  0.96590  0.97280  1.0000
  C   C8        1.0  0.65450  0.03410  0.47280  1.0000
  H   H1        1.0  0.81680  0.63190  0.97370  1.0000
  H   H2        1.0  0.18320  0.36810  0.47370  1.0000
  H   H3        1.0  0.31680  0.86810  0.97370  1.0000
  H   H4        1.0  0.68320  0.13190  0.47370  1.0000
  C   C9        1.0  0.89270  0.48280  0.90570  1.0000
  C   C10       1.0  0.10730  0.51720  0.40570  1.0000
  C   C11       1.0  0.39270  0.01720  0.90570  1.0000
  C   C12       1.0  0.60730  0.98280  0.40570  1.0000
  H   H5        1.0  0.89380  0.54330  0.85990  1.0000
  H   H6        1.0  0.10620  0.45670  0.35990  1.0000
  H   H7        1.0  0.39380  0.95670  0.85990  1.0000
  H   H8        1.0  0.60620  0.04330  0.35990  1.0000
  C   C13       1.0  0.93820  0.34400  0.90550  1.0000
  C   C14       1.0  0.06180  0.65600  0.40550  1.0000
  C   C15       1.0  0.43820  0.15600  0.90550  1.0000
  C   C16       1.0  0.56180  0.84400  0.40550  1.0000
  H   H9        1.0  0.97140  0.30930  0.85960  1.0000
  H   H10       1.0  0.02860  0.69070  0.35960  1.0000
  H   H11       1.0  0.47140  0.19070  0.85960  1.0000
  H   H12       1.0  0.52860  0.80930  0.35960  1.0000
  C   C17       1.0  0.93580  0.25370  0.97230  1.0000
  C   C18       1.0  0.06420  0.74630  0.47230  1.0000
  C   C19       1.0  0.43580  0.24630  0.97230  1.0000
  C   C20       1.0  0.56420  0.75370  0.47230  1.0000
  C   C21       1.0  0.88510  0.29920  0.04000  1.0000
  C   C22       1.0  0.11490  0.70080  0.54000  1.0000
  C   C23       1.0  0.38510  0.20080  0.04000  1.0000
  C   C24       1.0  0.61490  0.79920  0.54000  1.0000
  C   C25       1.0  0.87240  0.20100  0.11040  1.0000
  C   C26       1.0  0.12760  0.79900  0.61040  1.0000
  C   C27       1.0  0.37240  0.29900  0.11040  1.0000
  C   C28       1.0  0.62760  0.70100  0.61040  1.0000
  C   C29       1.0  0.80750  0.07580  0.10440  1.0000
  C   C30       1.0  0.19250  0.92420  0.60440  1.0000
  C   C31       1.0  0.30750  0.42420  0.10440  1.0000
  C   C32       1.0  0.69250  0.57580  0.60440  1.0000
  C   C33       1.0  0.79150  0.97980  0.16790  1.0000
  C   C34       1.0  0.20850  0.02020  0.66790  1.0000
  C   C35       1.0  0.29150  0.52020  0.16790  1.0000
  C   C36       1.0  0.70850  0.47980  0.66790  1.0000
  H   H13       1.0  0.74820  0.89520  0.16240  1.0000
  H   H14       1.0  0.25180  0.10480  0.66240  1.0000
  H   H15       1.0  0.24820  0.60480  0.16240  1.0000
  H   H16       1.0  0.75180  0.39520  0.66240  1.0000
  C   C37       1.0  0.83840  0.00770  0.23850  1.0000
  C   C38       1.0  0.16160  0.99230  0.73850  1.0000
  C   C39       1.0  0.33840  0.49230  0.23850  1.0000
  C   C40       1.0  0.66160  0.50770  0.73850  1.0000
  H   H17       1.0  0.82690  0.94290  0.28180  1.0000
  H   H18       1.0  0.17310  0.05710  0.78180  1.0000
  H   H19       1.0  0.32690  0.55710  0.28180  1.0000
  H   H20       1.0  0.67310  0.44290  0.78180  1.0000
  C   C41       1.0  0.90220  0.13000  0.24640  1.0000
  C   C42       1.0  0.09780  0.87000  0.74640  1.0000
  C   C43       1.0  0.40220  0.37000  0.24640  1.0000
  C   C44       1.0  0.59780  0.63000  0.74640  1.0000
  H   H21       1.0  0.93380  0.14960  0.29530  1.0000
  H   H22       1.0  0.06620  0.85040  0.79530  1.0000
  H   H23       1.0  0.43380  0.35040  0.29530  1.0000
  H   H24       1.0  0.56620  0.64960  0.79530  1.0000
  C   C45       1.0  0.92060  0.22460  0.18290  1.0000
  C   C46       1.0  0.07940  0.77540  0.68290  1.0000
  C   C47       1.0  0.42060  0.27540  0.18290  1.0000
  C   C48       1.0  0.57940  0.72460  0.68290  1.0000
  C   C49       1.0  0.78400  0.50580  0.10870  1.0000
  C   C50       1.0  0.21600  0.49420  0.60870  1.0000
  C   C51       1.0  0.28400  0.99420  0.10870  1.0000
  C   C52       1.0  0.71600  0.00580  0.60870  1.0000
  C   C53       1.0  0.99060  0.10320  0.96710  1.0000
  C   C54       1.0  0.00940  0.89680  0.46710  1.0000
  C   C55       1.0  0.49060  0.39680  0.96710  1.0000
  C   C56       1.0  0.50940  0.60320  0.46710  1.0000
  C   C57       1.0  0.75050  0.04360  0.02990  1.0000
  C   C58       1.0  0.24950  0.95640  0.52990  1.0000
  C   C59       1.0  0.25050  0.45640  0.02990  1.0000
  C   C60       1.0  0.74950  0.54360  0.52990  1.0000
  C   C61       1.0  0.99180  0.35220  0.19670  1.0000
  C   C62       1.0  0.00820  0.64780  0.69670  1.0000
  C   C63       1.0  0.49180  0.14780  0.19670  1.0000
  C   C64       1.0  0.50820  0.85220  0.69670  1.0000
  O   O1        1.0  0.71076  0.42890  0.13755  1.0000
  O   O2        1.0  0.28924  0.57110  0.63755  1.0000
  O   O3        1.0  0.21076  0.07110  0.13755  1.0000
  O   O4        1.0  0.78924  0.92890  0.63755  1.0000
  O   O5        1.0  0.80906  0.63100  0.13346  1.0000
  O   O6        1.0  0.19094  0.36900  0.63346  1.0000
  O   O7        1.0  0.30906  0.86900  0.13346  1.0000
  O   O8        1.0  0.69094  0.13100  0.63346  1.0000
  O   O9        1.0  0.98530  0.02830  0.90818  1.0000
  O   O10       1.0  0.01470  0.97170  0.40818  1.0000
  O   O11       1.0  0.48530  0.47170  0.90818  1.0000
  O   O12       1.0  0.51470  0.52830  0.40818  1.0000
  O   O13       1.0  0.04382  0.06710  0.02881  1.0000
  O   O14       1.0  0.95618  0.93290  0.52881  1.0000
  O   O15       1.0  0.54382  0.43290  0.02881  1.0000
  O   O16       1.0  0.45618  0.56710  0.52881  1.0000
  O   O17       1.0  0.68733  0.14300  0.00651  1.0000
  O   O18       1.0  0.31267  0.85700  0.50651  1.0000
  O   O19       1.0  0.18733  0.35700  0.00651  1.0000
  O   O20       1.0  0.81267  0.64300  0.50651  1.0000
  O   O21       1.0  0.76650  0.92550  0.99542  1.0000
  O   O22       1.0  0.23350  0.07450  0.49542  1.0000
  O   O23       1.0  0.26650  0.57450  0.99542  1.0000
  O   O24       1.0  0.73350  0.42550  0.49542  1.0000
  O   O25       1.0  0.97510  0.43870  0.25288  1.0000
  O   O26       1.0  0.02490  0.56130  0.75288  1.0000
  O   O27       1.0  0.47510  0.06130  0.25288  1.0000
  O   O28       1.0  0.52490  0.93870  0.75288  1.0000
  O   O29       1.0  0.06858  0.36520  0.15180  1.0000
  O   O30       1.0  0.93142  0.63480  0.65180  1.0000
  O   O31       1.0  0.56858  0.13480  0.15180  1.0000
  O   O32       1.0  0.43142  0.86520  0.65180  1.0000
