data_image0
_chemical_formula_structural       Cu9Cl18N54C54H36C18H18O18H36C18H18C18H54
_chemical_formula_sum              "Cu9 Cl18 N54 C108 H162 O18"
_cell_length_a       14.569
_cell_length_b       14.569
_cell_length_c       21.398
_cell_angle_alpha    90
_cell_angle_beta     90
_cell_angle_gamma    120

_space_group_name_H-M_alt    "P 1"
_space_group_IT_number       1

loop_
  _space_group_symop_operation_xyz
  'x, y, z'

loop_
  _atom_site_type_symbol
  _atom_site_label
  _atom_site_symmetry_multiplicity
  _atom_site_fract_x
  _atom_site_fract_y
  _atom_site_fract_z
  _atom_site_occupancy
  Cu  Cu1       1.0  0.16667  0.33333  0.33333  1.0000
  Cu  Cu2       1.0  0.66667  0.83334  0.33333  1.0000
  Cu  Cu3       1.0  0.16666  0.83333  0.33333  1.0000
  Cu  Cu4       1.0  0.83334  0.66666  0.66666  1.0000
  Cu  Cu5       1.0  0.33334  0.16667  0.66666  1.0000
  Cu  Cu6       1.0  0.83333  0.16666  0.66666  1.0000
  Cu  Cu7       1.0  0.50000  1.00000  1.00000  1.0000
  Cu  Cu8       1.0  0.00000  0.50001  1.00000  1.0000
  Cu  Cu9       1.0  0.49999  0.50000  1.00000  1.0000
  Cl  Cl1       1.0  0.98278  0.22714  0.31052  1.0000
  Cl  Cl2       1.0  0.77286  0.75564  0.31052  1.0000
  Cl  Cl3       1.0  0.24436  0.01722  0.31052  1.0000
  Cl  Cl4       1.0  0.64945  0.56047  0.64385  1.0000
  Cl  Cl5       1.0  0.43953  0.08897  0.64385  1.0000
  Cl  Cl6       1.0  0.91103  0.35055  0.64385  1.0000
  Cl  Cl7       1.0  0.31611  0.89381  0.97719  1.0000
  Cl  Cl8       1.0  0.10619  0.42231  0.97719  1.0000
  Cl  Cl9       1.0  0.57769  0.68389  0.97719  1.0000
  Cl  Cl10      1.0  0.01722  0.77286  0.68948  1.0000
  Cl  Cl11      1.0  0.22714  0.24436  0.68948  1.0000
  Cl  Cl12      1.0  0.75564  0.98278  0.68948  1.0000
  Cl  Cl13      1.0  0.35055  0.43953  0.35615  1.0000
  Cl  Cl14      1.0  0.56047  0.91103  0.35615  1.0000
  Cl  Cl15      1.0  0.08897  0.64945  0.35615  1.0000
  Cl  Cl16      1.0  0.68389  0.10619  0.02281  1.0000
  Cl  Cl17      1.0  0.89381  0.57769  0.02281  1.0000
  Cl  Cl18      1.0  0.42231  0.31611  0.02281  1.0000
  N   N1        1.0  0.14282  0.38907  0.51914  1.0000
  N   N2        1.0  0.61093  0.75375  0.51914  1.0000
  N   N3        1.0  0.24625  0.85718  0.51914  1.0000
  N   N4        1.0  0.80949  0.72240  0.85247  1.0000
  N   N5        1.0  0.27760  0.08708  0.85247  1.0000
  N   N6        1.0  0.91292  0.19051  0.85247  1.0000
  N   N7        1.0  0.47615  0.05574  0.18581  1.0000
  N   N8        1.0  0.94426  0.42042  0.18581  1.0000
  N   N9        1.0  0.57958  0.52385  0.18581  1.0000
  N   N10       1.0  0.85718  0.61093  0.48086  1.0000
  N   N11       1.0  0.38907  0.24625  0.48086  1.0000
  N   N12       1.0  0.75375  0.14282  0.48086  1.0000
  N   N13       1.0  0.19051  0.27760  0.14753  1.0000
  N   N14       1.0  0.72240  0.91292  0.14753  1.0000
  N   N15       1.0  0.08708  0.80949  0.14753  1.0000
  N   N16       1.0  0.52385  0.94426  0.81419  1.0000
  N   N17       1.0  0.05574  0.57958  0.81419  1.0000
  N   N18       1.0  0.42042  0.47615  0.81419  1.0000
  N   N19       1.0  0.13251  0.34187  0.42213  1.0000
  N   N20       1.0  0.65813  0.79064  0.42213  1.0000
  N   N21       1.0  0.20936  0.86749  0.42213  1.0000
  N   N22       1.0  0.79918  0.67520  0.75546  1.0000
  N   N23       1.0  0.32480  0.12397  0.75546  1.0000
  N   N24       1.0  0.87603  0.20082  0.75546  1.0000
  N   N25       1.0  0.46584  0.00854  0.08880  1.0000
  N   N26       1.0  0.99146  0.45731  0.08880  1.0000
  N   N27       1.0  0.54269  0.53416  0.08880  1.0000
  N   N28       1.0  0.86749  0.65813  0.57787  1.0000
  N   N29       1.0  0.34187  0.20936  0.57787  1.0000
  N   N30       1.0  0.79064  0.13251  0.57787  1.0000
  N   N31       1.0  0.20082  0.32480  0.24454  1.0000
  N   N32       1.0  0.67520  0.87603  0.24454  1.0000
  N   N33       1.0  0.12397  0.79918  0.24454  1.0000
  N   N34       1.0  0.53416  0.99146  0.91120  1.0000
  N   N35       1.0  0.00854  0.54269  0.91120  1.0000
  N   N36       1.0  0.45731  0.46584  0.91120  1.0000
  N   N37       1.0  0.06504  0.28519  0.51708  1.0000
  N   N38       1.0  0.71481  0.77985  0.51708  1.0000
  N   N39       1.0  0.22015  0.93496  0.51708  1.0000
  N   N40       1.0  0.73171  0.61852  0.85041  1.0000
  N   N41       1.0  0.38148  0.11318  0.85041  1.0000
  N   N42       1.0  0.88682  0.26829  0.85041  1.0000
  N   N43       1.0  0.39837  0.95186  0.18375  1.0000
  N   N44       1.0  0.04814  0.44652  0.18375  1.0000
  N   N45       1.0  0.55348  0.60163  0.18375  1.0000
  N   N46       1.0  0.93496  0.71481  0.48292  1.0000
  N   N47       1.0  0.28519  0.22015  0.48292  1.0000
  N   N48       1.0  0.77985  0.06504  0.48292  1.0000
  N   N49       1.0  0.26829  0.38148  0.14959  1.0000
  N   N50       1.0  0.61852  0.88682  0.14959  1.0000
  N   N51       1.0  0.11318  0.73171  0.14959  1.0000
  N   N52       1.0  0.60163  0.04814  0.81625  1.0000
  N   N53       1.0  0.95186  0.55348  0.81625  1.0000
  N   N54       1.0  0.44652  0.39837  0.81625  1.0000
  C   C1        1.0  0.25722  0.55908  0.57410  1.0000
  C   C2        1.0  0.44092  0.69814  0.57410  1.0000
  C   C3        1.0  0.30186  0.74278  0.57410  1.0000
  C   C4        1.0  0.92389  0.89241  0.90743  1.0000
  C   C5        1.0  0.10759  0.03147  0.90743  1.0000
  C   C6        1.0  0.96853  0.07611  0.90743  1.0000
  C   C7        1.0  0.59055  0.22575  0.24077  1.0000
  C   C8        1.0  0.77425  0.36481  0.24077  1.0000
  C   C9        1.0  0.63519  0.40945  0.24077  1.0000
  C   C10       1.0  0.74278  0.44092  0.42590  1.0000
  C   C11       1.0  0.55908  0.30186  0.42590  1.0000
  C   C12       1.0  0.69814  0.25722  0.42590  1.0000
  C   C13       1.0  0.07611  0.10759  0.09257  1.0000
  C   C14       1.0  0.89241  0.96853  0.09257  1.0000
  C   C15       1.0  0.03147  0.92389  0.09257  1.0000
  C   C16       1.0  0.40945  0.77425  0.75923  1.0000
  C   C17       1.0  0.22575  0.63519  0.75923  1.0000
  C   C18       1.0  0.36481  0.59055  0.75923  1.0000
  C   C19       1.0  0.36519  0.58989  0.57332  1.0000
  C   C20       1.0  0.41011  0.77530  0.57332  1.0000
  C   C21       1.0  0.22470  0.63481  0.57332  1.0000
  C   C22       1.0  0.03186  0.92322  0.90665  1.0000
  C   C23       1.0  0.07678  0.10863  0.90665  1.0000
  C   C24       1.0  0.89137  0.96814  0.90665  1.0000
  C   C25       1.0  0.69852  0.25656  0.23999  1.0000
  C   C26       1.0  0.74344  0.44197  0.23999  1.0000
  C   C27       1.0  0.55803  0.30148  0.23999  1.0000
  C   C28       1.0  0.63481  0.41011  0.42668  1.0000
  C   C29       1.0  0.58989  0.22470  0.42668  1.0000
  C   C30       1.0  0.77530  0.36519  0.42668  1.0000
  C   C31       1.0  0.96814  0.07678  0.09335  1.0000
  C   C32       1.0  0.92322  0.89137  0.09335  1.0000
  C   C33       1.0  0.10863  0.03186  0.09335  1.0000
  C   C34       1.0  0.30148  0.74344  0.76001  1.0000
  C   C35       1.0  0.25656  0.55803  0.76001  1.0000
  C   C36       1.0  0.44197  0.69852  0.76001  1.0000
  C   C37       1.0  0.17540  0.44263  0.58001  1.0000
  C   C38       1.0  0.55737  0.73277  0.58001  1.0000
  C   C39       1.0  0.26723  0.82460  0.58001  1.0000
  C   C40       1.0  0.84207  0.77596  0.91334  1.0000
  C   C41       1.0  0.22404  0.06610  0.91334  1.0000
  C   C42       1.0  0.93390  0.15793  0.91334  1.0000
  C   C43       1.0  0.50873  0.10930  0.24668  1.0000
  C   C44       1.0  0.89070  0.39944  0.24668  1.0000
  C   C45       1.0  0.60056  0.49127  0.24668  1.0000
  C   C46       1.0  0.82460  0.55737  0.41999  1.0000
  C   C47       1.0  0.44263  0.26723  0.41999  1.0000
  C   C48       1.0  0.73277  0.17540  0.41999  1.0000
  C   C49       1.0  0.15793  0.22404  0.08666  1.0000
  C   C50       1.0  0.77596  0.93390  0.08666  1.0000
  C   C51       1.0  0.06610  0.84207  0.08666  1.0000
  C   C52       1.0  0.49127  0.89070  0.75332  1.0000
  C   C53       1.0  0.10930  0.60056  0.75332  1.0000
  C   C54       1.0  0.39944  0.50873  0.75332  1.0000
  H   H1        1.0  0.20439  0.40790  0.60530  1.0000
  H   H2        1.0  0.59210  0.79649  0.60530  1.0000
  H   H3        1.0  0.20351  0.79561  0.60530  1.0000
  H   H4        1.0  0.87106  0.74123  0.93863  1.0000
  H   H5        1.0  0.25877  0.12982  0.93863  1.0000
  H   H6        1.0  0.87018  0.12894  0.93863  1.0000
  H   H7        1.0  0.53772  0.07457  0.27197  1.0000
  H   H8        1.0  0.92543  0.46316  0.27197  1.0000
  H   H9        1.0  0.53684  0.46228  0.27197  1.0000
  H   H10       1.0  0.79561  0.59210  0.39470  1.0000
  H   H11       1.0  0.40790  0.20351  0.39470  1.0000
  H   H12       1.0  0.79649  0.20439  0.39470  1.0000
  H   H13       1.0  0.12894  0.25877  0.06137  1.0000
  H   H14       1.0  0.74123  0.87018  0.06137  1.0000
  H   H15       1.0  0.12982  0.87106  0.06137  1.0000
  H   H16       1.0  0.46228  0.92543  0.72803  1.0000
  H   H17       1.0  0.07457  0.53684  0.72803  1.0000
  H   H18       1.0  0.46316  0.53772  0.72803  1.0000
  H   H19       1.0  0.11353  0.43566  0.60142  1.0000
  H   H20       1.0  0.56434  0.67787  0.60142  1.0000
  H   H21       1.0  0.32213  0.88647  0.60142  1.0000
  H   H22       1.0  0.78020  0.76899  0.93475  1.0000
  H   H23       1.0  0.23101  0.01120  0.93475  1.0000
  H   H24       1.0  0.98880  0.21980  0.93475  1.0000
  H   H25       1.0  0.44686  0.10233  0.26809  1.0000
  H   H26       1.0  0.89767  0.34454  0.26809  1.0000
  H   H27       1.0  0.65546  0.55314  0.26809  1.0000
  H   H28       1.0  0.88647  0.56434  0.39858  1.0000
  H   H29       1.0  0.43566  0.32213  0.39858  1.0000
  H   H30       1.0  0.67787  0.11353  0.39858  1.0000
  H   H31       1.0  0.21980  0.23101  0.06525  1.0000
  H   H32       1.0  0.76899  0.98880  0.06525  1.0000
  H   H33       1.0  0.01120  0.78020  0.06525  1.0000
  H   H34       1.0  0.55314  0.89767  0.73191  1.0000
  H   H35       1.0  0.10233  0.65546  0.73191  1.0000
  H   H36       1.0  0.34454  0.44686  0.73191  1.0000
  C   C55       1.0  0.18250  0.42110  0.46245  1.0000
  C   C56       1.0  0.57890  0.76140  0.46245  1.0000
  C   C57       1.0  0.23860  0.81750  0.46245  1.0000
  C   C58       1.0  0.84917  0.75443  0.79578  1.0000
  C   C59       1.0  0.24557  0.09473  0.79578  1.0000
  C   C60       1.0  0.90527  0.15083  0.79578  1.0000
  C   C61       1.0  0.51583  0.08777  0.12912  1.0000
  C   C62       1.0  0.91223  0.42807  0.12912  1.0000
  C   C63       1.0  0.57193  0.48417  0.12912  1.0000
  C   C64       1.0  0.81750  0.57890  0.53755  1.0000
  C   C65       1.0  0.42110  0.23860  0.53755  1.0000
  C   C66       1.0  0.76140  0.18250  0.53755  1.0000
  C   C67       1.0  0.15083  0.24557  0.20422  1.0000
  C   C68       1.0  0.75443  0.90527  0.20422  1.0000
  C   C69       1.0  0.09473  0.84917  0.20422  1.0000
  C   C70       1.0  0.48417  0.91223  0.87088  1.0000
  C   C71       1.0  0.08777  0.57193  0.87088  1.0000
  C   C72       1.0  0.42807  0.51583  0.87088  1.0000
  H   H37       1.0  0.23696  0.48873  0.45239  1.0000
  H   H38       1.0  0.51127  0.74823  0.45239  1.0000
  H   H39       1.0  0.25177  0.76304  0.45239  1.0000
  H   H40       1.0  0.90363  0.82206  0.78572  1.0000
  H   H41       1.0  0.17794  0.08156  0.78572  1.0000
  H   H42       1.0  0.91844  0.09637  0.78572  1.0000
  H   H43       1.0  0.57029  0.15540  0.11906  1.0000
  H   H44       1.0  0.84460  0.41490  0.11906  1.0000
  H   H45       1.0  0.58510  0.42971  0.11906  1.0000
  H   H46       1.0  0.76304  0.51127  0.54761  1.0000
  H   H47       1.0  0.48873  0.25177  0.54761  1.0000
  H   H48       1.0  0.74823  0.23696  0.54761  1.0000
  H   H49       1.0  0.09637  0.17794  0.21428  1.0000
  H   H50       1.0  0.82206  0.91844  0.21428  1.0000
  H   H51       1.0  0.08156  0.90363  0.21428  1.0000
  H   H52       1.0  0.42971  0.84460  0.88094  1.0000
  H   H53       1.0  0.15540  0.58510  0.88094  1.0000
  H   H54       1.0  0.41490  0.57029  0.88094  1.0000
  O   O1        1.0  0.16330  0.49260  0.30165  1.0000
  O   O2        1.0  0.50740  0.67070  0.30165  1.0000
  O   O3        1.0  0.32930  0.83670  0.30165  1.0000
  O   O4        1.0  0.82997  0.82593  0.63498  1.0000
  O   O5        1.0  0.17407  0.00403  0.63498  1.0000
  O   O6        1.0  0.99597  0.17003  0.63498  1.0000
  O   O7        1.0  0.49663  0.15927  0.96832  1.0000
  O   O8        1.0  0.84073  0.33737  0.96832  1.0000
  O   O9        1.0  0.66263  0.50337  0.96832  1.0000
  O   O10       1.0  0.83670  0.50740  0.69835  1.0000
  O   O11       1.0  0.49260  0.32930  0.69835  1.0000
  O   O12       1.0  0.67070  0.16330  0.69835  1.0000
  O   O13       1.0  0.17003  0.17407  0.36502  1.0000
  O   O14       1.0  0.82593  0.99597  0.36502  1.0000
  O   O15       1.0  0.00403  0.82997  0.36502  1.0000
  O   O16       1.0  0.50337  0.84073  0.03168  1.0000
  O   O17       1.0  0.15927  0.66263  0.03168  1.0000
  O   O18       1.0  0.33737  0.49663  0.03168  1.0000
  H   H55       1.0  0.14806  0.51986  0.33217  1.0000
  H   H56       1.0  0.48014  0.62820  0.33217  1.0000
  H   H57       1.0  0.37180  0.85194  0.33217  1.0000
  H   H58       1.0  0.81473  0.85319  0.66550  1.0000
  H   H59       1.0  0.14681  0.96153  0.66550  1.0000
  H   H60       1.0  0.03847  0.18527  0.66550  1.0000
  H   H61       1.0  0.48139  0.18653  0.99884  1.0000
  H   H62       1.0  0.81347  0.29487  0.99884  1.0000
  H   H63       1.0  0.70513  0.51861  0.99884  1.0000
  H   H64       1.0  0.85194  0.48014  0.66783  1.0000
  H   H65       1.0  0.51986  0.37180  0.66783  1.0000
  H   H66       1.0  0.62820  0.14806  0.66783  1.0000
  H   H67       1.0  0.18527  0.14681  0.33450  1.0000
  H   H68       1.0  0.85319  0.03847  0.33450  1.0000
  H   H69       1.0  0.96153  0.81473  0.33450  1.0000
  H   H70       1.0  0.51861  0.81347  0.00116  1.0000
  H   H71       1.0  0.18653  0.70513  0.00116  1.0000
  H   H72       1.0  0.29487  0.48139  0.00116  1.0000
  H   H73       1.0  0.22997  0.51844  0.30433  1.0000
  H   H74       1.0  0.48156  0.71153  0.30433  1.0000
  H   H75       1.0  0.28847  0.77003  0.30433  1.0000
  H   H76       1.0  0.89664  0.85177  0.63766  1.0000
  H   H77       1.0  0.14823  0.04486  0.63766  1.0000
  H   H78       1.0  0.95514  0.10336  0.63766  1.0000
  H   H79       1.0  0.56330  0.18511  0.97100  1.0000
  H   H80       1.0  0.81489  0.37820  0.97100  1.0000
  H   H81       1.0  0.62180  0.43670  0.97100  1.0000
  H   H82       1.0  0.77003  0.48156  0.69567  1.0000
  H   H83       1.0  0.51844  0.28847  0.69567  1.0000
  H   H84       1.0  0.71153  0.22997  0.69567  1.0000
  H   H85       1.0  0.10336  0.14823  0.36234  1.0000
  H   H86       1.0  0.85177  0.95514  0.36234  1.0000
  H   H87       1.0  0.04486  0.89664  0.36234  1.0000
  H   H88       1.0  0.43670  0.81489  0.02900  1.0000
  H   H89       1.0  0.18511  0.62180  0.02900  1.0000
  H   H90       1.0  0.37820  0.56330  0.02900  1.0000
  C   C73       1.0  0.06120  0.26120  0.45781  1.0000
  C   C74       1.0  0.73880  0.80000  0.45781  1.0000
  C   C75       1.0  0.20000  0.93880  0.45781  1.0000
  C   C76       1.0  0.72787  0.59453  0.79114  1.0000
  C   C77       1.0  0.40547  0.13333  0.79114  1.0000
  C   C78       1.0  0.86667  0.27213  0.79114  1.0000
  C   C79       1.0  0.39453  0.92787  0.12448  1.0000
  C   C80       1.0  0.07213  0.46667  0.12448  1.0000
  C   C81       1.0  0.53333  0.60547  0.12448  1.0000
  C   C82       1.0  0.93880  0.73880  0.54219  1.0000
  C   C83       1.0  0.26120  0.20000  0.54219  1.0000
  C   C84       1.0  0.80000  0.06120  0.54219  1.0000
  C   C85       1.0  0.27213  0.40547  0.20886  1.0000
  C   C86       1.0  0.59453  0.86667  0.20886  1.0000
  C   C87       1.0  0.13333  0.72787  0.20886  1.0000
  C   C88       1.0  0.60547  0.07213  0.87552  1.0000
  C   C89       1.0  0.92787  0.53333  0.87552  1.0000
  C   C90       1.0  0.46667  0.39453  0.87552  1.0000
  H   H91       1.0  0.01371  0.19468  0.44177  1.0000
  H   H92       1.0  0.80532  0.81903  0.44177  1.0000
  H   H93       1.0  0.18097  0.98629  0.44177  1.0000
  H   H94       1.0  0.68038  0.52801  0.77510  1.0000
  H   H95       1.0  0.47199  0.15236  0.77510  1.0000
  H   H96       1.0  0.84764  0.31962  0.77510  1.0000
  H   H97       1.0  0.34704  0.86135  0.10844  1.0000
  H   H98       1.0  0.13865  0.48570  0.10844  1.0000
  H   H99       1.0  0.51430  0.65296  0.10844  1.0000
  H   H100      1.0  0.98629  0.80532  0.55823  1.0000
  H   H101      1.0  0.19468  0.18097  0.55823  1.0000
  H   H102      1.0  0.81903  0.01371  0.55823  1.0000
  H   H103      1.0  0.31962  0.47199  0.22490  1.0000
  H   H104      1.0  0.52801  0.84764  0.22490  1.0000
  H   H105      1.0  0.15236  0.68038  0.22490  1.0000
  H   H106      1.0  0.65296  0.13865  0.89156  1.0000
  H   H107      1.0  0.86135  0.51430  0.89156  1.0000
  H   H108      1.0  0.48570  0.34704  0.89156  1.0000
  C   C91       1.0  0.39870  0.50680  0.56949  1.0000
  C   C92       1.0  0.49320  0.89190  0.56949  1.0000
  C   C93       1.0  0.10810  0.60130  0.56949  1.0000
  C   C94       1.0  0.06537  0.84013  0.90282  1.0000
  C   C95       1.0  0.15987  0.22523  0.90282  1.0000
  C   C96       1.0  0.77477  0.93463  0.90282  1.0000
  C   C97       1.0  0.73203  0.17347  0.23616  1.0000
  C   C98       1.0  0.82653  0.55857  0.23616  1.0000
  C   C99       1.0  0.44143  0.26797  0.23616  1.0000
  C   C100      1.0  0.60130  0.49320  0.43051  1.0000
  C   C101      1.0  0.50680  0.10810  0.43051  1.0000
  C   C102      1.0  0.89190  0.39870  0.43051  1.0000
  C   C103      1.0  0.93463  0.15987  0.09718  1.0000
  C   C104      1.0  0.84013  0.77477  0.09718  1.0000
  C   C105      1.0  0.22523  0.06537  0.09718  1.0000
  C   C106      1.0  0.26797  0.82653  0.76384  1.0000
  C   C107      1.0  0.17347  0.44143  0.76384  1.0000
  C   C108      1.0  0.55857  0.73203  0.76384  1.0000
  H   H109      1.0  0.37767  0.46497  0.60696  1.0000
  H   H110      1.0  0.53503  0.91270  0.60696  1.0000
  H   H111      1.0  0.08730  0.62233  0.60696  1.0000
  H   H112      1.0  0.04434  0.79830  0.94029  1.0000
  H   H113      1.0  0.20170  0.24603  0.94029  1.0000
  H   H114      1.0  0.75397  0.95566  0.94029  1.0000
  H   H115      1.0  0.71100  0.13164  0.27363  1.0000
  H   H116      1.0  0.86836  0.57937  0.27363  1.0000
  H   H117      1.0  0.42063  0.28900  0.27363  1.0000
  H   H118      1.0  0.62233  0.53503  0.39304  1.0000
  H   H119      1.0  0.46497  0.08730  0.39304  1.0000
  H   H120      1.0  0.91270  0.37767  0.39304  1.0000
  H   H121      1.0  0.95566  0.20170  0.05971  1.0000
  H   H122      1.0  0.79830  0.75397  0.05971  1.0000
  H   H123      1.0  0.24603  0.04434  0.05971  1.0000
  H   H124      1.0  0.28900  0.86836  0.72637  1.0000
  H   H125      1.0  0.13164  0.42063  0.72637  1.0000
  H   H126      1.0  0.57937  0.71100  0.72637  1.0000
  H   H127      1.0  0.47433  0.54112  0.56501  1.0000
  H   H128      1.0  0.45888  0.93321  0.56501  1.0000
  H   H129      1.0  0.06679  0.52567  0.56501  1.0000
  H   H130      1.0  0.14100  0.87445  0.89834  1.0000
  H   H131      1.0  0.12555  0.26654  0.89834  1.0000
  H   H132      1.0  0.73346  0.85900  0.89834  1.0000
  H   H133      1.0  0.80766  0.20779  0.23168  1.0000
  H   H134      1.0  0.79221  0.59988  0.23168  1.0000
  H   H135      1.0  0.40012  0.19234  0.23168  1.0000
  H   H136      1.0  0.52567  0.45888  0.43499  1.0000
  H   H137      1.0  0.54112  0.06679  0.43499  1.0000
  H   H138      1.0  0.93321  0.47433  0.43499  1.0000
  H   H139      1.0  0.85900  0.12555  0.10166  1.0000
  H   H140      1.0  0.87445  0.73346  0.10166  1.0000
  H   H141      1.0  0.26654  0.14100  0.10166  1.0000
  H   H142      1.0  0.19234  0.79221  0.76832  1.0000
  H   H143      1.0  0.20779  0.40012  0.76832  1.0000
  H   H144      1.0  0.59988  0.80766  0.76832  1.0000
  H   H145      1.0  0.36542  0.46178  0.53409  1.0000
  H   H146      1.0  0.53822  0.90364  0.53409  1.0000
  H   H147      1.0  0.09636  0.63458  0.53409  1.0000
  H   H148      1.0  0.03209  0.79511  0.86742  1.0000
  H   H149      1.0  0.20489  0.23697  0.86742  1.0000
  H   H150      1.0  0.76303  0.96791  0.86742  1.0000
  H   H151      1.0  0.69875  0.12845  0.20076  1.0000
  H   H152      1.0  0.87155  0.57031  0.20076  1.0000
  H   H153      1.0  0.42969  0.30125  0.20076  1.0000
  H   H154      1.0  0.63458  0.53822  0.46591  1.0000
  H   H155      1.0  0.46178  0.09636  0.46591  1.0000
  H   H156      1.0  0.90364  0.36542  0.46591  1.0000
  H   H157      1.0  0.96791  0.20489  0.13258  1.0000
  H   H158      1.0  0.79511  0.76303  0.13258  1.0000
  H   H159      1.0  0.23697  0.03209  0.13258  1.0000
  H   H160      1.0  0.30125  0.87155  0.79924  1.0000
  H   H161      1.0  0.12845  0.42969  0.79924  1.0000
  H   H162      1.0  0.57031  0.69875  0.79924  1.0000
