data_image0
_chemical_formula_structural       In8O64C24H8C8H8C16H8C8H8C16H8C8H8C16H8C8H8C24H8C8H8C16H8C8H8C16H8C8H8C16H8C8H8C32H8C8H8C16H8C8H8C16H8C8H8C16H8C8H8C24H8C8H8C16H8C8H8C16H8C8H8C16H8C8H8C8
_chemical_formula_sum              "In8 O64 C432 H256"
_cell_length_a       38.3323
_cell_length_b       15.1848
_cell_length_c       32.1945
_cell_angle_alpha    90
_cell_angle_beta     91.6553
_cell_angle_gamma    90

_space_group_name_H-M_alt    "P 1"
_space_group_IT_number       1

loop_
  _space_group_symop_operation_xyz
  'x, y, z'

loop_
  _atom_site_type_symbol
  _atom_site_label
  _atom_site_symmetry_multiplicity
  _atom_site_fract_x
  _atom_site_fract_y
  _atom_site_fract_z
  _atom_site_occupancy
  In  In1       1.0  0.78590  0.04024  0.80123  1.0000
  In  In2       1.0  0.21410  0.04024  0.69877  1.0000
  In  In3       1.0  0.28590  0.54024  0.80123  1.0000
  In  In4       1.0  0.71410  0.54024  0.69877  1.0000
  In  In5       1.0  0.21410  0.95976  0.19877  1.0000
  In  In6       1.0  0.78590  0.95976  0.30123  1.0000
  In  In7       1.0  0.71410  0.45976  0.19877  1.0000
  In  In8       1.0  0.28590  0.45976  0.30123  1.0000
  O   O1        1.0  0.74270  0.06110  0.75276  1.0000
  O   O2        1.0  0.25730  0.06110  0.74724  1.0000
  O   O3        1.0  0.24270  0.56110  0.75276  1.0000
  O   O4        1.0  0.75730  0.56110  0.74724  1.0000
  O   O5        1.0  0.25730  0.93890  0.24724  1.0000
  O   O6        1.0  0.74270  0.93890  0.25276  1.0000
  O   O7        1.0  0.75730  0.43890  0.24724  1.0000
  O   O8        1.0  0.24270  0.43890  0.25276  1.0000
  O   O9        1.0  0.75807  0.92570  0.76800  1.0000
  O   O10       1.0  0.24193  0.92570  0.73200  1.0000
  O   O11       1.0  0.25807  0.42570  0.76800  1.0000
  O   O12       1.0  0.74193  0.42570  0.73200  1.0000
  O   O13       1.0  0.24193  0.07430  0.23200  1.0000
  O   O14       1.0  0.75807  0.07430  0.26800  1.0000
  O   O15       1.0  0.74193  0.57430  0.23200  1.0000
  O   O16       1.0  0.25807  0.57430  0.26800  1.0000
  O   O17       1.0  0.31493  0.64170  0.76391  1.0000
  O   O18       1.0  0.68507  0.64170  0.73609  1.0000
  O   O19       1.0  0.81493  0.14170  0.76391  1.0000
  O   O20       1.0  0.18507  0.14170  0.73609  1.0000
  O   O21       1.0  0.68507  0.35830  0.23609  1.0000
  O   O22       1.0  0.31493  0.35830  0.26391  1.0000
  O   O23       1.0  0.18507  0.85830  0.23609  1.0000
  O   O24       1.0  0.81493  0.85830  0.26391  1.0000
  O   O25       1.0  0.32898  0.50410  0.75737  1.0000
  O   O26       1.0  0.67102  0.50410  0.74263  1.0000
  O   O27       1.0  0.82898  0.00410  0.75737  1.0000
  O   O28       1.0  0.17102  0.00410  0.74263  1.0000
  O   O29       1.0  0.67102  0.49590  0.24263  1.0000
  O   O30       1.0  0.32898  0.49590  0.25737  1.0000
  O   O31       1.0  0.17102  0.99590  0.24263  1.0000
  O   O32       1.0  0.82898  0.99590  0.25737  1.0000
  O   O33       1.0  0.74468  0.97820  0.34705  1.0000
  O   O34       1.0  0.25532  0.97820  0.15295  1.0000
  O   O35       1.0  0.24468  0.47820  0.34705  1.0000
  O   O36       1.0  0.75532  0.47820  0.15295  1.0000
  O   O37       1.0  0.25532  0.02180  0.65295  1.0000
  O   O38       1.0  0.74468  0.02180  0.84705  1.0000
  O   O39       1.0  0.75532  0.52180  0.65295  1.0000
  O   O40       1.0  0.24468  0.52180  0.84705  1.0000
  O   O41       1.0  0.75883  0.84180  0.33424  1.0000
  O   O42       1.0  0.24117  0.84180  0.16576  1.0000
  O   O43       1.0  0.25883  0.34180  0.33424  1.0000
  O   O44       1.0  0.74117  0.34180  0.16576  1.0000
  O   O45       1.0  0.24117  0.15820  0.66576  1.0000
  O   O46       1.0  0.75883  0.15820  0.83424  1.0000
  O   O47       1.0  0.74117  0.65820  0.66576  1.0000
  O   O48       1.0  0.25883  0.65820  0.83424  1.0000
  O   O49       1.0  0.31291  0.57150  0.33846  1.0000
  O   O50       1.0  0.68709  0.57150  0.16154  1.0000
  O   O51       1.0  0.81291  0.07150  0.33846  1.0000
  O   O52       1.0  0.18709  0.07150  0.16154  1.0000
  O   O53       1.0  0.68709  0.42850  0.66154  1.0000
  O   O54       1.0  0.31291  0.42850  0.83846  1.0000
  O   O55       1.0  0.18709  0.92850  0.66154  1.0000
  O   O56       1.0  0.81291  0.92850  0.83846  1.0000
  O   O57       1.0  0.32925  0.43440  0.34840  1.0000
  O   O58       1.0  0.67075  0.43440  0.15160  1.0000
  O   O59       1.0  0.82925  0.93440  0.34840  1.0000
  O   O60       1.0  0.17075  0.93440  0.15160  1.0000
  O   O61       1.0  0.67075  0.56560  0.65160  1.0000
  O   O62       1.0  0.32925  0.56560  0.84840  1.0000
  O   O63       1.0  0.17075  0.06560  0.65160  1.0000
  O   O64       1.0  0.82925  0.06560  0.84840  1.0000
  C   C1        1.0  0.73882  0.97910  0.74819  1.0000
  C   C2        1.0  0.26118  0.97910  0.75181  1.0000
  C   C3        1.0  0.23882  0.47910  0.74819  1.0000
  C   C4        1.0  0.76118  0.47910  0.75181  1.0000
  C   C5        1.0  0.26118  0.02090  0.25181  1.0000
  C   C6        1.0  0.73882  0.02090  0.24819  1.0000
  C   C7        1.0  0.76118  0.52090  0.25181  1.0000
  C   C8        1.0  0.23882  0.52090  0.24819  1.0000
  C   C9        1.0  0.71050  0.94390  0.71981  1.0000
  C   C10       1.0  0.28950  0.94390  0.78019  1.0000
  C   C11       1.0  0.21050  0.44390  0.71981  1.0000
  C   C12       1.0  0.78950  0.44390  0.78019  1.0000
  C   C13       1.0  0.28950  0.05610  0.28019  1.0000
  C   C14       1.0  0.71050  0.05610  0.21981  1.0000
  C   C15       1.0  0.78950  0.55610  0.28019  1.0000
  C   C16       1.0  0.21050  0.55610  0.21981  1.0000
  C   C17       1.0  0.68748  0.00300  0.69961  1.0000
  C   C18       1.0  0.31252  0.00300  0.80039  1.0000
  C   C19       1.0  0.18748  0.50300  0.69961  1.0000
  C   C20       1.0  0.81252  0.50300  0.80039  1.0000
  C   C21       1.0  0.31252  0.99700  0.30039  1.0000
  C   C22       1.0  0.68748  0.99700  0.19961  1.0000
  C   C23       1.0  0.81252  0.49700  0.30039  1.0000
  C   C24       1.0  0.18748  0.49700  0.19961  1.0000
  H   H1        1.0  0.69040  0.06340  0.70290  1.0000
  H   H2        1.0  0.30960  0.06340  0.79710  1.0000
  H   H3        1.0  0.19040  0.56340  0.70290  1.0000
  H   H4        1.0  0.80960  0.56340  0.79710  1.0000
  H   H5        1.0  0.30960  0.93660  0.29710  1.0000
  H   H6        1.0  0.69040  0.93660  0.20290  1.0000
  H   H7        1.0  0.80960  0.43660  0.29710  1.0000
  H   H8        1.0  0.19040  0.43660  0.20290  1.0000
  C   C25       1.0  0.66009  0.96980  0.67450  1.0000
  C   C26       1.0  0.33991  0.96980  0.82550  1.0000
  C   C27       1.0  0.16009  0.46980  0.67450  1.0000
  C   C28       1.0  0.83991  0.46980  0.82550  1.0000
  C   C29       1.0  0.33991  0.03020  0.32550  1.0000
  C   C30       1.0  0.66009  0.03020  0.17450  1.0000
  C   C31       1.0  0.83991  0.53020  0.32550  1.0000
  C   C32       1.0  0.16009  0.53020  0.17450  1.0000
  H   H9        1.0  0.64480  0.00870  0.66110  1.0000
  H   H10       1.0  0.35520  0.00870  0.83890  1.0000
  H   H11       1.0  0.14480  0.50870  0.66110  1.0000
  H   H12       1.0  0.85520  0.50870  0.83890  1.0000
  H   H13       1.0  0.35520  0.99130  0.33890  1.0000
  H   H14       1.0  0.64480  0.99130  0.16110  1.0000
  H   H15       1.0  0.85520  0.49130  0.33890  1.0000
  H   H16       1.0  0.14480  0.49130  0.16110  1.0000
  C   C33       1.0  0.65547  0.88010  0.66950  1.0000
  C   C34       1.0  0.34453  0.88010  0.83050  1.0000
  C   C35       1.0  0.15547  0.38010  0.66950  1.0000
  C   C36       1.0  0.84453  0.38010  0.83050  1.0000
  C   C37       1.0  0.34453  0.11990  0.33050  1.0000
  C   C38       1.0  0.65547  0.11990  0.16950  1.0000
  C   C39       1.0  0.84453  0.61990  0.33050  1.0000
  C   C40       1.0  0.15547  0.61990  0.16950  1.0000
  C   C41       1.0  0.67923  0.82200  0.68844  1.0000
  C   C42       1.0  0.32077  0.82200  0.81156  1.0000
  C   C43       1.0  0.17923  0.32200  0.68844  1.0000
  C   C44       1.0  0.82077  0.32200  0.81156  1.0000
  C   C45       1.0  0.32077  0.17800  0.31156  1.0000
  C   C46       1.0  0.67923  0.17800  0.18844  1.0000
  C   C47       1.0  0.82077  0.67800  0.31156  1.0000
  C   C48       1.0  0.17923  0.67800  0.18844  1.0000
  H   H17       1.0  0.67700  0.76170  0.68400  1.0000
  H   H18       1.0  0.32300  0.76170  0.81600  1.0000
  H   H19       1.0  0.17700  0.26170  0.68400  1.0000
  H   H20       1.0  0.82300  0.26170  0.81600  1.0000
  H   H21       1.0  0.32300  0.23830  0.31600  1.0000
  H   H22       1.0  0.67700  0.23830  0.18400  1.0000
  H   H23       1.0  0.82300  0.73830  0.31600  1.0000
  H   H24       1.0  0.17700  0.73830  0.18400  1.0000
  C   C49       1.0  0.70630  0.85410  0.71403  1.0000
  C   C50       1.0  0.29370  0.85410  0.78597  1.0000
  C   C51       1.0  0.20630  0.35410  0.71403  1.0000
  C   C52       1.0  0.79370  0.35410  0.78597  1.0000
  C   C53       1.0  0.29370  0.14590  0.28597  1.0000
  C   C54       1.0  0.70630  0.14590  0.21403  1.0000
  C   C55       1.0  0.79370  0.64590  0.28597  1.0000
  C   C56       1.0  0.20630  0.64590  0.21403  1.0000
  H   H25       1.0  0.72160  0.81500  0.72730  1.0000
  H   H26       1.0  0.27840  0.81500  0.77270  1.0000
  H   H27       1.0  0.22160  0.31500  0.72730  1.0000
  H   H28       1.0  0.77840  0.31500  0.77270  1.0000
  H   H29       1.0  0.27840  0.18500  0.27270  1.0000
  H   H30       1.0  0.72160  0.18500  0.22730  1.0000
  H   H31       1.0  0.77840  0.68500  0.27270  1.0000
  H   H32       1.0  0.22160  0.68500  0.22730  1.0000
  C   C57       1.0  0.62582  0.84600  0.64419  1.0000
  C   C58       1.0  0.37418  0.84600  0.85581  1.0000
  C   C59       1.0  0.12582  0.34600  0.64419  1.0000
  C   C60       1.0  0.87418  0.34600  0.85581  1.0000
  C   C61       1.0  0.37418  0.15400  0.35581  1.0000
  C   C62       1.0  0.62582  0.15400  0.14419  1.0000
  C   C63       1.0  0.87418  0.65400  0.35581  1.0000
  C   C64       1.0  0.12582  0.65400  0.14419  1.0000
  C   C65       1.0  0.61164  0.89110  0.61070  1.0000
  C   C66       1.0  0.38836  0.89110  0.88930  1.0000
  C   C67       1.0  0.11164  0.39110  0.61070  1.0000
  C   C68       1.0  0.88836  0.39110  0.88930  1.0000
  C   C69       1.0  0.38836  0.10890  0.38930  1.0000
  C   C70       1.0  0.61164  0.10890  0.11070  1.0000
  C   C71       1.0  0.88836  0.60890  0.38930  1.0000
  C   C72       1.0  0.11164  0.60890  0.11070  1.0000
  H   H33       1.0  0.62110  0.94530  0.60370  1.0000
  H   H34       1.0  0.37890  0.94530  0.89630  1.0000
  H   H35       1.0  0.12110  0.44530  0.60370  1.0000
  H   H36       1.0  0.87890  0.44530  0.89630  1.0000
  H   H37       1.0  0.37890  0.05470  0.39630  1.0000
  H   H38       1.0  0.62110  0.05470  0.10370  1.0000
  H   H39       1.0  0.87890  0.55470  0.39630  1.0000
  H   H40       1.0  0.12110  0.55470  0.10370  1.0000
  C   C73       1.0  0.58378  0.85870  0.58703  1.0000
  C   C74       1.0  0.41622  0.85870  0.91297  1.0000
  C   C75       1.0  0.08378  0.35870  0.58703  1.0000
  C   C76       1.0  0.91622  0.35870  0.91297  1.0000
  C   C77       1.0  0.41622  0.14130  0.41297  1.0000
  C   C78       1.0  0.58378  0.14130  0.08703  1.0000
  C   C79       1.0  0.91622  0.64130  0.41297  1.0000
  C   C80       1.0  0.08378  0.64130  0.08703  1.0000
  H   H41       1.0  0.57500  0.89080  0.56450  1.0000
  H   H42       1.0  0.42500  0.89080  0.93550  1.0000
  H   H43       1.0  0.07500  0.39080  0.56450  1.0000
  H   H44       1.0  0.92500  0.39080  0.93550  1.0000
  H   H45       1.0  0.42500  0.10920  0.43550  1.0000
  H   H46       1.0  0.57500  0.10920  0.06450  1.0000
  H   H47       1.0  0.92500  0.60920  0.43550  1.0000
  H   H48       1.0  0.07500  0.60920  0.06450  1.0000
  C   C81       1.0  0.56880  0.77750  0.59705  1.0000
  C   C82       1.0  0.43120  0.77750  0.90295  1.0000
  C   C83       1.0  0.06880  0.27750  0.59705  1.0000
  C   C84       1.0  0.93120  0.27750  0.90295  1.0000
  C   C85       1.0  0.43120  0.22250  0.40295  1.0000
  C   C86       1.0  0.56880  0.22250  0.09705  1.0000
  C   C87       1.0  0.93120  0.72250  0.40295  1.0000
  C   C88       1.0  0.06880  0.72250  0.09705  1.0000
  C   C89       1.0  0.58210  0.73230  0.63140  1.0000
  C   C90       1.0  0.41790  0.73230  0.86860  1.0000
  C   C91       1.0  0.08210  0.23230  0.63140  1.0000
  C   C92       1.0  0.91790  0.23230  0.86860  1.0000
  C   C93       1.0  0.41790  0.26770  0.36860  1.0000
  C   C94       1.0  0.58210  0.26770  0.13140  1.0000
  C   C95       1.0  0.91790  0.76770  0.36860  1.0000
  C   C96       1.0  0.08210  0.76770  0.13140  1.0000
  H   H49       1.0  0.57160  0.67990  0.63930  1.0000
  H   H50       1.0  0.42840  0.67990  0.86070  1.0000
  H   H51       1.0  0.07160  0.17990  0.63930  1.0000
  H   H52       1.0  0.92840  0.17990  0.86070  1.0000
  H   H53       1.0  0.42840  0.32010  0.36070  1.0000
  H   H54       1.0  0.57160  0.32010  0.13930  1.0000
  H   H55       1.0  0.92840  0.82010  0.36070  1.0000
  H   H56       1.0  0.07160  0.82010  0.13930  1.0000
  C   C97       1.0  0.61028  0.76320  0.65385  1.0000
  C   C98       1.0  0.38972  0.76320  0.84615  1.0000
  C   C99       1.0  0.11028  0.26320  0.65385  1.0000
  C   C100      1.0  0.88972  0.26320  0.84615  1.0000
  C   C101      1.0  0.38972  0.23680  0.34615  1.0000
  C   C102      1.0  0.61028  0.23680  0.15385  1.0000
  C   C103      1.0  0.88972  0.73680  0.34615  1.0000
  C   C104      1.0  0.11028  0.73680  0.15385  1.0000
  H   H57       1.0  0.61950  0.72990  0.67580  1.0000
  H   H58       1.0  0.38050  0.72990  0.82420  1.0000
  H   H59       1.0  0.11950  0.22990  0.67580  1.0000
  H   H60       1.0  0.88050  0.22990  0.82420  1.0000
  H   H61       1.0  0.38050  0.27010  0.32420  1.0000
  H   H62       1.0  0.61950  0.27010  0.17580  1.0000
  H   H63       1.0  0.88050  0.77010  0.32420  1.0000
  H   H64       1.0  0.11950  0.77010  0.17580  1.0000
  C   C105      1.0  0.53837  0.74040  0.57247  1.0000
  C   C106      1.0  0.46163  0.74040  0.92753  1.0000
  C   C107      1.0  0.03837  0.24040  0.57247  1.0000
  C   C108      1.0  0.96163  0.24040  0.92753  1.0000
  C   C109      1.0  0.46163  0.25960  0.42753  1.0000
  C   C110      1.0  0.53837  0.25960  0.07247  1.0000
  C   C111      1.0  0.96163  0.75960  0.42753  1.0000
  C   C112      1.0  0.03837  0.75960  0.07247  1.0000
  C   C113      1.0  0.50789  0.71690  0.59801  1.0000
  C   C114      1.0  0.49211  0.71690  0.90199  1.0000
  C   C115      1.0  0.00789  0.21690  0.59801  1.0000
  C   C116      1.0  0.99211  0.21690  0.90199  1.0000
  C   C117      1.0  0.49211  0.28310  0.40199  1.0000
  C   C118      1.0  0.50789  0.28310  0.09801  1.0000
  C   C119      1.0  0.99211  0.78310  0.40199  1.0000
  C   C120      1.0  0.00789  0.78310  0.09801  1.0000
  C   C121      1.0  0.49270  0.77870  0.62280  1.0000
  C   C122      1.0  0.50730  0.77870  0.87720  1.0000
  C   C123      1.0  0.99270  0.27870  0.62280  1.0000
  C   C124      1.0  0.00730  0.27870  0.87720  1.0000
  C   C125      1.0  0.50730  0.22130  0.37720  1.0000
  C   C126      1.0  0.49270  0.22130  0.12280  1.0000
  C   C127      1.0  0.00730  0.72130  0.37720  1.0000
  C   C128      1.0  0.99270  0.72130  0.12280  1.0000
  H   H65       1.0  0.50140  0.83590  0.62320  1.0000
  H   H66       1.0  0.49860  0.83590  0.87680  1.0000
  H   H67       1.0  0.00140  0.33590  0.62320  1.0000
  H   H68       1.0  0.99860  0.33590  0.87680  1.0000
  H   H69       1.0  0.49860  0.16410  0.37680  1.0000
  H   H70       1.0  0.50140  0.16410  0.12320  1.0000
  H   H71       1.0  0.99860  0.66410  0.37680  1.0000
  H   H72       1.0  0.00140  0.66410  0.12320  1.0000
  C   C129      1.0  0.46513  0.75810  0.64680  1.0000
  C   C130      1.0  0.53487  0.75810  0.85320  1.0000
  C   C131      1.0  0.96513  0.25810  0.64680  1.0000
  C   C132      1.0  0.03487  0.25810  0.85320  1.0000
  C   C133      1.0  0.53487  0.24190  0.35320  1.0000
  C   C134      1.0  0.46513  0.24190  0.14680  1.0000
  C   C135      1.0  0.03487  0.74190  0.35320  1.0000
  C   C136      1.0  0.96513  0.74190  0.14680  1.0000
  H   H73       1.0  0.45550  0.80190  0.66310  1.0000
  H   H74       1.0  0.54450  0.80190  0.83690  1.0000
  H   H75       1.0  0.95550  0.30190  0.66310  1.0000
  H   H76       1.0  0.04450  0.30190  0.83690  1.0000
  H   H77       1.0  0.54450  0.19810  0.33690  1.0000
  H   H78       1.0  0.45550  0.19810  0.16310  1.0000
  H   H79       1.0  0.04450  0.69810  0.33690  1.0000
  H   H80       1.0  0.95550  0.69810  0.16310  1.0000
  C   C137      1.0  0.45109  0.67520  0.64773  1.0000
  C   C138      1.0  0.54891  0.67520  0.85227  1.0000
  C   C139      1.0  0.95109  0.17520  0.64773  1.0000
  C   C140      1.0  0.04891  0.17520  0.85227  1.0000
  C   C141      1.0  0.54891  0.32480  0.35227  1.0000
  C   C142      1.0  0.45109  0.32480  0.14773  1.0000
  C   C143      1.0  0.04891  0.82480  0.35227  1.0000
  C   C144      1.0  0.95109  0.82480  0.14773  1.0000
  C   C145      1.0  0.46811  0.61290  0.62550  1.0000
  C   C146      1.0  0.53189  0.61290  0.87450  1.0000
  C   C147      1.0  0.96811  0.11290  0.62550  1.0000
  C   C148      1.0  0.03189  0.11290  0.87450  1.0000
  C   C149      1.0  0.53189  0.38710  0.37450  1.0000
  C   C150      1.0  0.46811  0.38710  0.12550  1.0000
  C   C151      1.0  0.03189  0.88710  0.37450  1.0000
  C   C152      1.0  0.96811  0.88710  0.12550  1.0000
  H   H81       1.0  0.46170  0.55420  0.62820  1.0000
  H   H82       1.0  0.53830  0.55420  0.87180  1.0000
  H   H83       1.0  0.96170  0.05420  0.62820  1.0000
  H   H84       1.0  0.03830  0.05420  0.87180  1.0000
  H   H85       1.0  0.53830  0.44580  0.37180  1.0000
  H   H86       1.0  0.46170  0.44580  0.12820  1.0000
  H   H87       1.0  0.03830  0.94580  0.37180  1.0000
  H   H88       1.0  0.96170  0.94580  0.12820  1.0000
  C   C153      1.0  0.49437  0.63390  0.59940  1.0000
  C   C154      1.0  0.50563  0.63390  0.90060  1.0000
  C   C155      1.0  0.99437  0.13390  0.59940  1.0000
  C   C156      1.0  0.00563  0.13390  0.90060  1.0000
  C   C157      1.0  0.50563  0.36610  0.40060  1.0000
  C   C158      1.0  0.49437  0.36610  0.09940  1.0000
  C   C159      1.0  0.00563  0.86610  0.40060  1.0000
  C   C160      1.0  0.99437  0.86610  0.09940  1.0000
  H   H89       1.0  0.50320  0.59060  0.58220  1.0000
  H   H90       1.0  0.49680  0.59060  0.91780  1.0000
  H   H91       1.0  0.00320  0.09060  0.58220  1.0000
  H   H92       1.0  0.99680  0.09060  0.91780  1.0000
  H   H93       1.0  0.49680  0.40940  0.41780  1.0000
  H   H94       1.0  0.50320  0.40940  0.08220  1.0000
  H   H95       1.0  0.99680  0.90940  0.41780  1.0000
  H   H96       1.0  0.00320  0.90940  0.08220  1.0000
  C   C161      1.0  0.42061  0.65250  0.67355  1.0000
  C   C162      1.0  0.57939  0.65250  0.82645  1.0000
  C   C163      1.0  0.92061  0.15250  0.67355  1.0000
  C   C164      1.0  0.07939  0.15250  0.82645  1.0000
  C   C165      1.0  0.57939  0.34750  0.32645  1.0000
  C   C166      1.0  0.42061  0.34750  0.17355  1.0000
  C   C167      1.0  0.07939  0.84750  0.32645  1.0000
  C   C168      1.0  0.92061  0.84750  0.17355  1.0000
  C   C169      1.0  0.39978  0.71570  0.69040  1.0000
  C   C170      1.0  0.60022  0.71570  0.80960  1.0000
  C   C171      1.0  0.89978  0.21570  0.69040  1.0000
  C   C172      1.0  0.10022  0.21570  0.80960  1.0000
  C   C173      1.0  0.60022  0.28430  0.30960  1.0000
  C   C174      1.0  0.39978  0.28430  0.19040  1.0000
  C   C175      1.0  0.10022  0.78430  0.30960  1.0000
  C   C176      1.0  0.89978  0.78430  0.19040  1.0000
  H   H97       1.0  0.40450  0.77470  0.68520  1.0000
  H   H98       1.0  0.59550  0.77470  0.81480  1.0000
  H   H99       1.0  0.90450  0.27470  0.68520  1.0000
  H   H100      1.0  0.09550  0.27470  0.81480  1.0000
  H   H101      1.0  0.59550  0.22530  0.31480  1.0000
  H   H102      1.0  0.40450  0.22530  0.18520  1.0000
  H   H103      1.0  0.09550  0.72530  0.31480  1.0000
  H   H104      1.0  0.90450  0.72530  0.18520  1.0000
  C   C177      1.0  0.37173  0.69410  0.71520  1.0000
  C   C178      1.0  0.62827  0.69410  0.78480  1.0000
  C   C179      1.0  0.87173  0.19410  0.71520  1.0000
  C   C180      1.0  0.12827  0.19410  0.78480  1.0000
  C   C181      1.0  0.62827  0.30590  0.28480  1.0000
  C   C182      1.0  0.37173  0.30590  0.21520  1.0000
  C   C183      1.0  0.12827  0.80590  0.28480  1.0000
  C   C184      1.0  0.87173  0.80590  0.21520  1.0000
  H   H105      1.0  0.35830  0.73860  0.72640  1.0000
  H   H106      1.0  0.64170  0.73860  0.77360  1.0000
  H   H107      1.0  0.85830  0.23860  0.72640  1.0000
  H   H108      1.0  0.14170  0.23860  0.77360  1.0000
  H   H109      1.0  0.64170  0.26140  0.27360  1.0000
  H   H110      1.0  0.35830  0.26140  0.22640  1.0000
  H   H111      1.0  0.14170  0.76140  0.27360  1.0000
  H   H112      1.0  0.85830  0.76140  0.22640  1.0000
  C   C185      1.0  0.36393  0.60830  0.72304  1.0000
  C   C186      1.0  0.63607  0.60830  0.77696  1.0000
  C   C187      1.0  0.86393  0.10830  0.72304  1.0000
  C   C188      1.0  0.13607  0.10830  0.77696  1.0000
  C   C189      1.0  0.63607  0.39170  0.27696  1.0000
  C   C190      1.0  0.36393  0.39170  0.22304  1.0000
  C   C191      1.0  0.13607  0.89170  0.27696  1.0000
  C   C192      1.0  0.86393  0.89170  0.22304  1.0000
  C   C193      1.0  0.38470  0.54380  0.70680  1.0000
  C   C194      1.0  0.61530  0.54380  0.79320  1.0000
  C   C195      1.0  0.88470  0.04380  0.70680  1.0000
  C   C196      1.0  0.11530  0.04380  0.79320  1.0000
  C   C197      1.0  0.61530  0.45620  0.29320  1.0000
  C   C198      1.0  0.38470  0.45620  0.20680  1.0000
  C   C199      1.0  0.11530  0.95620  0.29320  1.0000
  C   C200      1.0  0.88470  0.95620  0.20680  1.0000
  H   H113      1.0  0.38040  0.48490  0.71290  1.0000
  H   H114      1.0  0.61960  0.48490  0.78710  1.0000
  H   H115      1.0  0.88040  0.98490  0.71290  1.0000
  H   H116      1.0  0.11960  0.98490  0.78710  1.0000
  H   H117      1.0  0.61960  0.51510  0.28710  1.0000
  H   H118      1.0  0.38040  0.51510  0.21290  1.0000
  H   H119      1.0  0.11960  0.01510  0.28710  1.0000
  H   H120      1.0  0.88040  0.01510  0.21290  1.0000
  C   C201      1.0  0.41220  0.56600  0.68110  1.0000
  C   C202      1.0  0.58780  0.56600  0.81890  1.0000
  C   C203      1.0  0.91220  0.06600  0.68110  1.0000
  C   C204      1.0  0.08780  0.06600  0.81890  1.0000
  C   C205      1.0  0.58780  0.43400  0.31890  1.0000
  C   C206      1.0  0.41220  0.43400  0.18110  1.0000
  C   C207      1.0  0.08780  0.93400  0.31890  1.0000
  C   C208      1.0  0.91220  0.93400  0.18110  1.0000
  H   H121      1.0  0.42500  0.52150  0.66880  1.0000
  H   H122      1.0  0.57500  0.52150  0.83120  1.0000
  H   H123      1.0  0.92500  0.02150  0.66880  1.0000
  H   H124      1.0  0.07500  0.02150  0.83120  1.0000
  H   H125      1.0  0.57500  0.47850  0.33120  1.0000
  H   H126      1.0  0.42500  0.47850  0.16880  1.0000
  H   H127      1.0  0.07500  0.97850  0.33120  1.0000
  H   H128      1.0  0.92500  0.97850  0.16880  1.0000
  C   C209      1.0  0.33388  0.58470  0.74940  1.0000
  C   C210      1.0  0.66612  0.58470  0.75060  1.0000
  C   C211      1.0  0.83388  0.08470  0.74940  1.0000
  C   C212      1.0  0.16612  0.08470  0.75060  1.0000
  C   C213      1.0  0.66612  0.41530  0.25060  1.0000
  C   C214      1.0  0.33388  0.41530  0.24940  1.0000
  C   C215      1.0  0.16612  0.91530  0.25060  1.0000
  C   C216      1.0  0.83388  0.91530  0.24940  1.0000
  C   C217      1.0  0.53859  0.72850  0.53111  1.0000
  C   C218      1.0  0.46141  0.72850  0.96889  1.0000
  C   C219      1.0  0.03859  0.22850  0.53111  1.0000
  C   C220      1.0  0.96141  0.22850  0.96889  1.0000
  C   C221      1.0  0.46141  0.27150  0.46889  1.0000
  C   C222      1.0  0.53859  0.27150  0.03111  1.0000
  C   C223      1.0  0.96141  0.77150  0.46889  1.0000
  C   C224      1.0  0.03859  0.77150  0.03111  1.0000
  C   C225      1.0  0.56946  0.74860  0.50554  1.0000
  C   C226      1.0  0.43054  0.74860  0.99446  1.0000
  C   C227      1.0  0.06946  0.24860  0.50554  1.0000
  C   C228      1.0  0.93054  0.24860  0.99446  1.0000
  C   C229      1.0  0.43054  0.25140  0.49446  1.0000
  C   C230      1.0  0.56946  0.25140  0.00554  1.0000
  C   C231      1.0  0.93054  0.75140  0.49446  1.0000
  C   C232      1.0  0.06946  0.75140  0.00554  1.0000
  C   C233      1.0  0.56648  0.81320  0.47492  1.0000
  C   C234      1.0  0.43352  0.81320  0.02508  1.0000
  C   C235      1.0  0.06648  0.31320  0.47492  1.0000
  C   C236      1.0  0.93352  0.31320  0.02508  1.0000
  C   C237      1.0  0.43352  0.18680  0.52508  1.0000
  C   C238      1.0  0.56648  0.18680  0.97492  1.0000
  C   C239      1.0  0.93352  0.68680  0.52508  1.0000
  C   C240      1.0  0.06648  0.68680  0.97492  1.0000
  H   H129      1.0  0.54520  0.84140  0.47000  1.0000
  H   H130      1.0  0.45480  0.84140  0.03000  1.0000
  H   H131      1.0  0.04520  0.34140  0.47000  1.0000
  H   H132      1.0  0.95480  0.34140  0.03000  1.0000
  H   H133      1.0  0.45480  0.15860  0.53000  1.0000
  H   H134      1.0  0.54520  0.15860  0.97000  1.0000
  H   H135      1.0  0.95480  0.65860  0.53000  1.0000
  H   H136      1.0  0.04520  0.65860  0.97000  1.0000
  C   C241      1.0  0.59513  0.83590  0.45171  1.0000
  C   C242      1.0  0.40487  0.83590  0.04829  1.0000
  C   C243      1.0  0.09513  0.33590  0.45171  1.0000
  C   C244      1.0  0.90487  0.33590  0.04829  1.0000
  C   C245      1.0  0.40487  0.16410  0.54829  1.0000
  C   C246      1.0  0.59513  0.16410  0.95171  1.0000
  C   C247      1.0  0.90487  0.66410  0.54829  1.0000
  C   C248      1.0  0.09513  0.66410  0.95171  1.0000
  H   H137      1.0  0.59300  0.88170  0.43270  1.0000
  H   H138      1.0  0.40700  0.88170  0.06730  1.0000
  H   H139      1.0  0.09300  0.38170  0.43270  1.0000
  H   H140      1.0  0.90700  0.38170  0.06730  1.0000
  H   H141      1.0  0.40700  0.11830  0.56730  1.0000
  H   H142      1.0  0.59300  0.11830  0.93270  1.0000
  H   H143      1.0  0.90700  0.61830  0.56730  1.0000
  H   H144      1.0  0.09300  0.61830  0.93270  1.0000
  C   C249      1.0  0.62663  0.79250  0.45603  1.0000
  C   C250      1.0  0.37337  0.79250  0.04397  1.0000
  C   C251      1.0  0.12663  0.29250  0.45603  1.0000
  C   C252      1.0  0.87337  0.29250  0.04397  1.0000
  C   C253      1.0  0.37337  0.20750  0.54397  1.0000
  C   C254      1.0  0.62663  0.20750  0.95603  1.0000
  C   C255      1.0  0.87337  0.70750  0.54397  1.0000
  C   C256      1.0  0.12663  0.70750  0.95603  1.0000
  C   C257      1.0  0.62922  0.72580  0.48595  1.0000
  C   C258      1.0  0.37078  0.72580  0.01405  1.0000
  C   C259      1.0  0.12922  0.22580  0.48595  1.0000
  C   C260      1.0  0.87078  0.22580  0.01405  1.0000
  C   C261      1.0  0.37078  0.27420  0.51405  1.0000
  C   C262      1.0  0.62922  0.27420  0.98595  1.0000
  C   C263      1.0  0.87078  0.77420  0.51405  1.0000
  C   C264      1.0  0.12922  0.77420  0.98595  1.0000
  H   H145      1.0  0.65000  0.69470  0.48920  1.0000
  H   H146      1.0  0.35000  0.69470  0.01080  1.0000
  H   H147      1.0  0.15000  0.19470  0.48920  1.0000
  H   H148      1.0  0.85000  0.19470  0.01080  1.0000
  H   H149      1.0  0.35000  0.30530  0.51080  1.0000
  H   H150      1.0  0.65000  0.30530  0.98920  1.0000
  H   H151      1.0  0.85000  0.80530  0.51080  1.0000
  H   H152      1.0  0.15000  0.80530  0.98920  1.0000
  C   C265      1.0  0.60124  0.70480  0.51106  1.0000
  C   C266      1.0  0.39876  0.70480  0.98894  1.0000
  C   C267      1.0  0.10124  0.20480  0.51106  1.0000
  C   C268      1.0  0.89876  0.20480  0.98894  1.0000
  C   C269      1.0  0.39876  0.29520  0.48894  1.0000
  C   C270      1.0  0.60124  0.29520  0.01106  1.0000
  C   C271      1.0  0.89876  0.79520  0.48894  1.0000
  C   C272      1.0  0.10124  0.79520  0.01106  1.0000
  H   H153      1.0  0.60380  0.66170  0.53140  1.0000
  H   H154      1.0  0.39620  0.66170  0.96860  1.0000
  H   H155      1.0  0.10380  0.16170  0.53140  1.0000
  H   H156      1.0  0.89620  0.16170  0.96860  1.0000
  H   H157      1.0  0.39620  0.33830  0.46860  1.0000
  H   H158      1.0  0.60380  0.33830  0.03140  1.0000
  H   H159      1.0  0.89620  0.83830  0.46860  1.0000
  H   H160      1.0  0.10380  0.83830  0.03140  1.0000
  C   C273      1.0  0.65695  0.81780  0.43090  1.0000
  C   C274      1.0  0.34305  0.81780  0.06910  1.0000
  C   C275      1.0  0.15695  0.31780  0.43090  1.0000
  C   C276      1.0  0.84305  0.31780  0.06910  1.0000
  C   C277      1.0  0.34305  0.18220  0.56910  1.0000
  C   C278      1.0  0.65695  0.18220  0.93090  1.0000
  C   C279      1.0  0.84305  0.68220  0.56910  1.0000
  C   C280      1.0  0.15695  0.68220  0.93090  1.0000
  C   C281      1.0  0.66277  0.90460  0.42140  1.0000
  C   C282      1.0  0.33723  0.90460  0.07860  1.0000
  C   C283      1.0  0.16277  0.40460  0.42140  1.0000
  C   C284      1.0  0.83723  0.40460  0.07860  1.0000
  C   C285      1.0  0.33723  0.09540  0.57860  1.0000
  C   C286      1.0  0.66277  0.09540  0.92140  1.0000
  C   C287      1.0  0.83723  0.59540  0.57860  1.0000
  C   C288      1.0  0.16277  0.59540  0.92140  1.0000
  H   H161      1.0  0.64760  0.94680  0.43150  1.0000
  H   H162      1.0  0.35240  0.94680  0.06850  1.0000
  H   H163      1.0  0.14760  0.44680  0.43150  1.0000
  H   H164      1.0  0.85240  0.44680  0.06850  1.0000
  H   H165      1.0  0.35240  0.05320  0.56850  1.0000
  H   H166      1.0  0.64760  0.05320  0.93150  1.0000
  H   H167      1.0  0.85240  0.55320  0.56850  1.0000
  H   H168      1.0  0.14760  0.55320  0.93150  1.0000
  C   C289      1.0  0.69036  0.93240  0.39750  1.0000
  C   C290      1.0  0.30964  0.93240  0.10250  1.0000
  C   C291      1.0  0.19036  0.43240  0.39750  1.0000
  C   C292      1.0  0.80964  0.43240  0.10250  1.0000
  C   C293      1.0  0.30964  0.06760  0.60250  1.0000
  C   C294      1.0  0.69036  0.06760  0.89750  1.0000
  C   C295      1.0  0.80964  0.56760  0.60250  1.0000
  C   C296      1.0  0.19036  0.56760  0.89750  1.0000
  H   H169      1.0  0.69420  0.99190  0.39270  1.0000
  H   H170      1.0  0.30580  0.99190  0.10730  1.0000
  H   H171      1.0  0.19420  0.49190  0.39270  1.0000
  H   H172      1.0  0.80580  0.49190  0.10730  1.0000
  H   H173      1.0  0.30580  0.00810  0.60730  1.0000
  H   H174      1.0  0.69420  0.00810  0.89270  1.0000
  H   H175      1.0  0.80580  0.50810  0.60730  1.0000
  H   H176      1.0  0.19420  0.50810  0.89270  1.0000
  C   C297      1.0  0.71203  0.86820  0.38090  1.0000
  C   C298      1.0  0.28797  0.86820  0.11910  1.0000
  C   C299      1.0  0.21203  0.36820  0.38090  1.0000
  C   C300      1.0  0.78797  0.36820  0.11910  1.0000
  C   C301      1.0  0.28797  0.13180  0.61910  1.0000
  C   C302      1.0  0.71203  0.13180  0.88090  1.0000
  C   C303      1.0  0.78797  0.63180  0.61910  1.0000
  C   C304      1.0  0.21203  0.63180  0.88090  1.0000
  C   C305      1.0  0.70709  0.78180  0.39022  1.0000
  C   C306      1.0  0.29291  0.78180  0.10978  1.0000
  C   C307      1.0  0.20709  0.28180  0.39022  1.0000
  C   C308      1.0  0.79291  0.28180  0.10978  1.0000
  C   C309      1.0  0.29291  0.21820  0.60978  1.0000
  C   C310      1.0  0.70709  0.21820  0.89022  1.0000
  C   C311      1.0  0.79291  0.71820  0.60978  1.0000
  C   C312      1.0  0.20709  0.71820  0.89022  1.0000
  H   H177      1.0  0.72200  0.73960  0.37960  1.0000
  H   H178      1.0  0.27800  0.73960  0.12040  1.0000
  H   H179      1.0  0.22200  0.23960  0.37960  1.0000
  H   H180      1.0  0.77800  0.23960  0.12040  1.0000
  H   H181      1.0  0.27800  0.26040  0.62040  1.0000
  H   H182      1.0  0.72200  0.26040  0.87960  1.0000
  H   H183      1.0  0.77800  0.76040  0.62040  1.0000
  H   H184      1.0  0.22200  0.76040  0.87960  1.0000
  C   C313      1.0  0.67974  0.75510  0.41565  1.0000
  C   C314      1.0  0.32026  0.75510  0.08435  1.0000
  C   C315      1.0  0.17974  0.25510  0.41565  1.0000
  C   C316      1.0  0.82026  0.25510  0.08435  1.0000
  C   C317      1.0  0.32026  0.24490  0.58435  1.0000
  C   C318      1.0  0.67974  0.24490  0.91565  1.0000
  C   C319      1.0  0.82026  0.74490  0.58435  1.0000
  C   C320      1.0  0.17974  0.74490  0.91565  1.0000
  H   H185      1.0  0.67690  0.69590  0.42220  1.0000
  H   H186      1.0  0.32310  0.69590  0.07780  1.0000
  H   H187      1.0  0.17690  0.19590  0.42220  1.0000
  H   H188      1.0  0.82310  0.19590  0.07780  1.0000
  H   H189      1.0  0.32310  0.30410  0.57780  1.0000
  H   H190      1.0  0.67690  0.30410  0.92220  1.0000
  H   H191      1.0  0.82310  0.80410  0.57780  1.0000
  H   H192      1.0  0.17690  0.80410  0.92220  1.0000
  C   C321      1.0  0.74017  0.89650  0.35259  1.0000
  C   C322      1.0  0.25983  0.89650  0.14741  1.0000
  C   C323      1.0  0.24017  0.39650  0.35259  1.0000
  C   C324      1.0  0.75983  0.39650  0.14741  1.0000
  C   C325      1.0  0.25983  0.10350  0.64741  1.0000
  C   C326      1.0  0.74017  0.10350  0.85259  1.0000
  C   C327      1.0  0.75983  0.60350  0.64741  1.0000
  C   C328      1.0  0.24017  0.60350  0.85259  1.0000
  C   C329      1.0  0.50745  0.69780  0.50655  1.0000
  C   C330      1.0  0.49255  0.69780  0.99345  1.0000
  C   C331      1.0  0.00745  0.19780  0.50655  1.0000
  C   C332      1.0  0.99255  0.19780  0.99345  1.0000
  C   C333      1.0  0.49255  0.30220  0.49345  1.0000
  C   C334      1.0  0.50745  0.30220  0.00655  1.0000
  C   C335      1.0  0.99255  0.80220  0.49345  1.0000
  C   C336      1.0  0.00745  0.80220  0.00655  1.0000
  C   C337      1.0  0.47526  0.73950  0.50849  1.0000
  C   C338      1.0  0.52474  0.73950  0.99151  1.0000
  C   C339      1.0  0.97526  0.23950  0.50849  1.0000
  C   C340      1.0  0.02474  0.23950  0.99151  1.0000
  C   C341      1.0  0.52474  0.26050  0.49151  1.0000
  C   C342      1.0  0.47526  0.26050  0.00849  1.0000
  C   C343      1.0  0.02474  0.76050  0.49151  1.0000
  C   C344      1.0  0.97526  0.76050  0.00849  1.0000
  H   H193      1.0  0.47260  0.78690  0.52640  1.0000
  H   H194      1.0  0.52740  0.78690  0.97360  1.0000
  H   H195      1.0  0.97260  0.28690  0.52640  1.0000
  H   H196      1.0  0.02740  0.28690  0.97360  1.0000
  H   H197      1.0  0.52740  0.21310  0.47360  1.0000
  H   H198      1.0  0.47260  0.21310  0.02640  1.0000
  H   H199      1.0  0.02740  0.71310  0.47360  1.0000
  H   H200      1.0  0.97260  0.71310  0.02640  1.0000
  C   C345      1.0  0.44731  0.71150  0.48406  1.0000
  C   C346      1.0  0.55269  0.71150  0.01594  1.0000
  C   C347      1.0  0.94731  0.21150  0.48406  1.0000
  C   C348      1.0  0.05269  0.21150  0.01594  1.0000
  C   C349      1.0  0.55269  0.28850  0.51594  1.0000
  C   C350      1.0  0.44731  0.28850  0.98406  1.0000
  C   C351      1.0  0.05269  0.78850  0.51594  1.0000
  C   C352      1.0  0.94731  0.78850  0.98406  1.0000
  H   H201      1.0  0.42640  0.74230  0.48500  1.0000
  H   H202      1.0  0.57360  0.74230  0.01500  1.0000
  H   H203      1.0  0.92640  0.24230  0.48500  1.0000
  H   H204      1.0  0.07360  0.24230  0.01500  1.0000
  H   H205      1.0  0.57360  0.25770  0.51500  1.0000
  H   H206      1.0  0.42640  0.25770  0.98500  1.0000
  H   H207      1.0  0.07360  0.75770  0.51500  1.0000
  H   H208      1.0  0.92640  0.75770  0.98500  1.0000
  C   C353      1.0  0.44946  0.63850  0.45810  1.0000
  C   C354      1.0  0.55054  0.63850  0.04190  1.0000
  C   C355      1.0  0.94946  0.13850  0.45810  1.0000
  C   C356      1.0  0.05054  0.13850  0.04190  1.0000
  C   C357      1.0  0.55054  0.36150  0.54190  1.0000
  C   C358      1.0  0.44946  0.36150  0.95810  1.0000
  C   C359      1.0  0.05054  0.86150  0.54190  1.0000
  C   C360      1.0  0.94946  0.86150  0.95810  1.0000
  C   C361      1.0  0.48184  0.59610  0.45630  1.0000
  C   C362      1.0  0.51816  0.59610  0.04370  1.0000
  C   C363      1.0  0.98184  0.09610  0.45630  1.0000
  C   C364      1.0  0.01816  0.09610  0.04370  1.0000
  C   C365      1.0  0.51816  0.40390  0.54370  1.0000
  C   C366      1.0  0.48184  0.40390  0.95630  1.0000
  C   C367      1.0  0.01816  0.90390  0.54370  1.0000
  C   C368      1.0  0.98184  0.90390  0.95630  1.0000
  H   H209      1.0  0.48440  0.54770  0.43900  1.0000
  H   H210      1.0  0.51560  0.54770  0.06100  1.0000
  H   H211      1.0  0.98440  0.04770  0.43900  1.0000
  H   H212      1.0  0.01560  0.04770  0.06100  1.0000
  H   H213      1.0  0.51560  0.45230  0.56100  1.0000
  H   H214      1.0  0.48440  0.45230  0.93900  1.0000
  H   H215      1.0  0.01560  0.95230  0.56100  1.0000
  H   H216      1.0  0.98440  0.95230  0.93900  1.0000
  C   C369      1.0  0.51004  0.62580  0.48002  1.0000
  C   C370      1.0  0.48996  0.62580  0.01998  1.0000
  C   C371      1.0  0.01004  0.12580  0.48002  1.0000
  C   C372      1.0  0.98996  0.12580  0.01998  1.0000
  C   C373      1.0  0.48996  0.37420  0.51998  1.0000
  C   C374      1.0  0.51004  0.37420  0.98002  1.0000
  C   C375      1.0  0.98996  0.87420  0.51998  1.0000
  C   C376      1.0  0.01004  0.87420  0.98002  1.0000
  H   H217      1.0  0.53130  0.59680  0.47820  1.0000
  H   H218      1.0  0.46870  0.59680  0.02180  1.0000
  H   H219      1.0  0.03130  0.09680  0.47820  1.0000
  H   H220      1.0  0.96870  0.09680  0.02180  1.0000
  H   H221      1.0  0.46870  0.40320  0.52180  1.0000
  H   H222      1.0  0.53130  0.40320  0.97820  1.0000
  H   H223      1.0  0.96870  0.90320  0.52180  1.0000
  H   H224      1.0  0.03130  0.90320  0.97820  1.0000
  C   C377      1.0  0.41887  0.60550  0.43228  1.0000
  C   C378      1.0  0.58113  0.60550  0.06772  1.0000
  C   C379      1.0  0.91887  0.10550  0.43228  1.0000
  C   C380      1.0  0.08113  0.10550  0.06772  1.0000
  C   C381      1.0  0.58113  0.39450  0.56772  1.0000
  C   C382      1.0  0.41887  0.39450  0.93228  1.0000
  C   C383      1.0  0.08113  0.89450  0.56772  1.0000
  C   C384      1.0  0.91887  0.89450  0.93228  1.0000
  C   C385      1.0  0.39504  0.66490  0.41548  1.0000
  C   C386      1.0  0.60496  0.66490  0.08452  1.0000
  C   C387      1.0  0.89504  0.16490  0.41548  1.0000
  C   C388      1.0  0.10496  0.16490  0.08452  1.0000
  C   C389      1.0  0.60496  0.33510  0.58452  1.0000
  C   C390      1.0  0.39504  0.33510  0.91548  1.0000
  C   C391      1.0  0.10496  0.83510  0.58452  1.0000
  C   C392      1.0  0.89504  0.83510  0.91548  1.0000
  H   H225      1.0  0.39800  0.72480  0.42030  1.0000
  H   H226      1.0  0.60200  0.72480  0.07970  1.0000
  H   H227      1.0  0.89800  0.22480  0.42030  1.0000
  H   H228      1.0  0.10200  0.22480  0.07970  1.0000
  H   H229      1.0  0.60200  0.27520  0.57970  1.0000
  H   H230      1.0  0.39800  0.27520  0.92030  1.0000
  H   H231      1.0  0.10200  0.77520  0.57970  1.0000
  H   H232      1.0  0.89800  0.77520  0.92030  1.0000
  C   C393      1.0  0.36678  0.63560  0.39147  1.0000
  C   C394      1.0  0.63322  0.63560  0.10853  1.0000
  C   C395      1.0  0.86678  0.13560  0.39147  1.0000
  C   C396      1.0  0.13322  0.13560  0.10853  1.0000
  C   C397      1.0  0.63322  0.36440  0.60853  1.0000
  C   C398      1.0  0.36678  0.36440  0.89147  1.0000
  C   C399      1.0  0.13322  0.86440  0.60853  1.0000
  C   C400      1.0  0.86678  0.86440  0.89147  1.0000
  H   H233      1.0  0.35080  0.67600  0.38040  1.0000
  H   H234      1.0  0.64920  0.67600  0.11960  1.0000
  H   H235      1.0  0.85080  0.17600  0.38040  1.0000
  H   H236      1.0  0.14920  0.17600  0.11960  1.0000
  H   H237      1.0  0.64920  0.32400  0.61960  1.0000
  H   H238      1.0  0.35080  0.32400  0.88040  1.0000
  H   H239      1.0  0.14920  0.82400  0.61960  1.0000
  H   H240      1.0  0.85080  0.82400  0.88040  1.0000
  C   C401      1.0  0.36215  0.54850  0.38393  1.0000
  C   C402      1.0  0.63785  0.54850  0.11607  1.0000
  C   C403      1.0  0.86215  0.04850  0.38393  1.0000
  C   C404      1.0  0.13785  0.04850  0.11607  1.0000
  C   C405      1.0  0.63785  0.45150  0.61607  1.0000
  C   C406      1.0  0.36215  0.45150  0.88393  1.0000
  C   C407      1.0  0.13785  0.95150  0.61607  1.0000
  C   C408      1.0  0.86215  0.95150  0.88393  1.0000
  C   C409      1.0  0.38543  0.48650  0.40157  1.0000
  C   C410      1.0  0.61457  0.48650  0.09843  1.0000
  C   C411      1.0  0.88543  0.98650  0.40157  1.0000
  C   C412      1.0  0.11457  0.98650  0.09843  1.0000
  C   C413      1.0  0.61457  0.51350  0.59843  1.0000
  C   C414      1.0  0.38543  0.51350  0.90157  1.0000
  C   C415      1.0  0.11457  0.01350  0.59843  1.0000
  C   C416      1.0  0.88543  0.01350  0.90157  1.0000
  H   H241      1.0  0.38190  0.42660  0.39740  1.0000
  H   H242      1.0  0.61810  0.42660  0.10260  1.0000
  H   H243      1.0  0.88190  0.92660  0.39740  1.0000
  H   H244      1.0  0.11810  0.92660  0.10260  1.0000
  H   H245      1.0  0.61810  0.57340  0.60260  1.0000
  H   H246      1.0  0.38190  0.57340  0.89740  1.0000
  H   H247      1.0  0.11810  0.07340  0.60260  1.0000
  H   H248      1.0  0.88190  0.07340  0.89740  1.0000
  C   C417      1.0  0.41416  0.51680  0.42559  1.0000
  C   C418      1.0  0.58584  0.51680  0.07441  1.0000
  C   C419      1.0  0.91416  0.01680  0.42559  1.0000
  C   C420      1.0  0.08584  0.01680  0.07441  1.0000
  C   C421      1.0  0.58584  0.48320  0.57441  1.0000
  C   C422      1.0  0.41416  0.48320  0.92559  1.0000
  C   C423      1.0  0.08584  0.98320  0.57441  1.0000
  C   C424      1.0  0.91416  0.98320  0.92559  1.0000
  H   H249      1.0  0.43010  0.47670  0.43700  1.0000
  H   H250      1.0  0.56990  0.47670  0.06300  1.0000
  H   H251      1.0  0.93010  0.97670  0.43700  1.0000
  H   H252      1.0  0.06990  0.97670  0.06300  1.0000
  H   H253      1.0  0.56990  0.52330  0.56300  1.0000
  H   H254      1.0  0.43010  0.52330  0.93700  1.0000
  H   H255      1.0  0.06990  0.02330  0.56300  1.0000
  H   H256      1.0  0.93010  0.02330  0.93700  1.0000
  C   C425      1.0  0.33293  0.51620  0.35553  1.0000
  C   C426      1.0  0.66707  0.51620  0.14447  1.0000
  C   C427      1.0  0.83293  0.01620  0.35553  1.0000
  C   C428      1.0  0.16707  0.01620  0.14447  1.0000
  C   C429      1.0  0.66707  0.48380  0.64447  1.0000
  C   C430      1.0  0.33293  0.48380  0.85553  1.0000
  C   C431      1.0  0.16707  0.98380  0.64447  1.0000
  C   C432      1.0  0.83293  0.98380  0.85553  1.0000
