data_image0
_chemical_formula_structural       Zn4O32C216H132
_chemical_formula_sum              "Zn4 O32 C216 H132"
_cell_length_a       10.1691
_cell_length_b       10.1917
_cell_length_c       42.7903
_cell_angle_alpha    90
_cell_angle_beta     92.925
_cell_angle_gamma    90

_space_group_name_H-M_alt    "P 1"
_space_group_IT_number       1

loop_
  _space_group_symop_operation_xyz
  'x, y, z'

loop_
  _atom_site_type_symbol
  _atom_site_label
  _atom_site_symmetry_multiplicity
  _atom_site_fract_x
  _atom_site_fract_y
  _atom_site_fract_z
  _atom_site_occupancy
  Zn  Zn1       1.0  0.69681  0.17170  0.50542  1.0000
  Zn  Zn2       1.0  0.30319  0.67170  0.99458  1.0000
  Zn  Zn3       1.0  0.30319  0.82830  0.49458  1.0000
  Zn  Zn4       1.0  0.69681  0.32830  0.00542  1.0000
  O   O1        1.0  0.66960  0.48060  0.03444  1.0000
  O   O2        1.0  0.33040  0.98060  0.46556  1.0000
  O   O3        1.0  0.33040  0.51940  0.96556  1.0000
  O   O4        1.0  0.66960  0.01940  0.53444  1.0000
  O   O5        1.0  0.49170  0.35790  0.03015  1.0000
  O   O6        1.0  0.50830  0.85790  0.46985  1.0000
  O   O7        1.0  0.50830  0.64210  0.96985  1.0000
  O   O8        1.0  0.49170  0.14210  0.53015  1.0000
  O   O9        1.0  0.60360  0.26500  0.47174  1.0000
  O   O10       1.0  0.39640  0.76500  0.02826  1.0000
  O   O11       1.0  0.39640  0.73500  0.52826  1.0000
  O   O12       1.0  0.60360  0.23500  0.97174  1.0000
  O   O13       1.0  0.65080  0.46560  0.49008  1.0000
  O   O14       1.0  0.34920  0.96560  0.00992  1.0000
  O   O15       1.0  0.34920  0.53440  0.50992  1.0000
  O   O16       1.0  0.65080  0.03440  0.99008  1.0000
  O   O17       1.0  0.93720  0.10820  0.02008  1.0000
  O   O18       1.0  0.06280  0.60820  0.47992  1.0000
  O   O19       1.0  0.06280  0.89180  0.97992  1.0000
  O   O20       1.0  0.93720  0.39180  0.52008  1.0000
  O   O21       1.0  0.77490  0.22240  0.04114  1.0000
  O   O22       1.0  0.22510  0.72240  0.45886  1.0000
  O   O23       1.0  0.22510  0.77760  0.95886  1.0000
  O   O24       1.0  0.77490  0.27760  0.54114  1.0000
  O   O25       1.0  0.84430  0.10150  0.48036  1.0000
  O   O26       1.0  0.15570  0.60150  0.01964  1.0000
  O   O27       1.0  0.15570  0.89850  0.51964  1.0000
  O   O28       1.0  0.84430  0.39850  0.98036  1.0000
  O   O29       1.0  0.90590  0.30330  0.46671  1.0000
  O   O30       1.0  0.09410  0.80330  0.03329  1.0000
  O   O31       1.0  0.09410  0.69670  0.53329  1.0000
  O   O32       1.0  0.90590  0.19670  0.96671  1.0000
  C   C1        1.0  0.56080  0.44240  0.04434  1.0000
  C   C2        1.0  0.43920  0.94240  0.45566  1.0000
  C   C3        1.0  0.43920  0.55760  0.95566  1.0000
  C   C4        1.0  0.56080  0.05760  0.54434  1.0000
  C   C5        1.0  0.52070  0.48790  0.07586  1.0000
  C   C6        1.0  0.47930  0.98790  0.42414  1.0000
  C   C7        1.0  0.47930  0.51210  0.92414  1.0000
  C   C8        1.0  0.52070  0.01210  0.57586  1.0000
  C   C9        1.0  0.39210  0.48410  0.08370  1.0000
  C   C10       1.0  0.60790  0.98410  0.41630  1.0000
  C   C11       1.0  0.60790  0.51590  0.91630  1.0000
  C   C12       1.0  0.39210  0.01590  0.58370  1.0000
  C   C13       1.0  0.35780  0.51940  0.11381  1.0000
  C   C14       1.0  0.64220  0.01940  0.38619  1.0000
  C   C15       1.0  0.64220  0.48060  0.88619  1.0000
  C   C16       1.0  0.35780  0.98060  0.61381  1.0000
  C   C17       1.0  0.45170  0.55820  0.13663  1.0000
  C   C18       1.0  0.54830  0.05820  0.36337  1.0000
  C   C19       1.0  0.54830  0.44180  0.86337  1.0000
  C   C20       1.0  0.45170  0.94180  0.63663  1.0000
  C   C21       1.0  0.58250  0.55840  0.12778  1.0000
  C   C22       1.0  0.41750  0.05840  0.37222  1.0000
  C   C23       1.0  0.41750  0.44160  0.87222  1.0000
  C   C24       1.0  0.58250  0.94160  0.62778  1.0000
  C   C25       1.0  0.61730  0.52620  0.09830  1.0000
  C   C26       1.0  0.38270  0.02620  0.40170  1.0000
  C   C27       1.0  0.38270  0.47380  0.90170  1.0000
  C   C28       1.0  0.61730  0.97380  0.59830  1.0000
  C   C29       1.0  0.41460  0.59460  0.16870  1.0000
  C   C30       1.0  0.58540  0.09460  0.33130  1.0000
  C   C31       1.0  0.58540  0.40540  0.83130  1.0000
  C   C32       1.0  0.41460  0.90540  0.66870  1.0000
  C   C33       1.0  0.28810  0.58180  0.17822  1.0000
  C   C34       1.0  0.71190  0.08180  0.32178  1.0000
  C   C35       1.0  0.71190  0.41820  0.82178  1.0000
  C   C36       1.0  0.28810  0.91820  0.67822  1.0000
  C   C37       1.0  0.24820  0.62550  0.20720  1.0000
  C   C38       1.0  0.75180  0.12550  0.29280  1.0000
  C   C39       1.0  0.75180  0.37450  0.79280  1.0000
  C   C40       1.0  0.24820  0.87450  0.70720  1.0000
  C   C41       1.0  0.34040  0.68510  0.22797  1.0000
  C   C42       1.0  0.65960  0.18510  0.27203  1.0000
  C   C43       1.0  0.65960  0.31490  0.77203  1.0000
  C   C44       1.0  0.34040  0.81490  0.72797  1.0000
  C   C45       1.0  0.47140  0.68900  0.21977  1.0000
  C   C46       1.0  0.52860  0.18900  0.28023  1.0000
  C   C47       1.0  0.52860  0.31100  0.78023  1.0000
  C   C48       1.0  0.47140  0.81100  0.71977  1.0000
  C   C49       1.0  0.50680  0.64530  0.19070  1.0000
  C   C50       1.0  0.49320  0.14530  0.30930  1.0000
  C   C51       1.0  0.49320  0.35470  0.80930  1.0000
  C   C52       1.0  0.50680  0.85470  0.69070  1.0000
  C   C53       1.0  0.29830  0.74710  0.25749  1.0000
  C   C54       1.0  0.70170  0.24710  0.24251  1.0000
  C   C55       1.0  0.70170  0.25290  0.74251  1.0000
  C   C56       1.0  0.29830  0.75290  0.75749  1.0000
  C   C57       1.0  0.36090  0.69500  0.28707  1.0000
  C   C58       1.0  0.63910  0.19500  0.21293  1.0000
  C   C59       1.0  0.63910  0.30500  0.71293  1.0000
  C   C60       1.0  0.36090  0.80500  0.78707  1.0000
  C   C61       1.0  0.41770  0.77610  0.30970  1.0000
  C   C62       1.0  0.58230  0.27610  0.19030  1.0000
  C   C63       1.0  0.58230  0.22390  0.69030  1.0000
  C   C64       1.0  0.41770  0.72390  0.80970  1.0000
  C   C65       1.0  0.47260  0.72580  0.33767  1.0000
  C   C66       1.0  0.52740  0.22580  0.16233  1.0000
  C   C67       1.0  0.52740  0.27420  0.66233  1.0000
  C   C68       1.0  0.47260  0.77420  0.83767  1.0000
  C   C69       1.0  0.46670  0.59190  0.34489  1.0000
  C   C70       1.0  0.53330  0.09190  0.15511  1.0000
  C   C71       1.0  0.53330  0.40810  0.65511  1.0000
  C   C72       1.0  0.46670  0.90810  0.84489  1.0000
  C   C73       1.0  0.41450  0.50790  0.32129  1.0000
  C   C74       1.0  0.58550  0.00790  0.17871  1.0000
  C   C75       1.0  0.58550  0.49210  0.67871  1.0000
  C   C76       1.0  0.41450  0.99210  0.82129  1.0000
  C   C77       1.0  0.36440  0.55830  0.29261  1.0000
  C   C78       1.0  0.63560  0.05830  0.20739  1.0000
  C   C79       1.0  0.63560  0.44170  0.70739  1.0000
  C   C80       1.0  0.36440  0.94170  0.79261  1.0000
  C   C81       1.0  0.51460  0.54090  0.37569  1.0000
  C   C82       1.0  0.48540  0.04090  0.12431  1.0000
  C   C83       1.0  0.48540  0.45910  0.62431  1.0000
  C   C84       1.0  0.51460  0.95910  0.87569  1.0000
  C   C85       1.0  0.51770  0.62360  0.40233  1.0000
  C   C86       1.0  0.48230  0.12360  0.09767  1.0000
  C   C87       1.0  0.48230  0.37640  0.59767  1.0000
  C   C88       1.0  0.51770  0.87640  0.90233  1.0000
  C   C89       1.0  0.55240  0.57610  0.43160  1.0000
  C   C90       1.0  0.44760  0.07610  0.06840  1.0000
  C   C91       1.0  0.44760  0.42390  0.56840  1.0000
  C   C92       1.0  0.55240  0.92390  0.93160  1.0000
  C   C93       1.0  0.58290  0.44200  0.43631  1.0000
  C   C94       1.0  0.41710  0.94200  0.06369  1.0000
  C   C95       1.0  0.41710  0.55800  0.56369  1.0000
  C   C96       1.0  0.58290  0.05800  0.93631  1.0000
  C   C97       1.0  0.58110  0.36060  0.41005  1.0000
  C   C98       1.0  0.41890  0.86060  0.08995  1.0000
  C   C99       1.0  0.41890  0.63940  0.58995  1.0000
  C   C100      1.0  0.58110  0.13940  0.91005  1.0000
  C   C101      1.0  0.54950  0.40890  0.38081  1.0000
  C   C102      1.0  0.45050  0.90890  0.11919  1.0000
  C   C103      1.0  0.45050  0.59110  0.61919  1.0000
  C   C104      1.0  0.54950  0.09110  0.88081  1.0000
  C   C105      1.0  0.61490  0.38800  0.46840  1.0000
  C   C106      1.0  0.38510  0.88800  0.03160  1.0000
  C   C107      1.0  0.38510  0.61200  0.53160  1.0000
  C   C108      1.0  0.61490  0.11200  0.96840  1.0000
  C   C109      1.0  0.87070  0.15050  0.04347  1.0000
  C   C110      1.0  0.12930  0.65050  0.45653  1.0000
  C   C111      1.0  0.12930  0.84950  0.95653  1.0000
  C   C112      1.0  0.87070  0.34950  0.54347  1.0000
  C   C113      1.0  0.92120  0.10790  0.07541  1.0000
  C   C114      1.0  0.07880  0.60790  0.42459  1.0000
  C   C115      1.0  0.07880  0.89210  0.92459  1.0000
  C   C116      1.0  0.92120  0.39210  0.57541  1.0000
  C   C117      1.0  0.83750  0.10500  0.09954  1.0000
  C   C118      1.0  0.16250  0.60500  0.40046  1.0000
  C   C119      1.0  0.16250  0.89500  0.90046  1.0000
  C   C120      1.0  0.83750  0.39500  0.59954  1.0000
  C   C121      1.0  0.88380  0.06890  0.12928  1.0000
  C   C122      1.0  0.11620  0.56890  0.37072  1.0000
  C   C123      1.0  0.11620  0.93110  0.87072  1.0000
  C   C124      1.0  0.88380  0.43110  0.62928  1.0000
  C   C125      1.0  0.01480  0.03750  0.13602  1.0000
  C   C126      1.0  0.98520  0.53750  0.36398  1.0000
  C   C127      1.0  0.98520  0.96250  0.86398  1.0000
  C   C128      1.0  0.01480  0.46250  0.63602  1.0000
  C   C129      1.0  0.09800  0.04490  0.11176  1.0000
  C   C130      1.0  0.90200  0.54490  0.38824  1.0000
  C   C131      1.0  0.90200  0.95510  0.88824  1.0000
  C   C132      1.0  0.09800  0.45510  0.61176  1.0000
  C   C133      1.0  0.05160  0.07710  0.08100  1.0000
  C   C134      1.0  0.94840  0.57710  0.41900  1.0000
  C   C135      1.0  0.94840  0.92290  0.91900  1.0000
  C   C136      1.0  0.05160  0.42290  0.58100  1.0000
  C   C137      1.0  0.06340  0.99820  0.16784  1.0000
  C   C138      1.0  0.93660  0.49820  0.33216  1.0000
  C   C139      1.0  0.93660  0.00180  0.83216  1.0000
  C   C140      1.0  0.06340  0.50180  0.66784  1.0000
  C   C141      1.0  0.97720  0.94300  0.18933  1.0000
  C   C142      1.0  0.02280  0.44300  0.31067  1.0000
  C   C143      1.0  0.02280  0.05700  0.81067  1.0000
  C   C144      1.0  0.97720  0.55700  0.68933  1.0000
  C   C145      1.0  0.02240  0.90160  0.21782  1.0000
  C   C146      1.0  0.97760  0.40160  0.28218  1.0000
  C   C147      1.0  0.97760  0.09840  0.78218  1.0000
  C   C148      1.0  0.02240  0.59840  0.71782  1.0000
  C   C149      1.0  0.15940  0.90440  0.22685  1.0000
  C   C150      1.0  0.84060  0.40440  0.27315  1.0000
  C   C151      1.0  0.84060  0.09560  0.77315  1.0000
  C   C152      1.0  0.15940  0.59560  0.72685  1.0000
  C   C153      1.0  0.24070  0.96280  0.20649  1.0000
  C   C154      1.0  0.75930  0.46280  0.29351  1.0000
  C   C155      1.0  0.75930  0.03720  0.79351  1.0000
  C   C156      1.0  0.24070  0.53720  0.70649  1.0000
  C   C157      1.0  0.19360  0.00800  0.17765  1.0000
  C   C158      1.0  0.80640  0.50800  0.32235  1.0000
  C   C159      1.0  0.80640  0.99200  0.82235  1.0000
  C   C160      1.0  0.19360  0.49200  0.67765  1.0000
  C   C161      1.0  0.20680  0.84200  0.25718  1.0000
  C   C162      1.0  0.79320  0.34200  0.24282  1.0000
  C   C163      1.0  0.79320  0.15800  0.74282  1.0000
  C   C164      1.0  0.20680  0.65800  0.75718  1.0000
  C   C165      1.0  0.15130  0.89440  0.28569  1.0000
  C   C166      1.0  0.84870  0.39440  0.21431  1.0000
  C   C167      1.0  0.84870  0.10560  0.71431  1.0000
  C   C168      1.0  0.15130  0.60560  0.78569  1.0000
  C   C169      1.0  0.15280  0.02950  0.29210  1.0000
  C   C170      1.0  0.84720  0.52950  0.20790  1.0000
  C   C171      1.0  0.84720  0.97050  0.70790  1.0000
  C   C172      1.0  0.15280  0.47050  0.79210  1.0000
  C   C173      1.0  0.11110  0.07660  0.32036  1.0000
  C   C174      1.0  0.88890  0.57660  0.17964  1.0000
  C   C175      1.0  0.88890  0.92340  0.67964  1.0000
  C   C176      1.0  0.11110  0.42340  0.82036  1.0000
  C   C177      1.0  0.05930  0.99330  0.34266  1.0000
  C   C178      1.0  0.94070  0.49330  0.15734  1.0000
  C   C179      1.0  0.94070  0.00670  0.65734  1.0000
  C   C180      1.0  0.05930  0.50670  0.84266  1.0000
  C   C181      1.0  0.04480  0.86020  0.33460  1.0000
  C   C182      1.0  0.95520  0.36020  0.16540  1.0000
  C   C183      1.0  0.95520  0.13980  0.66540  1.0000
  C   C184      1.0  0.04480  0.63980  0.83460  1.0000
  C   C185      1.0  0.09190  0.81300  0.30712  1.0000
  C   C186      1.0  0.90810  0.31300  0.19288  1.0000
  C   C187      1.0  0.90810  0.18700  0.69288  1.0000
  C   C188      1.0  0.09190  0.68700  0.80712  1.0000
  C   C189      1.0  0.01650  0.04110  0.37337  1.0000
  C   C190      1.0  0.98350  0.54110  0.12663  1.0000
  C   C191      1.0  0.98350  0.95890  0.62663  1.0000
  C   C192      1.0  0.01650  0.45890  0.87337  1.0000
  C   C193      1.0  0.98580  0.17350  0.37811  1.0000
  C   C194      1.0  0.01420  0.67350  0.12189  1.0000
  C   C195      1.0  0.01420  0.82650  0.62189  1.0000
  C   C196      1.0  0.98580  0.32650  0.87811  1.0000
  C   C197      1.0  0.95050  0.21780  0.40717  1.0000
  C   C198      1.0  0.04950  0.71780  0.09283  1.0000
  C   C199      1.0  0.04950  0.78220  0.59283  1.0000
  C   C200      1.0  0.95050  0.28220  0.90717  1.0000
  C   C201      1.0  0.94040  0.13020  0.43187  1.0000
  C   C202      1.0  0.05960  0.63020  0.06813  1.0000
  C   C203      1.0  0.05960  0.86980  0.56813  1.0000
  C   C204      1.0  0.94040  0.36980  0.93187  1.0000
  C   C205      1.0  0.97270  0.00060  0.42760  1.0000
  C   C206      1.0  0.02730  0.50060  0.07240  1.0000
  C   C207      1.0  0.02730  0.99940  0.57240  1.0000
  C   C208      1.0  0.97270  0.49940  0.92760  1.0000
  C   C209      1.0  0.01320  0.95710  0.39917  1.0000
  C   C210      1.0  0.98680  0.45710  0.10083  1.0000
  C   C211      1.0  0.98680  0.04290  0.60083  1.0000
  C   C212      1.0  0.01320  0.54290  0.89917  1.0000
  C   C213      1.0  0.89390  0.18350  0.46209  1.0000
  C   C214      1.0  0.10610  0.68350  0.03791  1.0000
  C   C215      1.0  0.10610  0.81650  0.53791  1.0000
  C   C216      1.0  0.89390  0.31650  0.96209  1.0000
  H   H1        1.0  0.32570  0.45720  0.06870  1.0000
  H   H2        1.0  0.67430  0.95720  0.43130  1.0000
  H   H3        1.0  0.67430  0.54280  0.93130  1.0000
  H   H4        1.0  0.32570  0.04280  0.56870  1.0000
  H   H5        1.0  0.26790  0.51680  0.11880  1.0000
  H   H6        1.0  0.73210  0.01680  0.38120  1.0000
  H   H7        1.0  0.73210  0.48320  0.88120  1.0000
  H   H8        1.0  0.26790  0.98320  0.61880  1.0000
  H   H9        1.0  0.88480  0.08940  0.00490  1.0000
  H   H10       1.0  0.11520  0.58940  0.49510  1.0000
  H   H11       1.0  0.11520  0.91060  0.99510  1.0000
  H   H12       1.0  0.88480  0.41060  0.50490  1.0000
  H   H13       1.0  0.65000  0.58190  0.14290  1.0000
  H   H14       1.0  0.35000  0.08190  0.35710  1.0000
  H   H15       1.0  0.35000  0.41810  0.85710  1.0000
  H   H16       1.0  0.65000  0.91810  0.64290  1.0000
  H   H17       1.0  0.70700  0.53000  0.09310  1.0000
  H   H18       1.0  0.29300  0.03000  0.40690  1.0000
  H   H19       1.0  0.29300  0.47000  0.90690  1.0000
  H   H20       1.0  0.70700  0.97000  0.59310  1.0000
  H   H21       1.0  0.22450  0.54120  0.16440  1.0000
  H   H22       1.0  0.77550  0.04120  0.33560  1.0000
  H   H23       1.0  0.77550  0.45880  0.83560  1.0000
  H   H24       1.0  0.22450  0.95880  0.66440  1.0000
  H   H25       1.0  0.15960  0.61470  0.21280  1.0000
  H   H26       1.0  0.84040  0.11470  0.28720  1.0000
  H   H27       1.0  0.84040  0.38530  0.78720  1.0000
  H   H28       1.0  0.15960  0.88530  0.71280  1.0000
  H   H29       1.0  0.53710  0.72190  0.23430  1.0000
  H   H30       1.0  0.46290  0.22190  0.26570  1.0000
  H   H31       1.0  0.46290  0.27810  0.76570  1.0000
  H   H32       1.0  0.53710  0.77810  0.73430  1.0000
  H   H33       1.0  0.59660  0.65010  0.18560  1.0000
  H   H34       1.0  0.40340  0.15010  0.31440  1.0000
  H   H35       1.0  0.40340  0.34990  0.81440  1.0000
  H   H36       1.0  0.59660  0.84990  0.68560  1.0000
  H   H37       1.0  0.41930  0.86810  0.30620  1.0000
  H   H38       1.0  0.58070  0.36810  0.19380  1.0000
  H   H39       1.0  0.58070  0.13190  0.69380  1.0000
  H   H40       1.0  0.41930  0.63190  0.80620  1.0000
  H   H41       1.0  0.51530  0.78400  0.35230  1.0000
  H   H42       1.0  0.48470  0.28400  0.14770  1.0000
  H   H43       1.0  0.48470  0.21600  0.64770  1.0000
  H   H44       1.0  0.51530  0.71600  0.85230  1.0000
  H   H45       1.0  0.41320  0.41590  0.32480  1.0000
  H   H46       1.0  0.58680  0.91590  0.17520  1.0000
  H   H47       1.0  0.58680  0.58410  0.67520  1.0000
  H   H48       1.0  0.41320  0.08410  0.82480  1.0000
  H   H49       1.0  0.33240  0.49980  0.27670  1.0000
  H   H50       1.0  0.66760  0.99980  0.22330  1.0000
  H   H51       1.0  0.66760  0.50020  0.72330  1.0000
  H   H52       1.0  0.33240  0.00020  0.77670  1.0000
  H   H53       1.0  0.49530  0.71360  0.39990  1.0000
  H   H54       1.0  0.50470  0.21360  0.10010  1.0000
  H   H55       1.0  0.50470  0.28640  0.60010  1.0000
  H   H56       1.0  0.49530  0.78640  0.89990  1.0000
  H   H57       1.0  0.55590  0.63420  0.44900  1.0000
  H   H58       1.0  0.44410  0.13420  0.05100  1.0000
  H   H59       1.0  0.44410  0.36580  0.55100  1.0000
  H   H60       1.0  0.55590  0.86580  0.94900  1.0000
  H   H61       1.0  0.60210  0.27030  0.41250  1.0000
  H   H62       1.0  0.39790  0.77030  0.08750  1.0000
  H   H63       1.0  0.39790  0.72970  0.58750  1.0000
  H   H64       1.0  0.60210  0.22970  0.91250  1.0000
  H   H65       1.0  0.55120  0.35130  0.36340  1.0000
  H   H66       1.0  0.44880  0.85130  0.13660  1.0000
  H   H67       1.0  0.44880  0.64870  0.63660  1.0000
  H   H68       1.0  0.55120  0.14870  0.86340  1.0000
  H   H69       1.0  0.74750  0.12780  0.09580  1.0000
  H   H70       1.0  0.25250  0.62780  0.40420  1.0000
  H   H71       1.0  0.25250  0.87220  0.90420  1.0000
  H   H72       1.0  0.74750  0.37220  0.59580  1.0000
  H   H73       1.0  0.82380  0.06550  0.14560  1.0000
  H   H74       1.0  0.17620  0.56550  0.35440  1.0000
  H   H75       1.0  0.17620  0.93450  0.85440  1.0000
  H   H76       1.0  0.82380  0.43450  0.64560  1.0000
  H   H77       1.0  0.18910  0.02790  0.11580  1.0000
  H   H78       1.0  0.81090  0.52790  0.38420  1.0000
  H   H79       1.0  0.81090  0.97210  0.88420  1.0000
  H   H80       1.0  0.18910  0.47210  0.61580  1.0000
  H   H81       1.0  0.11010  0.07750  0.06440  1.0000
  H   H82       1.0  0.88990  0.57750  0.43560  1.0000
  H   H83       1.0  0.88990  0.92250  0.93560  1.0000
  H   H84       1.0  0.11010  0.42250  0.56440  1.0000
  H   H85       1.0  0.88610  0.93510  0.18350  1.0000
  H   H86       1.0  0.11390  0.43510  0.31650  1.0000
  H   H87       1.0  0.11390  0.06490  0.81650  1.0000
  H   H88       1.0  0.88610  0.56490  0.68350  1.0000
  H   H89       1.0  0.96170  0.86980  0.23220  1.0000
  H   H90       1.0  0.03830  0.36980  0.26780  1.0000
  H   H91       1.0  0.03830  0.13020  0.76780  1.0000
  H   H92       1.0  0.96170  0.63020  0.73220  1.0000
  H   H93       1.0  0.33150  0.97260  0.21230  1.0000
  H   H94       1.0  0.66850  0.47260  0.28770  1.0000
  H   H95       1.0  0.66850  0.02740  0.78770  1.0000
  H   H96       1.0  0.33150  0.52740  0.71230  1.0000
  H   H97       1.0  0.25350  0.04720  0.16410  1.0000
  H   H98       1.0  0.74650  0.54720  0.33590  1.0000
  H   H99       1.0  0.74650  0.95280  0.83590  1.0000
  H   H100      1.0  0.25350  0.45280  0.66410  1.0000
  H   H101      1.0  0.18260  0.08920  0.27700  1.0000
  H   H102      1.0  0.81740  0.58920  0.22300  1.0000
  H   H103      1.0  0.81740  0.91080  0.72300  1.0000
  H   H104      1.0  0.18260  0.41080  0.77700  1.0000
  H   H105      1.0  0.11790  0.16780  0.32470  1.0000
  H   H106      1.0  0.88210  0.66780  0.17530  1.0000
  H   H107      1.0  0.88210  0.83220  0.67530  1.0000
  H   H108      1.0  0.11790  0.33220  0.82470  1.0000
  H   H109      1.0  0.00210  0.80220  0.34830  1.0000
  H   H110      1.0  0.99790  0.30220  0.15170  1.0000
  H   H111      1.0  0.99790  0.19780  0.65170  1.0000
  H   H112      1.0  0.00210  0.69780  0.84830  1.0000
  H   H113      1.0  0.08370  0.72200  0.30260  1.0000
  H   H114      1.0  0.91630  0.22200  0.19740  1.0000
  H   H115      1.0  0.91630  0.27800  0.69740  1.0000
  H   H116      1.0  0.08370  0.77800  0.80260  1.0000
  H   H117      1.0  0.98920  0.23370  0.36120  1.0000
  H   H118      1.0  0.01080  0.73370  0.13880  1.0000
  H   H119      1.0  0.01080  0.76630  0.63880  1.0000
  H   H120      1.0  0.98920  0.26630  0.86120  1.0000
  H   H121      1.0  0.93320  0.30840  0.41020  1.0000
  H   H122      1.0  0.06680  0.80840  0.08980  1.0000
  H   H123      1.0  0.06680  0.69160  0.58980  1.0000
  H   H124      1.0  0.93320  0.19160  0.91020  1.0000
  H   H125      1.0  0.96710  0.94050  0.44450  1.0000
  H   H126      1.0  0.03290  0.44050  0.05550  1.0000
  H   H127      1.0  0.03290  0.05950  0.55550  1.0000
  H   H128      1.0  0.96710  0.55950  0.94450  1.0000
  H   H129      1.0  0.03940  0.86820  0.39700  1.0000
  H   H130      1.0  0.96060  0.36820  0.10300  1.0000
  H   H131      1.0  0.96060  0.13180  0.60300  1.0000
  H   H132      1.0  0.03940  0.63180  0.89700  1.0000
