data_image0
_chemical_formula_structural       Zn4P4O4C4H4O4C4O8H4O8
_chemical_formula_sum              "Zn4 P4 O24 C8 H8"
_cell_length_a       10.245
_cell_length_b       12.447
_cell_length_c       5.1538
_cell_angle_alpha    90
_cell_angle_beta     90
_cell_angle_gamma    90

_space_group_name_H-M_alt    "P 1"
_space_group_IT_number       1

loop_
  _space_group_symop_operation_xyz
  'x, y, z'

loop_
  _atom_site_type_symbol
  _atom_site_label
  _atom_site_symmetry_multiplicity
  _atom_site_fract_x
  _atom_site_fract_y
  _atom_site_fract_z
  _atom_site_occupancy
  Zn  Zn1       1.0  0.10318  0.11325  0.15170  1.0000
  Zn  Zn2       1.0  0.89682  0.88675  0.65170  1.0000
  Zn  Zn3       1.0  0.60318  0.38675  0.15170  1.0000
  Zn  Zn4       1.0  0.39682  0.61325  0.65170  1.0000
  P   P1        1.0  0.17770  0.98583  0.65210  1.0000
  P   P2        1.0  0.82230  0.01417  0.15210  1.0000
  P   P3        1.0  0.67770  0.51417  0.65210  1.0000
  P   P4        1.0  0.32230  0.48583  0.15210  1.0000
  O   O1        1.0  0.18690  0.00170  0.94380  1.0000
  O   O2        1.0  0.81310  0.99830  0.44380  1.0000
  O   O3        1.0  0.68690  0.49830  0.94380  1.0000
  O   O4        1.0  0.31310  0.50170  0.44380  1.0000
  C   C1        1.0  0.33820  0.94430  0.53700  1.0000
  C   C2        1.0  0.66180  0.05570  0.03700  1.0000
  C   C3        1.0  0.83820  0.55570  0.53700  1.0000
  C   C4        1.0  0.16180  0.44430  0.03700  1.0000
  H   H1        1.0  0.34010  0.94240  0.34660  1.0000
  H   H2        1.0  0.65990  0.05760  0.84660  1.0000
  H   H3        1.0  0.84010  0.55760  0.34660  1.0000
  H   H4        1.0  0.15990  0.44240  0.84660  1.0000
  O   O5        1.0  0.14770  0.09070  0.51230  1.0000
  O   O6        1.0  0.85230  0.90930  0.01230  1.0000
  O   O7        1.0  0.64770  0.40930  0.51230  1.0000
  O   O8        1.0  0.35230  0.59070  0.01230  1.0000
  C   C5        1.0  0.37780  0.83390  0.65000  1.0000
  C   C6        1.0  0.62220  0.16610  0.15000  1.0000
  C   C7        1.0  0.87780  0.66610  0.65000  1.0000
  C   C8        1.0  0.12220  0.33390  0.15000  1.0000
  O   O9        1.0  0.08580  0.89410  0.58590  1.0000
  O   O10       1.0  0.91420  0.10590  0.08590  1.0000
  O   O11       1.0  0.58580  0.60590  0.58590  1.0000
  O   O12       1.0  0.41420  0.39410  0.08590  1.0000
  O   O13       1.0  0.42760  0.02350  0.63300  1.0000
  O   O14       1.0  0.57240  0.97650  0.13300  1.0000
  O   O15       1.0  0.92760  0.47650  0.63300  1.0000
  O   O16       1.0  0.07240  0.52350  0.13300  1.0000
  H   H5        1.0  0.45490  0.05990  0.51210  1.0000
  H   H6        1.0  0.54510  0.94010  0.01210  1.0000
  H   H7        1.0  0.95490  0.44010  0.51210  1.0000
  H   H8        1.0  0.04510  0.55990  0.01210  1.0000
  O   O17       1.0  0.33770  0.75210  0.52990  1.0000
  O   O18       1.0  0.66230  0.24790  0.02990  1.0000
  O   O19       1.0  0.83770  0.74790  0.52990  1.0000
  O   O20       1.0  0.16230  0.25210  0.02990  1.0000
  O   O21       1.0  0.44220  0.82750  0.84900  1.0000
  O   O22       1.0  0.55780  0.17250  0.34900  1.0000
  O   O23       1.0  0.94220  0.67250  0.84900  1.0000
  O   O24       1.0  0.05780  0.32750  0.34900  1.0000
