data_image0
_chemical_formula_structural       Co24O128N16C48H16C16H16C32H16C16H16C32H16C16H16C32H16C16H16C48H16C16H16C32H16C16H16C64H16C16H16
_chemical_formula_sum              "Co24 O128 N16 C400 H224"
_cell_length_a       33.6004
_cell_length_b       26.9604
_cell_length_c       23.2138
_cell_angle_alpha    90
_cell_angle_beta     90
_cell_angle_gamma    90

_space_group_name_H-M_alt    "P 1"
_space_group_IT_number       1

loop_
  _space_group_symop_operation_xyz
  'x, y, z'

loop_
  _atom_site_type_symbol
  _atom_site_label
  _atom_site_symmetry_multiplicity
  _atom_site_fract_x
  _atom_site_fract_y
  _atom_site_fract_z
  _atom_site_occupancy
  Co  Co1       1.0  0.25000  0.86980  0.75000  1.0000
  Co  Co2       1.0  0.75000  0.63020  0.25000  1.0000
  Co  Co3       1.0  0.75000  0.36980  0.75000  1.0000
  Co  Co4       1.0  0.25000  0.13020  0.25000  1.0000
  Co  Co5       1.0  0.75000  0.13020  0.25000  1.0000
  Co  Co6       1.0  0.25000  0.36980  0.75000  1.0000
  Co  Co7       1.0  0.25000  0.63020  0.25000  1.0000
  Co  Co8       1.0  0.75000  0.86980  0.75000  1.0000
  Co  Co9       1.0  0.33995  0.88834  0.70075  1.0000
  Co  Co10      1.0  0.66005  0.61166  0.20075  1.0000
  Co  Co11      1.0  0.66005  0.38834  0.79925  1.0000
  Co  Co12      1.0  0.33995  0.11166  0.29925  1.0000
  Co  Co13      1.0  0.83995  0.38834  0.70075  1.0000
  Co  Co14      1.0  0.16005  0.11166  0.20075  1.0000
  Co  Co15      1.0  0.16005  0.88834  0.79925  1.0000
  Co  Co16      1.0  0.83995  0.61166  0.29925  1.0000
  Co  Co17      1.0  0.66005  0.11166  0.29925  1.0000
  Co  Co18      1.0  0.33995  0.38834  0.79925  1.0000
  Co  Co19      1.0  0.33995  0.61166  0.20075  1.0000
  Co  Co20      1.0  0.66005  0.88834  0.70075  1.0000
  Co  Co21      1.0  0.16005  0.61166  0.29925  1.0000
  Co  Co22      1.0  0.83995  0.88834  0.79925  1.0000
  Co  Co23      1.0  0.83995  0.11166  0.20075  1.0000
  Co  Co24      1.0  0.16005  0.38834  0.70075  1.0000
  O   O1        1.0  0.32386  0.83136  0.65239  1.0000
  O   O2        1.0  0.67614  0.66864  0.15239  1.0000
  O   O3        1.0  0.67614  0.33136  0.84761  1.0000
  O   O4        1.0  0.32386  0.16864  0.34761  1.0000
  O   O5        1.0  0.82386  0.33136  0.65239  1.0000
  O   O6        1.0  0.17614  0.16864  0.15239  1.0000
  O   O7        1.0  0.17614  0.83136  0.84761  1.0000
  O   O8        1.0  0.82386  0.66864  0.34761  1.0000
  O   O9        1.0  0.67614  0.16864  0.34761  1.0000
  O   O10       1.0  0.32386  0.33136  0.84761  1.0000
  O   O11       1.0  0.32386  0.66864  0.15239  1.0000
  O   O12       1.0  0.67614  0.83136  0.65239  1.0000
  O   O13       1.0  0.17614  0.66864  0.34761  1.0000
  O   O14       1.0  0.82386  0.83136  0.84761  1.0000
  O   O15       1.0  0.82386  0.16864  0.15239  1.0000
  O   O16       1.0  0.17614  0.33136  0.65239  1.0000
  O   O17       1.0  0.26500  0.81474  0.69390  1.0000
  O   O18       1.0  0.73500  0.68526  0.19390  1.0000
  O   O19       1.0  0.73500  0.31474  0.80610  1.0000
  O   O20       1.0  0.26500  0.18526  0.30610  1.0000
  O   O21       1.0  0.76500  0.31474  0.69390  1.0000
  O   O22       1.0  0.23500  0.18526  0.19390  1.0000
  O   O23       1.0  0.23500  0.81474  0.80610  1.0000
  O   O24       1.0  0.76500  0.68526  0.30610  1.0000
  O   O25       1.0  0.73500  0.18526  0.30610  1.0000
  O   O26       1.0  0.26500  0.31474  0.80610  1.0000
  O   O27       1.0  0.26500  0.68526  0.19390  1.0000
  O   O28       1.0  0.73500  0.81474  0.69390  1.0000
  O   O29       1.0  0.23500  0.68526  0.30610  1.0000
  O   O30       1.0  0.76500  0.81474  0.80610  1.0000
  O   O31       1.0  0.76500  0.18526  0.19390  1.0000
  O   O32       1.0  0.23500  0.31474  0.69390  1.0000
  O   O33       1.0  0.31164  0.62758  0.27526  1.0000
  O   O34       1.0  0.68836  0.87242  0.77526  1.0000
  O   O35       1.0  0.68836  0.12758  0.22474  1.0000
  O   O36       1.0  0.31164  0.37242  0.72474  1.0000
  O   O37       1.0  0.81164  0.12758  0.27526  1.0000
  O   O38       1.0  0.18836  0.37242  0.77526  1.0000
  O   O39       1.0  0.18836  0.62758  0.22474  1.0000
  O   O40       1.0  0.81164  0.87242  0.72474  1.0000
  O   O41       1.0  0.68836  0.37242  0.72474  1.0000
  O   O42       1.0  0.31164  0.12758  0.22474  1.0000
  O   O43       1.0  0.31164  0.87242  0.77526  1.0000
  O   O44       1.0  0.68836  0.62758  0.27526  1.0000
  O   O45       1.0  0.18836  0.87242  0.72474  1.0000
  O   O46       1.0  0.81164  0.62758  0.22474  1.0000
  O   O47       1.0  0.81164  0.37242  0.77526  1.0000
  O   O48       1.0  0.18836  0.12758  0.27526  1.0000
  O   O49       1.0  0.34872  0.56155  0.29244  1.0000
  O   O50       1.0  0.65128  0.93845  0.79244  1.0000
  O   O51       1.0  0.65128  0.06155  0.20756  1.0000
  O   O52       1.0  0.34872  0.43845  0.70756  1.0000
  O   O53       1.0  0.84872  0.06155  0.29244  1.0000
  O   O54       1.0  0.15128  0.43845  0.79244  1.0000
  O   O55       1.0  0.15128  0.56155  0.20756  1.0000
  O   O56       1.0  0.84872  0.93845  0.70756  1.0000
  O   O57       1.0  0.65128  0.43845  0.70756  1.0000
  O   O58       1.0  0.34872  0.06155  0.20756  1.0000
  O   O59       1.0  0.34872  0.93845  0.79244  1.0000
  O   O60       1.0  0.65128  0.56155  0.29244  1.0000
  O   O61       1.0  0.15128  0.93845  0.70756  1.0000
  O   O62       1.0  0.84872  0.56155  0.20756  1.0000
  O   O63       1.0  0.84872  0.43845  0.79244  1.0000
  O   O64       1.0  0.15128  0.06155  0.29244  1.0000
  O   O65       1.0  0.18273  0.44616  0.65827  1.0000
  O   O66       1.0  0.81727  0.05384  0.15827  1.0000
  O   O67       1.0  0.81727  0.94616  0.84173  1.0000
  O   O68       1.0  0.18273  0.55384  0.34173  1.0000
  O   O69       1.0  0.68273  0.94616  0.65827  1.0000
  O   O70       1.0  0.31727  0.55384  0.15827  1.0000
  O   O71       1.0  0.31727  0.44616  0.84173  1.0000
  O   O72       1.0  0.68273  0.05384  0.34173  1.0000
  O   O73       1.0  0.81727  0.55384  0.34173  1.0000
  O   O74       1.0  0.18273  0.94616  0.84173  1.0000
  O   O75       1.0  0.18273  0.05384  0.15827  1.0000
  O   O76       1.0  0.81727  0.44616  0.65827  1.0000
  O   O77       1.0  0.31727  0.05384  0.34173  1.0000
  O   O78       1.0  0.68273  0.44616  0.84173  1.0000
  O   O79       1.0  0.68273  0.55384  0.15827  1.0000
  O   O80       1.0  0.31727  0.94616  0.65827  1.0000
  O   O81       1.0  0.24272  0.42716  0.69263  1.0000
  O   O82       1.0  0.75728  0.07284  0.19263  1.0000
  O   O83       1.0  0.75728  0.92716  0.80737  1.0000
  O   O84       1.0  0.24272  0.57284  0.30737  1.0000
  O   O85       1.0  0.74272  0.92716  0.69263  1.0000
  O   O86       1.0  0.25728  0.57284  0.19263  1.0000
  O   O87       1.0  0.25728  0.42716  0.80737  1.0000
  O   O88       1.0  0.74272  0.07284  0.30737  1.0000
  O   O89       1.0  0.75728  0.57284  0.30737  1.0000
  O   O90       1.0  0.24272  0.92716  0.80737  1.0000
  O   O91       1.0  0.24272  0.07284  0.19263  1.0000
  O   O92       1.0  0.75728  0.42716  0.69263  1.0000
  O   O93       1.0  0.25728  0.07284  0.30737  1.0000
  O   O94       1.0  0.74272  0.42716  0.80737  1.0000
  O   O95       1.0  0.74272  0.57284  0.19263  1.0000
  O   O96       1.0  0.25728  0.92716  0.69263  1.0000
  O   O97       1.0  0.39682  0.90284  0.68141  1.0000
  O   O98       1.0  0.60318  0.59716  0.18141  1.0000
  O   O99       1.0  0.60318  0.40284  0.81859  1.0000
  O   O100      1.0  0.39682  0.09716  0.31859  1.0000
  O   O101      1.0  0.89682  0.40284  0.68141  1.0000
  O   O102      1.0  0.10318  0.09716  0.18141  1.0000
  O   O103      1.0  0.10318  0.90284  0.81859  1.0000
  O   O104      1.0  0.89682  0.59716  0.31859  1.0000
  O   O105      1.0  0.60318  0.09716  0.31859  1.0000
  O   O106      1.0  0.39682  0.40284  0.81859  1.0000
  O   O107      1.0  0.39682  0.59716  0.18141  1.0000
  O   O108      1.0  0.60318  0.90284  0.68141  1.0000
  O   O109      1.0  0.10318  0.59716  0.31859  1.0000
  O   O110      1.0  0.89682  0.90284  0.81859  1.0000
  O   O111      1.0  0.89682  0.09716  0.18141  1.0000
  O   O112      1.0  0.10318  0.40284  0.68141  1.0000
  O   O113      1.0  0.39522  0.83930  0.73715  1.0000
  O   O114      1.0  0.60478  0.66070  0.23715  1.0000
  O   O115      1.0  0.60478  0.33930  0.76285  1.0000
  O   O116      1.0  0.39522  0.16070  0.26285  1.0000
  O   O117      1.0  0.89522  0.33930  0.73715  1.0000
  O   O118      1.0  0.10478  0.16070  0.23715  1.0000
  O   O119      1.0  0.10478  0.83930  0.76285  1.0000
  O   O120      1.0  0.89522  0.66070  0.26285  1.0000
  O   O121      1.0  0.60478  0.16070  0.26285  1.0000
  O   O122      1.0  0.39522  0.33930  0.76285  1.0000
  O   O123      1.0  0.39522  0.66070  0.23715  1.0000
  O   O124      1.0  0.60478  0.83930  0.73715  1.0000
  O   O125      1.0  0.10478  0.66070  0.26285  1.0000
  O   O126      1.0  0.89522  0.83930  0.76285  1.0000
  O   O127      1.0  0.89522  0.16070  0.23715  1.0000
  O   O128      1.0  0.10478  0.33930  0.73715  1.0000
  N   N1        1.0  0.29074  0.61715  0.54825  1.0000
  N   N2        1.0  0.70926  0.88285  0.04825  1.0000
  N   N3        1.0  0.70926  0.11715  0.95175  1.0000
  N   N4        1.0  0.29074  0.38285  0.45175  1.0000
  N   N5        1.0  0.79074  0.11715  0.54825  1.0000
  N   N6        1.0  0.20926  0.38285  0.04825  1.0000
  N   N7        1.0  0.20926  0.61715  0.95175  1.0000
  N   N8        1.0  0.79074  0.88285  0.45175  1.0000
  N   N9        1.0  0.70926  0.38285  0.45175  1.0000
  N   N10       1.0  0.29074  0.11715  0.95175  1.0000
  N   N11       1.0  0.29074  0.88285  0.04825  1.0000
  N   N12       1.0  0.70926  0.61715  0.54825  1.0000
  N   N13       1.0  0.20926  0.88285  0.45175  1.0000
  N   N14       1.0  0.79074  0.61715  0.95175  1.0000
  N   N15       1.0  0.79074  0.38285  0.04825  1.0000
  N   N16       1.0  0.20926  0.11715  0.54825  1.0000
  C   C1        1.0  0.29365  0.80473  0.66148  1.0000
  C   C2        1.0  0.70635  0.69527  0.16148  1.0000
  C   C3        1.0  0.70635  0.30473  0.83852  1.0000
  C   C4        1.0  0.29365  0.19527  0.33852  1.0000
  C   C5        1.0  0.79365  0.30473  0.66148  1.0000
  C   C6        1.0  0.20635  0.19527  0.16148  1.0000
  C   C7        1.0  0.20635  0.80473  0.83852  1.0000
  C   C8        1.0  0.79365  0.69527  0.33852  1.0000
  C   C9        1.0  0.70635  0.19527  0.33852  1.0000
  C   C10       1.0  0.29365  0.30473  0.83852  1.0000
  C   C11       1.0  0.29365  0.69527  0.16148  1.0000
  C   C12       1.0  0.70635  0.80473  0.66148  1.0000
  C   C13       1.0  0.20635  0.69527  0.33852  1.0000
  C   C14       1.0  0.79365  0.80473  0.83852  1.0000
  C   C15       1.0  0.79365  0.19527  0.16148  1.0000
  C   C16       1.0  0.20635  0.30473  0.66148  1.0000
  C   C17       1.0  0.29221  0.75590  0.63091  1.0000
  C   C18       1.0  0.70779  0.74410  0.13091  1.0000
  C   C19       1.0  0.70779  0.25590  0.86909  1.0000
  C   C20       1.0  0.29221  0.24410  0.36909  1.0000
  C   C21       1.0  0.79221  0.25590  0.63091  1.0000
  C   C22       1.0  0.20779  0.24410  0.13091  1.0000
  C   C23       1.0  0.20779  0.75590  0.86909  1.0000
  C   C24       1.0  0.79221  0.74410  0.36909  1.0000
  C   C25       1.0  0.70779  0.24410  0.36909  1.0000
  C   C26       1.0  0.29221  0.25590  0.86909  1.0000
  C   C27       1.0  0.29221  0.74410  0.13091  1.0000
  C   C28       1.0  0.70779  0.75590  0.63091  1.0000
  C   C29       1.0  0.20779  0.74410  0.36909  1.0000
  C   C30       1.0  0.79221  0.75590  0.86909  1.0000
  C   C31       1.0  0.79221  0.24410  0.13091  1.0000
  C   C32       1.0  0.20779  0.25590  0.63091  1.0000
  C   C33       1.0  0.32284  0.74203  0.59310  1.0000
  C   C34       1.0  0.67716  0.75797  0.09310  1.0000
  C   C35       1.0  0.67716  0.24203  0.90690  1.0000
  C   C36       1.0  0.32284  0.25797  0.40690  1.0000
  C   C37       1.0  0.82284  0.24203  0.59310  1.0000
  C   C38       1.0  0.17716  0.25797  0.09310  1.0000
  C   C39       1.0  0.17716  0.74203  0.90690  1.0000
  C   C40       1.0  0.82284  0.75797  0.40690  1.0000
  C   C41       1.0  0.67716  0.25797  0.40690  1.0000
  C   C42       1.0  0.32284  0.24203  0.90690  1.0000
  C   C43       1.0  0.32284  0.75797  0.09310  1.0000
  C   C44       1.0  0.67716  0.74203  0.59310  1.0000
  C   C45       1.0  0.17716  0.75797  0.40690  1.0000
  C   C46       1.0  0.82284  0.74203  0.90690  1.0000
  C   C47       1.0  0.82284  0.25797  0.09310  1.0000
  C   C48       1.0  0.17716  0.24203  0.59310  1.0000
  H   H1        1.0  0.34430  0.76420  0.58610  1.0000
  H   H2        1.0  0.65570  0.73580  0.08610  1.0000
  H   H3        1.0  0.65570  0.26420  0.91390  1.0000
  H   H4        1.0  0.34430  0.23580  0.41390  1.0000
  H   H5        1.0  0.84430  0.26420  0.58610  1.0000
  H   H6        1.0  0.15570  0.23580  0.08610  1.0000
  H   H7        1.0  0.15570  0.76420  0.91390  1.0000
  H   H8        1.0  0.84430  0.73580  0.41390  1.0000
  H   H9        1.0  0.65570  0.23580  0.41390  1.0000
  H   H10       1.0  0.34430  0.26420  0.91390  1.0000
  H   H11       1.0  0.34430  0.73580  0.08610  1.0000
  H   H12       1.0  0.65570  0.76420  0.58610  1.0000
  H   H13       1.0  0.15570  0.73580  0.41390  1.0000
  H   H14       1.0  0.84430  0.76420  0.91390  1.0000
  H   H15       1.0  0.84430  0.23580  0.08610  1.0000
  H   H16       1.0  0.15570  0.26420  0.58610  1.0000
  C   C49       1.0  0.32209  0.69646  0.56592  1.0000
  C   C50       1.0  0.67791  0.80354  0.06592  1.0000
  C   C51       1.0  0.67791  0.19646  0.93408  1.0000
  C   C52       1.0  0.32209  0.30354  0.43408  1.0000
  C   C53       1.0  0.82209  0.19646  0.56592  1.0000
  C   C54       1.0  0.17791  0.30354  0.06592  1.0000
  C   C55       1.0  0.17791  0.69646  0.93408  1.0000
  C   C56       1.0  0.82209  0.80354  0.43408  1.0000
  C   C57       1.0  0.67791  0.30354  0.43408  1.0000
  C   C58       1.0  0.32209  0.19646  0.93408  1.0000
  C   C59       1.0  0.32209  0.80354  0.06592  1.0000
  C   C60       1.0  0.67791  0.69646  0.56592  1.0000
  C   C61       1.0  0.17791  0.80354  0.43408  1.0000
  C   C62       1.0  0.82209  0.69646  0.93408  1.0000
  C   C63       1.0  0.82209  0.30354  0.06592  1.0000
  C   C64       1.0  0.17791  0.19646  0.56592  1.0000
  H   H17       1.0  0.34290  0.68740  0.54030  1.0000
  H   H18       1.0  0.65710  0.81260  0.04030  1.0000
  H   H19       1.0  0.65710  0.18740  0.95970  1.0000
  H   H20       1.0  0.34290  0.31260  0.45970  1.0000
  H   H21       1.0  0.84290  0.18740  0.54030  1.0000
  H   H22       1.0  0.15710  0.31260  0.04030  1.0000
  H   H23       1.0  0.15710  0.68740  0.95970  1.0000
  H   H24       1.0  0.84290  0.81260  0.45970  1.0000
  H   H25       1.0  0.65710  0.31260  0.45970  1.0000
  H   H26       1.0  0.34290  0.18740  0.95970  1.0000
  H   H27       1.0  0.34290  0.81260  0.04030  1.0000
  H   H28       1.0  0.65710  0.68740  0.54030  1.0000
  H   H29       1.0  0.15710  0.81260  0.45970  1.0000
  H   H30       1.0  0.84290  0.68740  0.95970  1.0000
  H   H31       1.0  0.84290  0.31260  0.04030  1.0000
  H   H32       1.0  0.15710  0.18740  0.54030  1.0000
  C   C65       1.0  0.29126  0.66437  0.57607  1.0000
  C   C66       1.0  0.70874  0.83563  0.07607  1.0000
  C   C67       1.0  0.70874  0.16437  0.92393  1.0000
  C   C68       1.0  0.29126  0.33563  0.42393  1.0000
  C   C69       1.0  0.79126  0.16437  0.57607  1.0000
  C   C70       1.0  0.20874  0.33563  0.07607  1.0000
  C   C71       1.0  0.20874  0.66437  0.92393  1.0000
  C   C72       1.0  0.79126  0.83563  0.42393  1.0000
  C   C73       1.0  0.70874  0.33563  0.42393  1.0000
  C   C74       1.0  0.29126  0.16437  0.92393  1.0000
  C   C75       1.0  0.29126  0.83563  0.07607  1.0000
  C   C76       1.0  0.70874  0.66437  0.57607  1.0000
  C   C77       1.0  0.20874  0.83563  0.42393  1.0000
  C   C78       1.0  0.79126  0.66437  0.92393  1.0000
  C   C79       1.0  0.79126  0.33563  0.07607  1.0000
  C   C80       1.0  0.20874  0.16437  0.57607  1.0000
  C   C81       1.0  0.26085  0.67753  0.61324  1.0000
  C   C82       1.0  0.73915  0.82247  0.11324  1.0000
  C   C83       1.0  0.73915  0.17753  0.88676  1.0000
  C   C84       1.0  0.26085  0.32247  0.38676  1.0000
  C   C85       1.0  0.76085  0.17753  0.61324  1.0000
  C   C86       1.0  0.23915  0.32247  0.11324  1.0000
  C   C87       1.0  0.23915  0.67753  0.88676  1.0000
  C   C88       1.0  0.76085  0.82247  0.38676  1.0000
  C   C89       1.0  0.73915  0.32247  0.38676  1.0000
  C   C90       1.0  0.26085  0.17753  0.88676  1.0000
  C   C91       1.0  0.26085  0.82247  0.11324  1.0000
  C   C92       1.0  0.73915  0.67753  0.61324  1.0000
  C   C93       1.0  0.23915  0.82247  0.38676  1.0000
  C   C94       1.0  0.76085  0.67753  0.88676  1.0000
  C   C95       1.0  0.76085  0.32247  0.11324  1.0000
  C   C96       1.0  0.23915  0.17753  0.61324  1.0000
  H   H33       1.0  0.23950  0.65530  0.62020  1.0000
  H   H34       1.0  0.76050  0.84470  0.12020  1.0000
  H   H35       1.0  0.76050  0.15530  0.87980  1.0000
  H   H36       1.0  0.23950  0.34470  0.37980  1.0000
  H   H37       1.0  0.73950  0.15530  0.62020  1.0000
  H   H38       1.0  0.26050  0.34470  0.12020  1.0000
  H   H39       1.0  0.26050  0.65530  0.87980  1.0000
  H   H40       1.0  0.73950  0.84470  0.37980  1.0000
  H   H41       1.0  0.76050  0.34470  0.37980  1.0000
  H   H42       1.0  0.23950  0.15530  0.87980  1.0000
  H   H43       1.0  0.23950  0.84470  0.12020  1.0000
  H   H44       1.0  0.76050  0.65530  0.62020  1.0000
  H   H45       1.0  0.26050  0.84470  0.37980  1.0000
  H   H46       1.0  0.73950  0.65530  0.87980  1.0000
  H   H47       1.0  0.73950  0.34470  0.12020  1.0000
  H   H48       1.0  0.26050  0.15530  0.62020  1.0000
  C   C97       1.0  0.26175  0.72297  0.63993  1.0000
  C   C98       1.0  0.73825  0.77703  0.13993  1.0000
  C   C99       1.0  0.73825  0.22297  0.86007  1.0000
  C   C100      1.0  0.26175  0.27703  0.36007  1.0000
  C   C101      1.0  0.76175  0.22297  0.63993  1.0000
  C   C102      1.0  0.23825  0.27703  0.13993  1.0000
  C   C103      1.0  0.23825  0.72297  0.86007  1.0000
  C   C104      1.0  0.76175  0.77703  0.36007  1.0000
  C   C105      1.0  0.73825  0.27703  0.36007  1.0000
  C   C106      1.0  0.26175  0.22297  0.86007  1.0000
  C   C107      1.0  0.26175  0.77703  0.13993  1.0000
  C   C108      1.0  0.73825  0.72297  0.63993  1.0000
  C   C109      1.0  0.23825  0.77703  0.36007  1.0000
  C   C110      1.0  0.76175  0.72297  0.86007  1.0000
  C   C111      1.0  0.76175  0.27703  0.13993  1.0000
  C   C112      1.0  0.23825  0.22297  0.63993  1.0000
  H   H49       1.0  0.24070  0.73180  0.66530  1.0000
  H   H50       1.0  0.75930  0.76820  0.16530  1.0000
  H   H51       1.0  0.75930  0.23180  0.83470  1.0000
  H   H52       1.0  0.24070  0.26820  0.33470  1.0000
  H   H53       1.0  0.74070  0.23180  0.66530  1.0000
  H   H54       1.0  0.25930  0.26820  0.16530  1.0000
  H   H55       1.0  0.25930  0.73180  0.83470  1.0000
  H   H56       1.0  0.74070  0.76820  0.33470  1.0000
  H   H57       1.0  0.75930  0.26820  0.33470  1.0000
  H   H58       1.0  0.24070  0.23180  0.83470  1.0000
  H   H59       1.0  0.24070  0.76820  0.16530  1.0000
  H   H60       1.0  0.75930  0.73180  0.66530  1.0000
  H   H61       1.0  0.25930  0.76820  0.33470  1.0000
  H   H62       1.0  0.74070  0.73180  0.83470  1.0000
  H   H63       1.0  0.74070  0.26820  0.16530  1.0000
  H   H64       1.0  0.25930  0.23180  0.66530  1.0000
  C   C113      1.0  0.30061  0.61303  0.48925  1.0000
  C   C114      1.0  0.69939  0.88697  0.98925  1.0000
  C   C115      1.0  0.69939  0.11303  0.01075  1.0000
  C   C116      1.0  0.30061  0.38697  0.51075  1.0000
  C   C117      1.0  0.80061  0.11303  0.48925  1.0000
  C   C118      1.0  0.19939  0.38697  0.98925  1.0000
  C   C119      1.0  0.19939  0.61303  0.01075  1.0000
  C   C120      1.0  0.80061  0.88697  0.51075  1.0000
  C   C121      1.0  0.69939  0.38697  0.51075  1.0000
  C   C122      1.0  0.30061  0.11303  0.01075  1.0000
  C   C123      1.0  0.30061  0.88697  0.98925  1.0000
  C   C124      1.0  0.69939  0.61303  0.48925  1.0000
  C   C125      1.0  0.19939  0.88697  0.51075  1.0000
  C   C126      1.0  0.80061  0.61303  0.01075  1.0000
  C   C127      1.0  0.80061  0.38697  0.98925  1.0000
  C   C128      1.0  0.19939  0.11303  0.48925  1.0000
  C   C129      1.0  0.29158  0.65026  0.45002  1.0000
  C   C130      1.0  0.70842  0.84974  0.95002  1.0000
  C   C131      1.0  0.70842  0.15026  0.04998  1.0000
  C   C132      1.0  0.29158  0.34974  0.54998  1.0000
  C   C133      1.0  0.79158  0.15026  0.45002  1.0000
  C   C134      1.0  0.20842  0.34974  0.95002  1.0000
  C   C135      1.0  0.20842  0.65026  0.04998  1.0000
  C   C136      1.0  0.79158  0.84974  0.54998  1.0000
  C   C137      1.0  0.70842  0.34974  0.54998  1.0000
  C   C138      1.0  0.29158  0.15026  0.04998  1.0000
  C   C139      1.0  0.29158  0.84974  0.95002  1.0000
  C   C140      1.0  0.70842  0.65026  0.45002  1.0000
  C   C141      1.0  0.20842  0.84974  0.54998  1.0000
  C   C142      1.0  0.79158  0.65026  0.04998  1.0000
  C   C143      1.0  0.79158  0.34974  0.95002  1.0000
  C   C144      1.0  0.20842  0.15026  0.45002  1.0000
  H   H65       1.0  0.27910  0.67980  0.46310  1.0000
  H   H66       1.0  0.72090  0.82020  0.96310  1.0000
  H   H67       1.0  0.72090  0.17980  0.03690  1.0000
  H   H68       1.0  0.27910  0.32020  0.53690  1.0000
  H   H69       1.0  0.77910  0.17980  0.46310  1.0000
  H   H70       1.0  0.22090  0.32020  0.96310  1.0000
  H   H71       1.0  0.22090  0.67980  0.03690  1.0000
  H   H72       1.0  0.77910  0.82020  0.53690  1.0000
  H   H73       1.0  0.72090  0.32020  0.53690  1.0000
  H   H74       1.0  0.27910  0.17980  0.03690  1.0000
  H   H75       1.0  0.27910  0.82020  0.96310  1.0000
  H   H76       1.0  0.72090  0.67980  0.46310  1.0000
  H   H77       1.0  0.22090  0.82020  0.53690  1.0000
  H   H78       1.0  0.77910  0.67980  0.03690  1.0000
  H   H79       1.0  0.77910  0.32020  0.96310  1.0000
  H   H80       1.0  0.22090  0.17980  0.46310  1.0000
  C   C145      1.0  0.30031  0.64501  0.39310  1.0000
  C   C146      1.0  0.69969  0.85499  0.89310  1.0000
  C   C147      1.0  0.69969  0.14501  0.10690  1.0000
  C   C148      1.0  0.30031  0.35499  0.60690  1.0000
  C   C149      1.0  0.80031  0.14501  0.39310  1.0000
  C   C150      1.0  0.19969  0.35499  0.89310  1.0000
  C   C151      1.0  0.19969  0.64501  0.10690  1.0000
  C   C152      1.0  0.80031  0.85499  0.60690  1.0000
  C   C153      1.0  0.69969  0.35499  0.60690  1.0000
  C   C154      1.0  0.30031  0.14501  0.10690  1.0000
  C   C155      1.0  0.30031  0.85499  0.89310  1.0000
  C   C156      1.0  0.69969  0.64501  0.39310  1.0000
  C   C157      1.0  0.19969  0.85499  0.60690  1.0000
  C   C158      1.0  0.80031  0.64501  0.10690  1.0000
  C   C159      1.0  0.80031  0.35499  0.89310  1.0000
  C   C160      1.0  0.19969  0.14501  0.39310  1.0000
  H   H81       1.0  0.29420  0.67110  0.36700  1.0000
  H   H82       1.0  0.70580  0.82890  0.86700  1.0000
  H   H83       1.0  0.70580  0.17110  0.13300  1.0000
  H   H84       1.0  0.29420  0.32890  0.63300  1.0000
  H   H85       1.0  0.79420  0.17110  0.36700  1.0000
  H   H86       1.0  0.20580  0.32890  0.86700  1.0000
  H   H87       1.0  0.20580  0.67110  0.13300  1.0000
  H   H88       1.0  0.79420  0.82890  0.63300  1.0000
  H   H89       1.0  0.70580  0.32890  0.63300  1.0000
  H   H90       1.0  0.29420  0.17110  0.13300  1.0000
  H   H91       1.0  0.29420  0.82890  0.86700  1.0000
  H   H92       1.0  0.70580  0.67110  0.36700  1.0000
  H   H93       1.0  0.20580  0.82890  0.63300  1.0000
  H   H94       1.0  0.79420  0.67110  0.13300  1.0000
  H   H95       1.0  0.79420  0.32890  0.86700  1.0000
  H   H96       1.0  0.20580  0.17110  0.36700  1.0000
  C   C161      1.0  0.31821  0.60160  0.37252  1.0000
  C   C162      1.0  0.68179  0.89840  0.87252  1.0000
  C   C163      1.0  0.68179  0.10160  0.12748  1.0000
  C   C164      1.0  0.31821  0.39840  0.62748  1.0000
  C   C165      1.0  0.81821  0.10160  0.37252  1.0000
  C   C166      1.0  0.18179  0.39840  0.87252  1.0000
  C   C167      1.0  0.18179  0.60160  0.12748  1.0000
  C   C168      1.0  0.81821  0.89840  0.62748  1.0000
  C   C169      1.0  0.68179  0.39840  0.62748  1.0000
  C   C170      1.0  0.31821  0.10160  0.12748  1.0000
  C   C171      1.0  0.31821  0.89840  0.87252  1.0000
  C   C172      1.0  0.68179  0.60160  0.37252  1.0000
  C   C173      1.0  0.18179  0.89840  0.62748  1.0000
  C   C174      1.0  0.81821  0.60160  0.12748  1.0000
  C   C175      1.0  0.81821  0.39840  0.87252  1.0000
  C   C176      1.0  0.18179  0.10160  0.37252  1.0000
  C   C177      1.0  0.32764  0.56446  0.41174  1.0000
  C   C178      1.0  0.67236  0.93554  0.91174  1.0000
  C   C179      1.0  0.67236  0.06446  0.08826  1.0000
  C   C180      1.0  0.32764  0.43554  0.58826  1.0000
  C   C181      1.0  0.82764  0.06446  0.41174  1.0000
  C   C182      1.0  0.17236  0.43554  0.91174  1.0000
  C   C183      1.0  0.17236  0.56446  0.08826  1.0000
  C   C184      1.0  0.82764  0.93554  0.58826  1.0000
  C   C185      1.0  0.67236  0.43554  0.58826  1.0000
  C   C186      1.0  0.32764  0.06446  0.08826  1.0000
  C   C187      1.0  0.32764  0.93554  0.91174  1.0000
  C   C188      1.0  0.67236  0.56446  0.41174  1.0000
  C   C189      1.0  0.17236  0.93554  0.58826  1.0000
  C   C190      1.0  0.82764  0.56446  0.08826  1.0000
  C   C191      1.0  0.82764  0.43554  0.91174  1.0000
  C   C192      1.0  0.17236  0.06446  0.41174  1.0000
  H   H97       1.0  0.34020  0.53500  0.39870  1.0000
  H   H98       1.0  0.65980  0.96500  0.89870  1.0000
  H   H99       1.0  0.65980  0.03500  0.10130  1.0000
  H   H100      1.0  0.34020  0.46500  0.60130  1.0000
  H   H101      1.0  0.84020  0.03500  0.39870  1.0000
  H   H102      1.0  0.15980  0.46500  0.89870  1.0000
  H   H103      1.0  0.15980  0.53500  0.10130  1.0000
  H   H104      1.0  0.84020  0.96500  0.60130  1.0000
  H   H105      1.0  0.65980  0.46500  0.60130  1.0000
  H   H106      1.0  0.34020  0.03500  0.10130  1.0000
  H   H107      1.0  0.34020  0.96500  0.89870  1.0000
  H   H108      1.0  0.65980  0.53500  0.39870  1.0000
  H   H109      1.0  0.15980  0.96500  0.60130  1.0000
  H   H110      1.0  0.84020  0.53500  0.10130  1.0000
  H   H111      1.0  0.84020  0.46500  0.89870  1.0000
  H   H112      1.0  0.15980  0.03500  0.39870  1.0000
  C   C193      1.0  0.31895  0.56989  0.46913  1.0000
  C   C194      1.0  0.68105  0.93011  0.96913  1.0000
  C   C195      1.0  0.68105  0.06989  0.03087  1.0000
  C   C196      1.0  0.31895  0.43011  0.53087  1.0000
  C   C197      1.0  0.81895  0.06989  0.46913  1.0000
  C   C198      1.0  0.18105  0.43011  0.96913  1.0000
  C   C199      1.0  0.18105  0.56989  0.03087  1.0000
  C   C200      1.0  0.81895  0.93011  0.53087  1.0000
  C   C201      1.0  0.68105  0.43011  0.53087  1.0000
  C   C202      1.0  0.31895  0.06989  0.03087  1.0000
  C   C203      1.0  0.31895  0.93011  0.96913  1.0000
  C   C204      1.0  0.68105  0.56989  0.46913  1.0000
  C   C205      1.0  0.18105  0.93011  0.53087  1.0000
  C   C206      1.0  0.81895  0.56989  0.03087  1.0000
  C   C207      1.0  0.81895  0.43011  0.96913  1.0000
  C   C208      1.0  0.18105  0.06989  0.46913  1.0000
  H   H113      1.0  0.32550  0.54410  0.49540  1.0000
  H   H114      1.0  0.67450  0.95590  0.99540  1.0000
  H   H115      1.0  0.67450  0.04410  0.00460  1.0000
  H   H116      1.0  0.32550  0.45590  0.50460  1.0000
  H   H117      1.0  0.82550  0.04410  0.49540  1.0000
  H   H118      1.0  0.17450  0.45590  0.99540  1.0000
  H   H119      1.0  0.17450  0.54410  0.00460  1.0000
  H   H120      1.0  0.82550  0.95590  0.50460  1.0000
  H   H121      1.0  0.67450  0.45590  0.50460  1.0000
  H   H122      1.0  0.32550  0.04410  0.00460  1.0000
  H   H123      1.0  0.32550  0.95590  0.99540  1.0000
  H   H124      1.0  0.67450  0.54410  0.49540  1.0000
  H   H125      1.0  0.17450  0.95590  0.50460  1.0000
  H   H126      1.0  0.82550  0.54410  0.00460  1.0000
  H   H127      1.0  0.82550  0.45590  0.99540  1.0000
  H   H128      1.0  0.17450  0.04410  0.49540  1.0000
  C   C209      1.0  0.32703  0.59550  0.31046  1.0000
  C   C210      1.0  0.67297  0.90450  0.81046  1.0000
  C   C211      1.0  0.67297  0.09550  0.18954  1.0000
  C   C212      1.0  0.32703  0.40450  0.68954  1.0000
  C   C213      1.0  0.82703  0.09550  0.31046  1.0000
  C   C214      1.0  0.17297  0.40450  0.81046  1.0000
  C   C215      1.0  0.17297  0.59550  0.18954  1.0000
  C   C216      1.0  0.82703  0.90450  0.68954  1.0000
  C   C217      1.0  0.67297  0.40450  0.68954  1.0000
  C   C218      1.0  0.32703  0.09550  0.18954  1.0000
  C   C219      1.0  0.32703  0.90450  0.81046  1.0000
  C   C220      1.0  0.67297  0.59550  0.31046  1.0000
  C   C221      1.0  0.17297  0.90450  0.68954  1.0000
  C   C222      1.0  0.82703  0.59550  0.18954  1.0000
  C   C223      1.0  0.82703  0.40450  0.81046  1.0000
  C   C224      1.0  0.17297  0.09550  0.31046  1.0000
  C   C225      1.0  0.27287  0.57621  0.57717  1.0000
  C   C226      1.0  0.72713  0.92379  0.07717  1.0000
  C   C227      1.0  0.72713  0.07621  0.92283  1.0000
  C   C228      1.0  0.27287  0.42379  0.42283  1.0000
  C   C229      1.0  0.77287  0.07621  0.57717  1.0000
  C   C230      1.0  0.22713  0.42379  0.07717  1.0000
  C   C231      1.0  0.22713  0.57621  0.92283  1.0000
  C   C232      1.0  0.77287  0.92379  0.42283  1.0000
  C   C233      1.0  0.72713  0.42379  0.42283  1.0000
  C   C234      1.0  0.27287  0.07621  0.92283  1.0000
  C   C235      1.0  0.27287  0.92379  0.07717  1.0000
  C   C236      1.0  0.72713  0.57621  0.57717  1.0000
  C   C237      1.0  0.22713  0.92379  0.42283  1.0000
  C   C238      1.0  0.77287  0.57621  0.92283  1.0000
  C   C239      1.0  0.77287  0.42379  0.07717  1.0000
  C   C240      1.0  0.22713  0.07621  0.57717  1.0000
  C   C241      1.0  0.24038  0.55254  0.55289  1.0000
  C   C242      1.0  0.75962  0.94746  0.05289  1.0000
  C   C243      1.0  0.75962  0.05254  0.94711  1.0000
  C   C244      1.0  0.24038  0.44746  0.44711  1.0000
  C   C245      1.0  0.74038  0.05254  0.55289  1.0000
  C   C246      1.0  0.25962  0.44746  0.05289  1.0000
  C   C247      1.0  0.25962  0.55254  0.94711  1.0000
  C   C248      1.0  0.74038  0.94746  0.44711  1.0000
  C   C249      1.0  0.75962  0.44746  0.44711  1.0000
  C   C250      1.0  0.24038  0.05254  0.94711  1.0000
  C   C251      1.0  0.24038  0.94746  0.05289  1.0000
  C   C252      1.0  0.75962  0.55254  0.55289  1.0000
  C   C253      1.0  0.25962  0.94746  0.44711  1.0000
  C   C254      1.0  0.74038  0.55254  0.94711  1.0000
  C   C255      1.0  0.74038  0.44746  0.05289  1.0000
  C   C256      1.0  0.25962  0.05254  0.55289  1.0000
  H   H129      1.0  0.23050  0.56280  0.51640  1.0000
  H   H130      1.0  0.76950  0.93720  0.01640  1.0000
  H   H131      1.0  0.76950  0.06280  0.98360  1.0000
  H   H132      1.0  0.23050  0.43720  0.48360  1.0000
  H   H133      1.0  0.73050  0.06280  0.51640  1.0000
  H   H134      1.0  0.26950  0.43720  0.01640  1.0000
  H   H135      1.0  0.26950  0.56280  0.98360  1.0000
  H   H136      1.0  0.73050  0.93720  0.48360  1.0000
  H   H137      1.0  0.76950  0.43720  0.48360  1.0000
  H   H138      1.0  0.23050  0.06280  0.98360  1.0000
  H   H139      1.0  0.23050  0.93720  0.01640  1.0000
  H   H140      1.0  0.76950  0.56280  0.51640  1.0000
  H   H141      1.0  0.26950  0.93720  0.48360  1.0000
  H   H142      1.0  0.73050  0.56280  0.98360  1.0000
  H   H143      1.0  0.73050  0.43720  0.01640  1.0000
  H   H144      1.0  0.26950  0.06280  0.51640  1.0000
  C   C257      1.0  0.22239  0.51370  0.58226  1.0000
  C   C258      1.0  0.77761  0.98630  0.08226  1.0000
  C   C259      1.0  0.77761  0.01370  0.91774  1.0000
  C   C260      1.0  0.22239  0.48630  0.41774  1.0000
  C   C261      1.0  0.72239  0.01370  0.58226  1.0000
  C   C262      1.0  0.27761  0.48630  0.08226  1.0000
  C   C263      1.0  0.27761  0.51370  0.91774  1.0000
  C   C264      1.0  0.72239  0.98630  0.41774  1.0000
  C   C265      1.0  0.77761  0.48630  0.41774  1.0000
  C   C266      1.0  0.22239  0.01370  0.91774  1.0000
  C   C267      1.0  0.22239  0.98630  0.08226  1.0000
  C   C268      1.0  0.77761  0.51370  0.58226  1.0000
  C   C269      1.0  0.27761  0.98630  0.41774  1.0000
  C   C270      1.0  0.72239  0.51370  0.91774  1.0000
  C   C271      1.0  0.72239  0.48630  0.08226  1.0000
  C   C272      1.0  0.27761  0.01370  0.58226  1.0000
  H   H145      1.0  0.19950  0.49820  0.56650  1.0000
  H   H146      1.0  0.80050  0.00180  0.06650  1.0000
  H   H147      1.0  0.80050  0.99820  0.93350  1.0000
  H   H148      1.0  0.19950  0.50180  0.43350  1.0000
  H   H149      1.0  0.69950  0.99820  0.56650  1.0000
  H   H150      1.0  0.30050  0.50180  0.06650  1.0000
  H   H151      1.0  0.30050  0.49820  0.93350  1.0000
  H   H152      1.0  0.69950  0.00180  0.43350  1.0000
  H   H153      1.0  0.80050  0.50180  0.43350  1.0000
  H   H154      1.0  0.19950  0.99820  0.93350  1.0000
  H   H155      1.0  0.19950  0.00180  0.06650  1.0000
  H   H156      1.0  0.80050  0.49820  0.56650  1.0000
  H   H157      1.0  0.30050  0.00180  0.43350  1.0000
  H   H158      1.0  0.69950  0.49820  0.93350  1.0000
  H   H159      1.0  0.69950  0.50180  0.06650  1.0000
  H   H160      1.0  0.30050  0.99820  0.56650  1.0000
  C   C273      1.0  0.23755  0.49751  0.63419  1.0000
  C   C274      1.0  0.76245  0.00249  0.13419  1.0000
  C   C275      1.0  0.76245  0.99751  0.86581  1.0000
  C   C276      1.0  0.23755  0.50249  0.36581  1.0000
  C   C277      1.0  0.73755  0.99751  0.63419  1.0000
  C   C278      1.0  0.26245  0.50249  0.13419  1.0000
  C   C279      1.0  0.26245  0.49751  0.86581  1.0000
  C   C280      1.0  0.73755  0.00249  0.36581  1.0000
  C   C281      1.0  0.76245  0.50249  0.36581  1.0000
  C   C282      1.0  0.23755  0.99751  0.86581  1.0000
  C   C283      1.0  0.23755  0.00249  0.13419  1.0000
  C   C284      1.0  0.76245  0.49751  0.63419  1.0000
  C   C285      1.0  0.26245  0.00249  0.36581  1.0000
  C   C286      1.0  0.73755  0.49751  0.86581  1.0000
  C   C287      1.0  0.73755  0.50249  0.13419  1.0000
  C   C288      1.0  0.26245  0.99751  0.63419  1.0000
  C   C289      1.0  0.27050  0.52071  0.65729  1.0000
  C   C290      1.0  0.72950  0.97929  0.15729  1.0000
  C   C291      1.0  0.72950  0.02071  0.84271  1.0000
  C   C292      1.0  0.27050  0.47929  0.34271  1.0000
  C   C293      1.0  0.77050  0.02071  0.65729  1.0000
  C   C294      1.0  0.22950  0.47929  0.15729  1.0000
  C   C295      1.0  0.22950  0.52071  0.84271  1.0000
  C   C296      1.0  0.77050  0.97929  0.34271  1.0000
  C   C297      1.0  0.72950  0.47929  0.34271  1.0000
  C   C298      1.0  0.27050  0.02071  0.84271  1.0000
  C   C299      1.0  0.27050  0.97929  0.15729  1.0000
  C   C300      1.0  0.72950  0.52071  0.65729  1.0000
  C   C301      1.0  0.22950  0.97929  0.34271  1.0000
  C   C302      1.0  0.77050  0.52071  0.84271  1.0000
  C   C303      1.0  0.77050  0.47929  0.15729  1.0000
  C   C304      1.0  0.22950  0.02071  0.65729  1.0000
  H   H161      1.0  0.28150  0.50900  0.69250  1.0000
  H   H162      1.0  0.71850  0.99100  0.19250  1.0000
  H   H163      1.0  0.71850  0.00900  0.80750  1.0000
  H   H164      1.0  0.28150  0.49100  0.30750  1.0000
  H   H165      1.0  0.78150  0.00900  0.69250  1.0000
  H   H166      1.0  0.21850  0.49100  0.19250  1.0000
  H   H167      1.0  0.21850  0.50900  0.80750  1.0000
  H   H168      1.0  0.78150  0.99100  0.30750  1.0000
  H   H169      1.0  0.71850  0.49100  0.30750  1.0000
  H   H170      1.0  0.28150  0.00900  0.80750  1.0000
  H   H171      1.0  0.28150  0.99100  0.19250  1.0000
  H   H172      1.0  0.71850  0.50900  0.69250  1.0000
  H   H173      1.0  0.21850  0.99100  0.30750  1.0000
  H   H174      1.0  0.78150  0.50900  0.80750  1.0000
  H   H175      1.0  0.78150  0.49100  0.19250  1.0000
  H   H176      1.0  0.21850  0.00900  0.69250  1.0000
  C   C305      1.0  0.28758  0.56068  0.62976  1.0000
  C   C306      1.0  0.71242  0.93932  0.12976  1.0000
  C   C307      1.0  0.71242  0.06068  0.87024  1.0000
  C   C308      1.0  0.28758  0.43932  0.37024  1.0000
  C   C309      1.0  0.78758  0.06068  0.62976  1.0000
  C   C310      1.0  0.21242  0.43932  0.12976  1.0000
  C   C311      1.0  0.21242  0.56068  0.87024  1.0000
  C   C312      1.0  0.78758  0.93932  0.37024  1.0000
  C   C313      1.0  0.71242  0.43932  0.37024  1.0000
  C   C314      1.0  0.28758  0.06068  0.87024  1.0000
  C   C315      1.0  0.28758  0.93932  0.12976  1.0000
  C   C316      1.0  0.71242  0.56068  0.62976  1.0000
  C   C317      1.0  0.21242  0.93932  0.37024  1.0000
  C   C318      1.0  0.78758  0.56068  0.87024  1.0000
  C   C319      1.0  0.78758  0.43932  0.12976  1.0000
  C   C320      1.0  0.21242  0.06068  0.62976  1.0000
  H   H177      1.0  0.30940  0.57750  0.64690  1.0000
  H   H178      1.0  0.69060  0.92250  0.14690  1.0000
  H   H179      1.0  0.69060  0.07750  0.85310  1.0000
  H   H180      1.0  0.30940  0.42250  0.35310  1.0000
  H   H181      1.0  0.80940  0.07750  0.64690  1.0000
  H   H182      1.0  0.19060  0.42250  0.14690  1.0000
  H   H183      1.0  0.19060  0.57750  0.85310  1.0000
  H   H184      1.0  0.80940  0.92250  0.35310  1.0000
  H   H185      1.0  0.69060  0.42250  0.35310  1.0000
  H   H186      1.0  0.30940  0.07750  0.85310  1.0000
  H   H187      1.0  0.30940  0.92250  0.14690  1.0000
  H   H188      1.0  0.69060  0.57750  0.64690  1.0000
  H   H189      1.0  0.19060  0.92250  0.35310  1.0000
  H   H190      1.0  0.80940  0.57750  0.85310  1.0000
  H   H191      1.0  0.80940  0.42250  0.14690  1.0000
  H   H192      1.0  0.19060  0.07750  0.64690  1.0000
  C   C321      1.0  0.21966  0.45359  0.66427  1.0000
  C   C322      1.0  0.78034  0.04641  0.16427  1.0000
  C   C323      1.0  0.78034  0.95359  0.83573  1.0000
  C   C324      1.0  0.21966  0.54641  0.33573  1.0000
  C   C325      1.0  0.71966  0.95359  0.66427  1.0000
  C   C326      1.0  0.28034  0.54641  0.16427  1.0000
  C   C327      1.0  0.28034  0.45359  0.83573  1.0000
  C   C328      1.0  0.71966  0.04641  0.33573  1.0000
  C   C329      1.0  0.78034  0.54641  0.33573  1.0000
  C   C330      1.0  0.21966  0.95359  0.83573  1.0000
  C   C331      1.0  0.21966  0.04641  0.16427  1.0000
  C   C332      1.0  0.78034  0.45359  0.66427  1.0000
  C   C333      1.0  0.28034  0.04641  0.33573  1.0000
  C   C334      1.0  0.71966  0.45359  0.83573  1.0000
  C   C335      1.0  0.71966  0.54641  0.16427  1.0000
  C   C336      1.0  0.28034  0.95359  0.66427  1.0000
  C   C337      1.0  0.41395  0.87065  0.70870  1.0000
  C   C338      1.0  0.58605  0.62935  0.20870  1.0000
  C   C339      1.0  0.58605  0.37065  0.79130  1.0000
  C   C340      1.0  0.41395  0.12935  0.29130  1.0000
  C   C341      1.0  0.91395  0.37065  0.70870  1.0000
  C   C342      1.0  0.08605  0.12935  0.20870  1.0000
  C   C343      1.0  0.08605  0.87065  0.79130  1.0000
  C   C344      1.0  0.91395  0.62935  0.29130  1.0000
  C   C345      1.0  0.58605  0.12935  0.29130  1.0000
  C   C346      1.0  0.41395  0.37065  0.79130  1.0000
  C   C347      1.0  0.41395  0.62935  0.20870  1.0000
  C   C348      1.0  0.58605  0.87065  0.70870  1.0000
  C   C349      1.0  0.08605  0.62935  0.29130  1.0000
  C   C350      1.0  0.91395  0.87065  0.79130  1.0000
  C   C351      1.0  0.91395  0.12935  0.20870  1.0000
  C   C352      1.0  0.08605  0.37065  0.70870  1.0000
  C   C353      1.0  0.45852  0.86938  0.70820  1.0000
  C   C354      1.0  0.54148  0.63062  0.20820  1.0000
  C   C355      1.0  0.54148  0.36938  0.79180  1.0000
  C   C356      1.0  0.45852  0.13062  0.29180  1.0000
  C   C357      1.0  0.95852  0.36938  0.70820  1.0000
  C   C358      1.0  0.04148  0.13062  0.20820  1.0000
  C   C359      1.0  0.04148  0.86938  0.79180  1.0000
  C   C360      1.0  0.95852  0.63062  0.29180  1.0000
  C   C361      1.0  0.54148  0.13062  0.29180  1.0000
  C   C362      1.0  0.45852  0.36938  0.79180  1.0000
  C   C363      1.0  0.45852  0.63062  0.20820  1.0000
  C   C364      1.0  0.54148  0.86938  0.70820  1.0000
  C   C365      1.0  0.04148  0.63062  0.29180  1.0000
  C   C366      1.0  0.95852  0.86938  0.79180  1.0000
  C   C367      1.0  0.95852  0.13062  0.20820  1.0000
  C   C368      1.0  0.04148  0.36938  0.70820  1.0000
  C   C369      1.0  0.47944  0.83530  0.74040  1.0000
  C   C370      1.0  0.52056  0.66470  0.24040  1.0000
  C   C371      1.0  0.52056  0.33530  0.75960  1.0000
  C   C372      1.0  0.47944  0.16470  0.25960  1.0000
  C   C373      1.0  0.97944  0.33530  0.74040  1.0000
  C   C374      1.0  0.02056  0.16470  0.24040  1.0000
  C   C375      1.0  0.02056  0.83530  0.75960  1.0000
  C   C376      1.0  0.97944  0.66470  0.25960  1.0000
  C   C377      1.0  0.52056  0.16470  0.25960  1.0000
  C   C378      1.0  0.47944  0.33530  0.75960  1.0000
  C   C379      1.0  0.47944  0.66470  0.24040  1.0000
  C   C380      1.0  0.52056  0.83530  0.74040  1.0000
  C   C381      1.0  0.02056  0.66470  0.25960  1.0000
  C   C382      1.0  0.97944  0.83530  0.75960  1.0000
  C   C383      1.0  0.97944  0.16470  0.24040  1.0000
  C   C384      1.0  0.02056  0.33530  0.74040  1.0000
  H   H193      1.0  0.46540  0.81150  0.76290  1.0000
  H   H194      1.0  0.53460  0.68850  0.26290  1.0000
  H   H195      1.0  0.53460  0.31150  0.73710  1.0000
  H   H196      1.0  0.46540  0.18850  0.23710  1.0000
  H   H197      1.0  0.96540  0.31150  0.76290  1.0000
  H   H198      1.0  0.03460  0.18850  0.26290  1.0000
  H   H199      1.0  0.03460  0.81150  0.73710  1.0000
  H   H200      1.0  0.96540  0.68850  0.23710  1.0000
  H   H201      1.0  0.53460  0.18850  0.23710  1.0000
  H   H202      1.0  0.46540  0.31150  0.73710  1.0000
  H   H203      1.0  0.46540  0.68850  0.26290  1.0000
  H   H204      1.0  0.53460  0.81150  0.76290  1.0000
  H   H205      1.0  0.03460  0.68850  0.23710  1.0000
  H   H206      1.0  0.96540  0.81150  0.73710  1.0000
  H   H207      1.0  0.96540  0.18850  0.26290  1.0000
  H   H208      1.0  0.03460  0.31150  0.76290  1.0000
  C   C385      1.0  0.47886  0.90386  0.67590  1.0000
  C   C386      1.0  0.52114  0.59614  0.17590  1.0000
  C   C387      1.0  0.52114  0.40386  0.82410  1.0000
  C   C388      1.0  0.47886  0.09614  0.32410  1.0000
  C   C389      1.0  0.97886  0.40386  0.67590  1.0000
  C   C390      1.0  0.02114  0.09614  0.17590  1.0000
  C   C391      1.0  0.02114  0.90386  0.82410  1.0000
  C   C392      1.0  0.97886  0.59614  0.32410  1.0000
  C   C393      1.0  0.52114  0.09614  0.32410  1.0000
  C   C394      1.0  0.47886  0.40386  0.82410  1.0000
  C   C395      1.0  0.47886  0.59614  0.17590  1.0000
  C   C396      1.0  0.52114  0.90386  0.67590  1.0000
  C   C397      1.0  0.02114  0.59614  0.32410  1.0000
  C   C398      1.0  0.97886  0.90386  0.82410  1.0000
  C   C399      1.0  0.97886  0.09614  0.17590  1.0000
  C   C400      1.0  0.02114  0.40386  0.67590  1.0000
  H   H209      1.0  0.46470  0.92760  0.65370  1.0000
  H   H210      1.0  0.53530  0.57240  0.15370  1.0000
  H   H211      1.0  0.53530  0.42760  0.84630  1.0000
  H   H212      1.0  0.46470  0.07240  0.34630  1.0000
  H   H213      1.0  0.96470  0.42760  0.65370  1.0000
  H   H214      1.0  0.03530  0.07240  0.15370  1.0000
  H   H215      1.0  0.03530  0.92760  0.84630  1.0000
  H   H216      1.0  0.96470  0.57240  0.34630  1.0000
  H   H217      1.0  0.53530  0.07240  0.34630  1.0000
  H   H218      1.0  0.46470  0.42760  0.84630  1.0000
  H   H219      1.0  0.46470  0.57240  0.15370  1.0000
  H   H220      1.0  0.53530  0.92760  0.65370  1.0000
  H   H221      1.0  0.03530  0.57240  0.34630  1.0000
  H   H222      1.0  0.96470  0.92760  0.84630  1.0000
  H   H223      1.0  0.96470  0.07240  0.15370  1.0000
  H   H224      1.0  0.03530  0.42760  0.65370  1.0000
