data_image0
_chemical_formula_structural       C24H8C16H8C16H8C24H8C40H8C8H8C16H8C16H8C16H8C16In4O16H8O48H8
_chemical_formula_sum              "C192 H88 In4 O64"
_cell_length_a       27.8539
_cell_length_b       11.6538
_cell_length_c       33.5236
_cell_angle_alpha    90
_cell_angle_beta     99.148
_cell_angle_gamma    90

_space_group_name_H-M_alt    "P 1"
_space_group_IT_number       1

loop_
  _space_group_symop_operation_xyz
  'x, y, z'

loop_
  _atom_site_type_symbol
  _atom_site_label
  _atom_site_symmetry_multiplicity
  _atom_site_fract_x
  _atom_site_fract_y
  _atom_site_fract_z
  _atom_site_occupancy
  C   C1        1.0  0.81503  0.24060  0.35660  1.0000
  C   C2        1.0  0.18497  0.24060  0.14340  1.0000
  C   C3        1.0  0.31503  0.74060  0.35660  1.0000
  C   C4        1.0  0.68497  0.74060  0.14340  1.0000
  C   C5        1.0  0.18497  0.75940  0.64340  1.0000
  C   C6        1.0  0.81503  0.75940  0.85660  1.0000
  C   C7        1.0  0.68497  0.25940  0.64340  1.0000
  C   C8        1.0  0.31503  0.25940  0.85660  1.0000
  C   C9        1.0  0.86800  0.24750  0.35729  1.0000
  C   C10       1.0  0.13200  0.24750  0.14271  1.0000
  C   C11       1.0  0.36800  0.74750  0.35729  1.0000
  C   C12       1.0  0.63200  0.74750  0.14271  1.0000
  C   C13       1.0  0.13200  0.75250  0.64271  1.0000
  C   C14       1.0  0.86800  0.75250  0.85729  1.0000
  C   C15       1.0  0.63200  0.25250  0.64271  1.0000
  C   C16       1.0  0.36800  0.25250  0.85729  1.0000
  C   C17       1.0  0.89031  0.18810  0.32861  1.0000
  C   C18       1.0  0.10969  0.18810  0.17139  1.0000
  C   C19       1.0  0.39031  0.68810  0.32861  1.0000
  C   C20       1.0  0.60969  0.68810  0.17139  1.0000
  C   C21       1.0  0.10969  0.81190  0.67139  1.0000
  C   C22       1.0  0.89031  0.81190  0.82861  1.0000
  C   C23       1.0  0.60969  0.31190  0.67139  1.0000
  C   C24       1.0  0.39031  0.31190  0.82861  1.0000
  H   H1        1.0  0.87190  0.14070  0.30980  1.0000
  H   H2        1.0  0.12810  0.14070  0.19020  1.0000
  H   H3        1.0  0.37190  0.64070  0.30980  1.0000
  H   H4        1.0  0.62810  0.64070  0.19020  1.0000
  H   H5        1.0  0.12810  0.85930  0.69020  1.0000
  H   H6        1.0  0.87190  0.85930  0.80980  1.0000
  H   H7        1.0  0.62810  0.35930  0.69020  1.0000
  H   H8        1.0  0.37190  0.35930  0.80980  1.0000
  C   C25       1.0  0.93933  0.20010  0.32851  1.0000
  C   C26       1.0  0.06067  0.20010  0.17149  1.0000
  C   C27       1.0  0.43933  0.70010  0.32851  1.0000
  C   C28       1.0  0.56067  0.70010  0.17149  1.0000
  C   C29       1.0  0.06067  0.79990  0.67149  1.0000
  C   C30       1.0  0.93933  0.79990  0.82851  1.0000
  C   C31       1.0  0.56067  0.29990  0.67149  1.0000
  C   C32       1.0  0.43933  0.29990  0.82851  1.0000
  C   C33       1.0  0.96694  0.27020  0.35620  1.0000
  C   C34       1.0  0.03306  0.27020  0.14380  1.0000
  C   C35       1.0  0.46694  0.77020  0.35620  1.0000
  C   C36       1.0  0.53306  0.77020  0.14380  1.0000
  C   C37       1.0  0.03306  0.72980  0.64380  1.0000
  C   C38       1.0  0.96694  0.72980  0.85620  1.0000
  C   C39       1.0  0.53306  0.22980  0.64380  1.0000
  C   C40       1.0  0.46694  0.22980  0.85620  1.0000
  H   H9        1.0  0.00010  0.27730  0.35570  1.0000
  H   H10       1.0  0.99990  0.27730  0.14430  1.0000
  H   H11       1.0  0.50010  0.77730  0.35570  1.0000
  H   H12       1.0  0.49990  0.77730  0.14430  1.0000
  H   H13       1.0  0.99990  0.72270  0.64430  1.0000
  H   H14       1.0  0.00010  0.72270  0.85570  1.0000
  H   H15       1.0  0.49990  0.22270  0.64430  1.0000
  H   H16       1.0  0.50010  0.22270  0.85570  1.0000
  C   C41       1.0  0.94617  0.33040  0.38485  1.0000
  C   C42       1.0  0.05383  0.33040  0.11515  1.0000
  C   C43       1.0  0.44617  0.83040  0.38485  1.0000
  C   C44       1.0  0.55383  0.83040  0.11515  1.0000
  C   C45       1.0  0.05383  0.66960  0.61515  1.0000
  C   C46       1.0  0.94617  0.66960  0.88485  1.0000
  C   C47       1.0  0.55383  0.16960  0.61515  1.0000
  C   C48       1.0  0.44617  0.16960  0.88485  1.0000
  C   C49       1.0  0.89672  0.31920  0.38433  1.0000
  C   C50       1.0  0.10328  0.31920  0.11567  1.0000
  C   C51       1.0  0.39672  0.81920  0.38433  1.0000
  C   C52       1.0  0.60328  0.81920  0.11567  1.0000
  C   C53       1.0  0.10328  0.68080  0.61567  1.0000
  C   C54       1.0  0.89672  0.68080  0.88433  1.0000
  C   C55       1.0  0.60328  0.18080  0.61567  1.0000
  C   C56       1.0  0.39672  0.18080  0.88433  1.0000
  H   H17       1.0  0.88210  0.36110  0.40270  1.0000
  H   H18       1.0  0.11790  0.36110  0.09730  1.0000
  H   H19       1.0  0.38210  0.86110  0.40270  1.0000
  H   H20       1.0  0.61790  0.86110  0.09730  1.0000
  H   H21       1.0  0.11790  0.63890  0.59730  1.0000
  H   H22       1.0  0.88210  0.63890  0.90270  1.0000
  H   H23       1.0  0.61790  0.13890  0.59730  1.0000
  H   H24       1.0  0.38210  0.13890  0.90270  1.0000
  C   C57       1.0  0.96337  0.13170  0.29849  1.0000
  C   C58       1.0  0.03663  0.13170  0.20151  1.0000
  C   C59       1.0  0.46337  0.63170  0.29849  1.0000
  C   C60       1.0  0.53663  0.63170  0.20151  1.0000
  C   C61       1.0  0.03663  0.86830  0.70151  1.0000
  C   C62       1.0  0.96337  0.86830  0.79849  1.0000
  C   C63       1.0  0.53663  0.36830  0.70151  1.0000
  C   C64       1.0  0.46337  0.36830  0.79849  1.0000
  C   C65       1.0  0.97508  0.41080  0.41249  1.0000
  C   C66       1.0  0.02492  0.41080  0.08751  1.0000
  C   C67       1.0  0.47508  0.91080  0.41249  1.0000
  C   C68       1.0  0.52492  0.91080  0.08751  1.0000
  C   C69       1.0  0.02492  0.58920  0.58751  1.0000
  C   C70       1.0  0.97508  0.58920  0.91249  1.0000
  C   C71       1.0  0.52492  0.08920  0.58751  1.0000
  C   C72       1.0  0.47508  0.08920  0.91249  1.0000
  C   C73       1.0  0.00253  0.49440  0.39667  1.0000
  C   C74       1.0  0.99747  0.49440  0.10333  1.0000
  C   C75       1.0  0.50253  0.99440  0.39667  1.0000
  C   C76       1.0  0.49747  0.99440  0.10333  1.0000
  C   C77       1.0  0.99747  0.50560  0.60333  1.0000
  C   C78       1.0  0.00253  0.50560  0.89667  1.0000
  C   C79       1.0  0.49747  0.00560  0.60333  1.0000
  C   C80       1.0  0.50253  0.00560  0.89667  1.0000
  H   H25       1.0  0.00320  0.49330  0.36900  1.0000
  H   H26       1.0  0.99680  0.49330  0.13100  1.0000
  H   H27       1.0  0.50320  0.99330  0.36900  1.0000
  H   H28       1.0  0.49680  0.99330  0.13100  1.0000
  H   H29       1.0  0.99680  0.50670  0.63100  1.0000
  H   H30       1.0  0.00320  0.50670  0.86900  1.0000
  H   H31       1.0  0.49680  0.00670  0.63100  1.0000
  H   H32       1.0  0.50320  0.00670  0.86900  1.0000
  C   C81       1.0  0.02853  0.57800  0.41927  1.0000
  C   C82       1.0  0.97147  0.57800  0.08073  1.0000
  C   C83       1.0  0.52853  0.07800  0.41927  1.0000
  C   C84       1.0  0.47147  0.07800  0.08073  1.0000
  C   C85       1.0  0.97147  0.42200  0.58073  1.0000
  C   C86       1.0  0.02853  0.42200  0.91927  1.0000
  C   C87       1.0  0.47147  0.92200  0.58073  1.0000
  C   C88       1.0  0.52853  0.92200  0.91927  1.0000
  C   C89       1.0  0.02761  0.58560  0.46086  1.0000
  C   C90       1.0  0.97239  0.58560  0.03914  1.0000
  C   C91       1.0  0.52761  0.08560  0.46086  1.0000
  C   C92       1.0  0.47239  0.08560  0.03914  1.0000
  C   C93       1.0  0.97239  0.41440  0.53914  1.0000
  C   C94       1.0  0.02761  0.41440  0.96086  1.0000
  C   C95       1.0  0.47239  0.91440  0.53914  1.0000
  C   C96       1.0  0.52761  0.91440  0.96086  1.0000
  C   C97       1.0  0.00070  0.49750  0.47857  1.0000
  C   C98       1.0  0.99930  0.49750  0.02143  1.0000
  C   C99       1.0  0.50070  0.99750  0.47857  1.0000
  C   C100      1.0  0.49930  0.99750  0.02143  1.0000
  C   C101      1.0  0.99930  0.50250  0.52143  1.0000
  C   C102      1.0  0.00070  0.50250  0.97857  1.0000
  C   C103      1.0  0.49930  0.00250  0.52143  1.0000
  C   C104      1.0  0.50070  0.00250  0.97857  1.0000
  C   C105      1.0  0.97516  0.40910  0.45488  1.0000
  C   C106      1.0  0.02484  0.40910  0.04512  1.0000
  C   C107      1.0  0.47516  0.90910  0.45488  1.0000
  C   C108      1.0  0.52484  0.90910  0.04512  1.0000
  C   C109      1.0  0.02484  0.59090  0.54512  1.0000
  C   C110      1.0  0.97516  0.59090  0.95488  1.0000
  C   C111      1.0  0.52484  0.09090  0.54512  1.0000
  C   C112      1.0  0.47516  0.09090  0.95488  1.0000
  C   C113      1.0  0.95229  0.32140  0.47405  1.0000
  C   C114      1.0  0.04771  0.32140  0.02595  1.0000
  C   C115      1.0  0.45229  0.82140  0.47405  1.0000
  C   C116      1.0  0.54771  0.82140  0.02595  1.0000
  C   C117      1.0  0.04771  0.67860  0.52595  1.0000
  C   C118      1.0  0.95229  0.67860  0.97405  1.0000
  C   C119      1.0  0.54771  0.17860  0.52595  1.0000
  C   C120      1.0  0.45229  0.17860  0.97405  1.0000
  H   H33       1.0  0.93770  0.26060  0.45880  1.0000
  H   H34       1.0  0.06230  0.26060  0.04120  1.0000
  H   H35       1.0  0.43770  0.76060  0.45880  1.0000
  H   H36       1.0  0.56230  0.76060  0.04120  1.0000
  H   H37       1.0  0.06230  0.73940  0.54120  1.0000
  H   H38       1.0  0.93770  0.73940  0.95880  1.0000
  H   H39       1.0  0.56230  0.23940  0.54120  1.0000
  H   H40       1.0  0.43770  0.23940  0.95880  1.0000
  C   C121      1.0  0.04876  0.67560  0.48529  1.0000
  C   C122      1.0  0.95124  0.67560  0.01471  1.0000
  C   C123      1.0  0.54876  0.17560  0.48529  1.0000
  C   C124      1.0  0.45124  0.17560  0.01471  1.0000
  C   C125      1.0  0.95124  0.32440  0.51471  1.0000
  C   C126      1.0  0.04876  0.32440  0.98529  1.0000
  C   C127      1.0  0.45124  0.82440  0.51471  1.0000
  C   C128      1.0  0.54876  0.82440  0.98529  1.0000
  H   H41       1.0  0.06390  0.73500  0.47350  1.0000
  H   H42       1.0  0.93610  0.73500  0.02650  1.0000
  H   H43       1.0  0.56390  0.23500  0.47350  1.0000
  H   H44       1.0  0.43610  0.23500  0.02650  1.0000
  H   H45       1.0  0.93610  0.26500  0.52650  1.0000
  H   H46       1.0  0.06390  0.26500  0.97350  1.0000
  H   H47       1.0  0.43610  0.76500  0.52650  1.0000
  H   H48       1.0  0.56390  0.76500  0.97350  1.0000
  C   C129      1.0  0.05700  0.65980  0.39849  1.0000
  C   C130      1.0  0.94300  0.65980  0.10151  1.0000
  C   C131      1.0  0.55700  0.15980  0.39849  1.0000
  C   C132      1.0  0.44300  0.15980  0.10151  1.0000
  C   C133      1.0  0.94300  0.34020  0.60151  1.0000
  C   C134      1.0  0.05700  0.34020  0.89849  1.0000
  C   C135      1.0  0.44300  0.84020  0.60151  1.0000
  C   C136      1.0  0.55700  0.84020  0.89849  1.0000
  C   C137      1.0  0.03548  0.71950  0.36539  1.0000
  C   C138      1.0  0.96452  0.71950  0.13461  1.0000
  C   C139      1.0  0.53548  0.21950  0.36539  1.0000
  C   C140      1.0  0.46452  0.21950  0.13461  1.0000
  C   C141      1.0  0.96452  0.28050  0.63461  1.0000
  C   C142      1.0  0.03548  0.28050  0.86539  1.0000
  C   C143      1.0  0.46452  0.78050  0.63461  1.0000
  C   C144      1.0  0.53548  0.78050  0.86539  1.0000
  H   H49       1.0  0.00210  0.71260  0.35710  1.0000
  H   H50       1.0  0.99790  0.71260  0.14290  1.0000
  H   H51       1.0  0.50210  0.21260  0.35710  1.0000
  H   H52       1.0  0.49790  0.21260  0.14290  1.0000
  H   H53       1.0  0.99790  0.28740  0.64290  1.0000
  H   H54       1.0  0.00210  0.28740  0.85710  1.0000
  H   H55       1.0  0.49790  0.78740  0.64290  1.0000
  H   H56       1.0  0.50210  0.78740  0.85710  1.0000
  C   C145      1.0  0.06214  0.79000  0.34386  1.0000
  C   C146      1.0  0.93786  0.79000  0.15614  1.0000
  C   C147      1.0  0.56214  0.29000  0.34386  1.0000
  C   C148      1.0  0.43786  0.29000  0.15614  1.0000
  C   C149      1.0  0.93786  0.21000  0.65614  1.0000
  C   C150      1.0  0.06214  0.21000  0.84386  1.0000
  C   C151      1.0  0.43786  0.71000  0.65614  1.0000
  C   C152      1.0  0.56214  0.71000  0.84386  1.0000
  C   C153      1.0  0.11203  0.79730  0.35560  1.0000
  C   C154      1.0  0.88797  0.79730  0.14440  1.0000
  C   C155      1.0  0.61203  0.29730  0.35560  1.0000
  C   C156      1.0  0.38797  0.29730  0.14440  1.0000
  C   C157      1.0  0.88797  0.20270  0.64440  1.0000
  C   C158      1.0  0.11203  0.20270  0.85560  1.0000
  C   C159      1.0  0.38797  0.70270  0.64440  1.0000
  C   C160      1.0  0.61203  0.70270  0.85560  1.0000
  H   H57       1.0  0.13030  0.84270  0.34080  1.0000
  H   H58       1.0  0.86970  0.84270  0.15920  1.0000
  H   H59       1.0  0.63030  0.34270  0.34080  1.0000
  H   H60       1.0  0.36970  0.34270  0.15920  1.0000
  H   H61       1.0  0.86970  0.15730  0.65920  1.0000
  H   H62       1.0  0.13030  0.15730  0.84080  1.0000
  H   H63       1.0  0.36970  0.65730  0.65920  1.0000
  H   H64       1.0  0.63030  0.65730  0.84080  1.0000
  C   C161      1.0  0.13515  0.73840  0.38899  1.0000
  C   C162      1.0  0.86485  0.73840  0.11101  1.0000
  C   C163      1.0  0.63515  0.23840  0.38899  1.0000
  C   C164      1.0  0.36485  0.23840  0.11101  1.0000
  C   C165      1.0  0.86485  0.26160  0.61101  1.0000
  C   C166      1.0  0.13515  0.26160  0.88899  1.0000
  C   C167      1.0  0.36485  0.76160  0.61101  1.0000
  C   C168      1.0  0.63515  0.76160  0.88899  1.0000
  C   C169      1.0  0.10696  0.67070  0.41065  1.0000
  C   C170      1.0  0.89304  0.67070  0.08935  1.0000
  C   C171      1.0  0.60696  0.17070  0.41065  1.0000
  C   C172      1.0  0.39304  0.17070  0.08935  1.0000
  C   C173      1.0  0.89304  0.32930  0.58935  1.0000
  C   C174      1.0  0.10696  0.32930  0.91065  1.0000
  C   C175      1.0  0.39304  0.82930  0.58935  1.0000
  C   C176      1.0  0.60696  0.82930  0.91065  1.0000
  H   H65       1.0  0.12180  0.63210  0.43360  1.0000
  H   H66       1.0  0.87820  0.63210  0.06640  1.0000
  H   H67       1.0  0.62180  0.13210  0.43360  1.0000
  H   H68       1.0  0.37820  0.13210  0.06640  1.0000
  H   H69       1.0  0.87820  0.36790  0.56640  1.0000
  H   H70       1.0  0.12180  0.36790  0.93360  1.0000
  H   H71       1.0  0.37820  0.86790  0.56640  1.0000
  H   H72       1.0  0.62180  0.86790  0.93360  1.0000
  C   C177      1.0  0.03819  0.85830  0.30875  1.0000
  C   C178      1.0  0.96181  0.85830  0.19125  1.0000
  C   C179      1.0  0.53819  0.35830  0.30875  1.0000
  C   C180      1.0  0.46181  0.35830  0.19125  1.0000
  C   C181      1.0  0.96181  0.14170  0.69125  1.0000
  C   C182      1.0  0.03819  0.14170  0.80875  1.0000
  C   C183      1.0  0.46181  0.64170  0.69125  1.0000
  C   C184      1.0  0.53819  0.64170  0.80875  1.0000
  C   C185      1.0  0.18880  0.74590  0.40105  1.0000
  C   C186      1.0  0.81120  0.74590  0.09895  1.0000
  C   C187      1.0  0.68880  0.24590  0.40105  1.0000
  C   C188      1.0  0.31120  0.24590  0.09895  1.0000
  C   C189      1.0  0.81120  0.25410  0.59895  1.0000
  C   C190      1.0  0.18880  0.25410  0.90105  1.0000
  C   C191      1.0  0.31120  0.75410  0.59895  1.0000
  C   C192      1.0  0.68880  0.75410  0.90105  1.0000
  In  In1       1.0  0.00000  0.99479  0.25000  1.0000
  In  In2       1.0  0.50000  0.49479  0.25000  1.0000
  In  In3       1.0  0.00000  0.00521  0.75000  1.0000
  In  In4       1.0  0.50000  0.50521  0.75000  1.0000
  O   O1        1.0  0.78884  0.18190  0.33156  1.0000
  O   O2        1.0  0.21116  0.18190  0.16844  1.0000
  O   O3        1.0  0.28884  0.68190  0.33156  1.0000
  O   O4        1.0  0.71116  0.68190  0.16844  1.0000
  O   O5        1.0  0.21116  0.81810  0.66844  1.0000
  O   O6        1.0  0.78884  0.81810  0.83156  1.0000
  O   O7        1.0  0.71116  0.31810  0.66844  1.0000
  O   O8        1.0  0.28884  0.31810  0.83156  1.0000
  O   O9        1.0  0.79936  0.29630  0.38522  1.0000
  O   O10       1.0  0.20064  0.29630  0.11478  1.0000
  O   O11       1.0  0.29936  0.79630  0.38522  1.0000
  O   O12       1.0  0.70064  0.79630  0.11478  1.0000
  O   O13       1.0  0.20064  0.70370  0.61478  1.0000
  O   O14       1.0  0.79936  0.70370  0.88522  1.0000
  O   O15       1.0  0.70064  0.20370  0.61478  1.0000
  O   O16       1.0  0.29936  0.20370  0.88522  1.0000
  H   H73       1.0  0.76840  0.30750  0.38400  1.0000
  H   H74       1.0  0.23160  0.30750  0.11600  1.0000
  H   H75       1.0  0.26840  0.80750  0.38400  1.0000
  H   H76       1.0  0.73160  0.80750  0.11600  1.0000
  H   H77       1.0  0.23160  0.69250  0.61600  1.0000
  H   H78       1.0  0.76840  0.69250  0.88400  1.0000
  H   H79       1.0  0.73160  0.19250  0.61600  1.0000
  H   H80       1.0  0.26840  0.19250  0.88400  1.0000
  O   O17       1.0  0.93523  0.07420  0.27218  1.0000
  O   O18       1.0  0.06477  0.07420  0.22782  1.0000
  O   O19       1.0  0.43523  0.57420  0.27218  1.0000
  O   O20       1.0  0.56477  0.57420  0.22782  1.0000
  O   O21       1.0  0.06477  0.92580  0.72782  1.0000
  O   O22       1.0  0.93523  0.92580  0.77218  1.0000
  O   O23       1.0  0.56477  0.42580  0.72782  1.0000
  O   O24       1.0  0.43523  0.42580  0.77218  1.0000
  O   O25       1.0  0.00770  0.13010  0.30054  1.0000
  O   O26       1.0  0.99230  0.13010  0.19946  1.0000
  O   O27       1.0  0.50770  0.63010  0.30054  1.0000
  O   O28       1.0  0.49230  0.63010  0.19946  1.0000
  O   O29       1.0  0.99230  0.86990  0.69946  1.0000
  O   O30       1.0  0.00770  0.86990  0.80054  1.0000
  O   O31       1.0  0.49230  0.36990  0.69946  1.0000
  O   O32       1.0  0.50770  0.36990  0.80054  1.0000
  O   O33       1.0  0.99268  0.85840  0.29905  1.0000
  O   O34       1.0  0.00732  0.85840  0.20095  1.0000
  O   O35       1.0  0.49268  0.35840  0.29905  1.0000
  O   O36       1.0  0.50732  0.35840  0.20095  1.0000
  O   O37       1.0  0.00732  0.14160  0.70095  1.0000
  O   O38       1.0  0.99268  0.14160  0.79905  1.0000
  O   O39       1.0  0.50732  0.64160  0.70095  1.0000
  O   O40       1.0  0.49268  0.64160  0.79905  1.0000
  O   O41       1.0  0.06468  0.91420  0.28831  1.0000
  O   O42       1.0  0.93532  0.91420  0.21169  1.0000
  O   O43       1.0  0.56468  0.41420  0.28831  1.0000
  O   O44       1.0  0.43532  0.41420  0.21169  1.0000
  O   O45       1.0  0.93532  0.08580  0.71169  1.0000
  O   O46       1.0  0.06468  0.08580  0.78831  1.0000
  O   O47       1.0  0.43532  0.58580  0.71169  1.0000
  O   O48       1.0  0.56468  0.58580  0.78831  1.0000
  O   O49       1.0  0.21072  0.80950  0.37972  1.0000
  O   O50       1.0  0.78928  0.80950  0.12028  1.0000
  O   O51       1.0  0.71072  0.30950  0.37972  1.0000
  O   O52       1.0  0.28928  0.30950  0.12028  1.0000
  O   O53       1.0  0.78928  0.19050  0.62028  1.0000
  O   O54       1.0  0.21072  0.19050  0.87972  1.0000
  O   O55       1.0  0.28928  0.69050  0.62028  1.0000
  O   O56       1.0  0.71072  0.69050  0.87972  1.0000
  O   O57       1.0  0.20838  0.68910  0.43025  1.0000
  O   O58       1.0  0.79162  0.68910  0.06975  1.0000
  O   O59       1.0  0.70838  0.18910  0.43025  1.0000
  O   O60       1.0  0.29162  0.18910  0.06975  1.0000
  O   O61       1.0  0.79162  0.31090  0.56975  1.0000
  O   O62       1.0  0.20838  0.31090  0.93025  1.0000
  O   O63       1.0  0.29162  0.81090  0.56975  1.0000
  O   O64       1.0  0.70838  0.81090  0.93025  1.0000
  H   H81       1.0  0.23840  0.67570  0.43780  1.0000
  H   H82       1.0  0.76160  0.67570  0.06220  1.0000
  H   H83       1.0  0.73840  0.17570  0.43780  1.0000
  H   H84       1.0  0.26160  0.17570  0.06220  1.0000
  H   H85       1.0  0.76160  0.32430  0.56220  1.0000
  H   H86       1.0  0.23840  0.32430  0.93780  1.0000
  H   H87       1.0  0.26160  0.82430  0.56220  1.0000
  H   H88       1.0  0.73840  0.82430  0.93780  1.0000
