data_image0
_chemical_formula_structural       P8W88Ni16C8H8C8H8C16H8C8H8C24H8C8H8C8H8C8H8C24H8C8H8N16H8N24H8N8H8N24H8N8H8O312
_chemical_formula_sum              "P8 W88 Ni16 C120 H120 N80 O312"
_cell_length_a       29.111
_cell_length_b       26.407
_cell_length_c       25.128
_cell_angle_alpha    90
_cell_angle_beta     123.076
_cell_angle_gamma    90

_space_group_name_H-M_alt    "P 1"
_space_group_IT_number       1

loop_
  _space_group_symop_operation_xyz
  'x, y, z'

loop_
  _atom_site_type_symbol
  _atom_site_label
  _atom_site_symmetry_multiplicity
  _atom_site_fract_x
  _atom_site_fract_y
  _atom_site_fract_z
  _atom_site_occupancy
  P   P1        1.0  0.27592  0.47692  0.92301  1.0000
  P   P2        1.0  0.72408  0.47692  0.57699  1.0000
  P   P3        1.0  0.77592  0.97692  0.92301  1.0000
  P   P4        1.0  0.22408  0.97692  0.57699  1.0000
  P   P5        1.0  0.72408  0.52308  0.07699  1.0000
  P   P6        1.0  0.27592  0.52308  0.42301  1.0000
  P   P7        1.0  0.22408  0.02308  0.07699  1.0000
  P   P8        1.0  0.77592  0.02308  0.42301  1.0000
  W   W1        1.0  0.16399  0.39527  0.81756  1.0000
  W   W2        1.0  0.83601  0.39527  0.68244  1.0000
  W   W3        1.0  0.66399  0.89527  0.81756  1.0000
  W   W4        1.0  0.33601  0.89527  0.68244  1.0000
  W   W5        1.0  0.83601  0.60473  0.18244  1.0000
  W   W6        1.0  0.16399  0.60473  0.31756  1.0000
  W   W7        1.0  0.33601  0.10473  0.18244  1.0000
  W   W8        1.0  0.66399  0.10473  0.31756  1.0000
  W   W9        1.0  0.28142  0.38917  0.81871  1.0000
  W   W10       1.0  0.71858  0.38917  0.68129  1.0000
  W   W11       1.0  0.78142  0.88917  0.81871  1.0000
  W   W12       1.0  0.21858  0.88917  0.68129  1.0000
  W   W13       1.0  0.71858  0.61083  0.18129  1.0000
  W   W14       1.0  0.28142  0.61083  0.31871  1.0000
  W   W15       1.0  0.21858  0.11083  0.18129  1.0000
  W   W16       1.0  0.78142  0.11083  0.31871  1.0000
  W   W17       1.0  0.27080  0.43084  0.05291  1.0000
  W   W18       1.0  0.72920  0.43084  0.44709  1.0000
  W   W19       1.0  0.77080  0.93084  0.05291  1.0000
  W   W20       1.0  0.22920  0.93084  0.44709  1.0000
  W   W21       1.0  0.72920  0.56916  0.94709  1.0000
  W   W22       1.0  0.27080  0.56916  0.55291  1.0000
  W   W23       1.0  0.22920  0.06916  0.94709  1.0000
  W   W24       1.0  0.77080  0.06916  0.55291  1.0000
  W   W25       1.0  0.26503  0.56001  0.02842  1.0000
  W   W26       1.0  0.73497  0.56001  0.47158  1.0000
  W   W27       1.0  0.76503  0.06001  0.02842  1.0000
  W   W28       1.0  0.23497  0.06001  0.47158  1.0000
  W   W29       1.0  0.73497  0.43999  0.97158  1.0000
  W   W30       1.0  0.26503  0.43999  0.52842  1.0000
  W   W31       1.0  0.23497  0.93999  0.97158  1.0000
  W   W32       1.0  0.76503  0.93999  0.52842  1.0000
  W   W33       1.0  0.15552  0.48516  0.92621  1.0000
  W   W34       1.0  0.84448  0.48516  0.57379  1.0000
  W   W35       1.0  0.65552  0.98516  0.92621  1.0000
  W   W36       1.0  0.34448  0.98516  0.57379  1.0000
  W   W37       1.0  0.84448  0.51484  0.07379  1.0000
  W   W38       1.0  0.15552  0.51484  0.42621  1.0000
  W   W39       1.0  0.34448  0.01484  0.07379  1.0000
  W   W40       1.0  0.65552  0.01484  0.42621  1.0000
  W   W41       1.0  0.15866  0.53533  0.79197  1.0000
  W   W42       1.0  0.84134  0.53533  0.70803  1.0000
  W   W43       1.0  0.65866  0.03533  0.79197  1.0000
  W   W44       1.0  0.34134  0.03533  0.70803  1.0000
  W   W45       1.0  0.84134  0.46467  0.20803  1.0000
  W   W46       1.0  0.15866  0.46467  0.29197  1.0000
  W   W47       1.0  0.34134  0.96467  0.20803  1.0000
  W   W48       1.0  0.65866  0.96467  0.29197  1.0000
  W   W49       1.0  0.26864  0.61115  0.89334  1.0000
  W   W50       1.0  0.73136  0.61115  0.60666  1.0000
  W   W51       1.0  0.76864  0.11115  0.89334  1.0000
  W   W52       1.0  0.23136  0.11115  0.60666  1.0000
  W   W53       1.0  0.73136  0.38885  0.10666  1.0000
  W   W54       1.0  0.26864  0.38885  0.39334  1.0000
  W   W55       1.0  0.23136  0.88885  0.10666  1.0000
  W   W56       1.0  0.76864  0.88885  0.39334  1.0000
  W   W57       1.0  0.27605  0.52965  0.79196  1.0000
  W   W58       1.0  0.72395  0.52965  0.70804  1.0000
  W   W59       1.0  0.77605  0.02965  0.79196  1.0000
  W   W60       1.0  0.22395  0.02965  0.70804  1.0000
  W   W61       1.0  0.72395  0.47035  0.20804  1.0000
  W   W62       1.0  0.27605  0.47035  0.29196  1.0000
  W   W63       1.0  0.22395  0.97035  0.20804  1.0000
  W   W64       1.0  0.77605  0.97035  0.29196  1.0000
  W   W65       1.0  0.39388  0.55326  0.03042  1.0000
  W   W66       1.0  0.60612  0.55326  0.46958  1.0000
  W   W67       1.0  0.89388  0.05326  0.03042  1.0000
  W   W68       1.0  0.10612  0.05326  0.46958  1.0000
  W   W69       1.0  0.60612  0.44674  0.96958  1.0000
  W   W70       1.0  0.39388  0.44674  0.53042  1.0000
  W   W71       1.0  0.10612  0.94674  0.96958  1.0000
  W   W72       1.0  0.89388  0.94674  0.53042  1.0000
  W   W73       1.0  0.39600  0.42341  0.05260  1.0000
  W   W74       1.0  0.60400  0.42341  0.44740  1.0000
  W   W75       1.0  0.89600  0.92341  0.05260  1.0000
  W   W76       1.0  0.10400  0.92341  0.44740  1.0000
  W   W77       1.0  0.60400  0.57659  0.94740  1.0000
  W   W78       1.0  0.39600  0.57659  0.55260  1.0000
  W   W79       1.0  0.10400  0.07659  0.94740  1.0000
  W   W80       1.0  0.89600  0.07659  0.55260  1.0000
  W   W81       1.0  0.40059  0.47261  0.92808  1.0000
  W   W82       1.0  0.59941  0.47261  0.57192  1.0000
  W   W83       1.0  0.90059  0.97261  0.92808  1.0000
  W   W84       1.0  0.09941  0.97261  0.57192  1.0000
  W   W85       1.0  0.59941  0.52739  0.07192  1.0000
  W   W86       1.0  0.40059  0.52739  0.42808  1.0000
  W   W87       1.0  0.09941  0.02739  0.07192  1.0000
  W   W88       1.0  0.90059  0.02739  0.42808  1.0000
  Ni  Ni1       1.0  0.27855  0.35029  0.94148  1.0000
  Ni  Ni2       1.0  0.72145  0.35029  0.55852  1.0000
  Ni  Ni3       1.0  0.77855  0.85029  0.94148  1.0000
  Ni  Ni4       1.0  0.22145  0.85029  0.55852  1.0000
  Ni  Ni5       1.0  0.72145  0.64971  0.05852  1.0000
  Ni  Ni6       1.0  0.27855  0.64971  0.44148  1.0000
  Ni  Ni7       1.0  0.22145  0.14971  0.05852  1.0000
  Ni  Ni8       1.0  0.77855  0.14971  0.44148  1.0000
  Ni  Ni9       1.0  0.32921  0.39030  0.22011  1.0000
  Ni  Ni10      1.0  0.67079  0.39030  0.27989  1.0000
  Ni  Ni11      1.0  0.82921  0.89030  0.22011  1.0000
  Ni  Ni12      1.0  0.17079  0.89030  0.27989  1.0000
  Ni  Ni13      1.0  0.67079  0.60970  0.77989  1.0000
  Ni  Ni14      1.0  0.32921  0.60970  0.72011  1.0000
  Ni  Ni15      1.0  0.17079  0.10970  0.77989  1.0000
  Ni  Ni16      1.0  0.82921  0.10970  0.72011  1.0000
  C   C1        1.0  0.33670  0.25310  0.97710  1.0000
  C   C2        1.0  0.66330  0.25310  0.52290  1.0000
  C   C3        1.0  0.83670  0.75310  0.97710  1.0000
  C   C4        1.0  0.16330  0.75310  0.52290  1.0000
  C   C5        1.0  0.66330  0.74690  0.02290  1.0000
  C   C6        1.0  0.33670  0.74690  0.47710  1.0000
  C   C7        1.0  0.16330  0.24690  0.02290  1.0000
  C   C8        1.0  0.83670  0.24690  0.47710  1.0000
  H   H1        1.0  0.35950  0.26650  0.96530  1.0000
  H   H2        1.0  0.64050  0.26650  0.53470  1.0000
  H   H3        1.0  0.85950  0.76650  0.96530  1.0000
  H   H4        1.0  0.14050  0.76650  0.53470  1.0000
  H   H5        1.0  0.64050  0.73350  0.03470  1.0000
  H   H6        1.0  0.35950  0.73350  0.46530  1.0000
  H   H7        1.0  0.14050  0.23350  0.03470  1.0000
  H   H8        1.0  0.85950  0.23350  0.46530  1.0000
  C   C9        1.0  0.34190  0.20540  0.00170  1.0000
  C   C10       1.0  0.65810  0.20540  0.49830  1.0000
  C   C11       1.0  0.84190  0.70540  0.00170  1.0000
  C   C12       1.0  0.15810  0.70540  0.49830  1.0000
  C   C13       1.0  0.65810  0.79460  0.99830  1.0000
  C   C14       1.0  0.34190  0.79460  0.50170  1.0000
  C   C15       1.0  0.15810  0.29460  0.99830  1.0000
  C   C16       1.0  0.84190  0.29460  0.50170  1.0000
  H   H9        1.0  0.36720  0.18070  0.00810  1.0000
  H   H10       1.0  0.63280  0.18070  0.49190  1.0000
  H   H11       1.0  0.86720  0.68070  0.00810  1.0000
  H   H12       1.0  0.13280  0.68070  0.49190  1.0000
  H   H13       1.0  0.63280  0.81930  0.99190  1.0000
  H   H14       1.0  0.36720  0.81930  0.50810  1.0000
  H   H15       1.0  0.13280  0.31930  0.99190  1.0000
  H   H16       1.0  0.86720  0.31930  0.50810  1.0000
  C   C17       1.0  0.27310  0.24670  0.99560  1.0000
  C   C18       1.0  0.72690  0.24670  0.50440  1.0000
  C   C19       1.0  0.77310  0.74670  0.99560  1.0000
  C   C20       1.0  0.22690  0.74670  0.50440  1.0000
  C   C21       1.0  0.72690  0.75330  0.00440  1.0000
  C   C22       1.0  0.27310  0.75330  0.49560  1.0000
  C   C23       1.0  0.22690  0.25330  0.00440  1.0000
  C   C24       1.0  0.77310  0.25330  0.49560  1.0000
  C   C25       1.0  0.23770  0.32010  0.22520  1.0000
  C   C26       1.0  0.76230  0.32010  0.27480  1.0000
  C   C27       1.0  0.73770  0.82010  0.22520  1.0000
  C   C28       1.0  0.26230  0.82010  0.27480  1.0000
  C   C29       1.0  0.76230  0.67990  0.77480  1.0000
  C   C30       1.0  0.23770  0.67990  0.72520  1.0000
  C   C31       1.0  0.26230  0.17990  0.77480  1.0000
  C   C32       1.0  0.73770  0.17990  0.72520  1.0000
  H   H17       1.0  0.22330  0.34240  0.24120  1.0000
  H   H18       1.0  0.77670  0.34240  0.25880  1.0000
  H   H19       1.0  0.72330  0.84240  0.24120  1.0000
  H   H20       1.0  0.27670  0.84240  0.25880  1.0000
  H   H21       1.0  0.77670  0.65760  0.75880  1.0000
  H   H22       1.0  0.22330  0.65760  0.74120  1.0000
  H   H23       1.0  0.27670  0.15760  0.75880  1.0000
  H   H24       1.0  0.72330  0.15760  0.74120  1.0000
  C   C33       1.0  0.22270  0.27080  0.20990  1.0000
  C   C34       1.0  0.77730  0.27080  0.29010  1.0000
  C   C35       1.0  0.72270  0.77080  0.20990  1.0000
  C   C36       1.0  0.27730  0.77080  0.29010  1.0000
  C   C37       1.0  0.77730  0.72920  0.79010  1.0000
  C   C38       1.0  0.22270  0.72920  0.70990  1.0000
  C   C39       1.0  0.27730  0.22920  0.79010  1.0000
  C   C40       1.0  0.72270  0.22920  0.70990  1.0000
  H   H25       1.0  0.19580  0.25350  0.21190  1.0000
  H   H26       1.0  0.80420  0.25350  0.28810  1.0000
  H   H27       1.0  0.69580  0.75350  0.21190  1.0000
  H   H28       1.0  0.30420  0.75350  0.28810  1.0000
  H   H29       1.0  0.80420  0.74650  0.78810  1.0000
  H   H30       1.0  0.19580  0.74650  0.71190  1.0000
  H   H31       1.0  0.30420  0.24650  0.78810  1.0000
  H   H32       1.0  0.69580  0.24650  0.71190  1.0000
  C   C41       1.0  0.28740  0.28960  0.19350  1.0000
  C   C42       1.0  0.71260  0.28960  0.30650  1.0000
  C   C43       1.0  0.78740  0.78960  0.19350  1.0000
  C   C44       1.0  0.21260  0.78960  0.30650  1.0000
  C   C45       1.0  0.71260  0.71040  0.80650  1.0000
  C   C46       1.0  0.28740  0.71040  0.69350  1.0000
  C   C47       1.0  0.21260  0.21040  0.80650  1.0000
  C   C48       1.0  0.78740  0.21040  0.69350  1.0000
  C   C49       1.0  0.33100  0.28970  0.18090  1.0000
  C   C50       1.0  0.66900  0.28970  0.31910  1.0000
  C   C51       1.0  0.83100  0.78970  0.18090  1.0000
  C   C52       1.0  0.16900  0.78970  0.31910  1.0000
  C   C53       1.0  0.66900  0.71030  0.81910  1.0000
  C   C54       1.0  0.33100  0.71030  0.68090  1.0000
  C   C55       1.0  0.16900  0.21030  0.81910  1.0000
  C   C56       1.0  0.83100  0.21030  0.68090  1.0000
  C   C57       1.0  0.38720  0.27360  0.15160  1.0000
  C   C58       1.0  0.61280  0.27360  0.34840  1.0000
  C   C59       1.0  0.88720  0.77360  0.15160  1.0000
  C   C60       1.0  0.11280  0.77360  0.34840  1.0000
  C   C61       1.0  0.61280  0.72640  0.84840  1.0000
  C   C62       1.0  0.38720  0.72640  0.65160  1.0000
  C   C63       1.0  0.11280  0.22640  0.84840  1.0000
  C   C64       1.0  0.88720  0.22640  0.65160  1.0000
  H   H33       1.0  0.40570  0.25810  0.13540  1.0000
  H   H34       1.0  0.59430  0.25810  0.36460  1.0000
  H   H35       1.0  0.90570  0.75810  0.13540  1.0000
  H   H36       1.0  0.09430  0.75810  0.36460  1.0000
  H   H37       1.0  0.59430  0.74190  0.86460  1.0000
  H   H38       1.0  0.40570  0.74190  0.63540  1.0000
  H   H39       1.0  0.09430  0.24190  0.86460  1.0000
  H   H40       1.0  0.90570  0.24190  0.63540  1.0000
  C   C65       1.0  0.39430  0.32070  0.17370  1.0000
  C   C66       1.0  0.60570  0.32070  0.32630  1.0000
  C   C67       1.0  0.89430  0.82070  0.17370  1.0000
  C   C68       1.0  0.10570  0.82070  0.32630  1.0000
  C   C69       1.0  0.60570  0.67930  0.82630  1.0000
  C   C70       1.0  0.39430  0.67930  0.67370  1.0000
  C   C71       1.0  0.10570  0.17930  0.82630  1.0000
  C   C72       1.0  0.89430  0.17930  0.67370  1.0000
  H   H41       1.0  0.41980  0.34320  0.17590  1.0000
  H   H42       1.0  0.58020  0.34320  0.32410  1.0000
  H   H43       1.0  0.91980  0.84320  0.17590  1.0000
  H   H44       1.0  0.08020  0.84320  0.32410  1.0000
  H   H45       1.0  0.58020  0.65680  0.82410  1.0000
  H   H46       1.0  0.41980  0.65680  0.67590  1.0000
  H   H47       1.0  0.08020  0.15680  0.82410  1.0000
  H   H48       1.0  0.91980  0.15680  0.67590  1.0000
  C   C73       1.0  0.40120  0.48170  0.21410  1.0000
  C   C74       1.0  0.59880  0.48170  0.28590  1.0000
  C   C75       1.0  0.90120  0.98170  0.21410  1.0000
  C   C76       1.0  0.09880  0.98170  0.28590  1.0000
  C   C77       1.0  0.59880  0.51830  0.78590  1.0000
  C   C78       1.0  0.40120  0.51830  0.71410  1.0000
  C   C79       1.0  0.09880  0.01830  0.78590  1.0000
  C   C80       1.0  0.90120  0.01830  0.71410  1.0000
  H   H49       1.0  0.38090  0.49000  0.17110  1.0000
  H   H50       1.0  0.61910  0.49000  0.32890  1.0000
  H   H51       1.0  0.88090  0.99000  0.17110  1.0000
  H   H52       1.0  0.11910  0.99000  0.32890  1.0000
  H   H53       1.0  0.61910  0.51000  0.82890  1.0000
  H   H54       1.0  0.38090  0.51000  0.67110  1.0000
  H   H55       1.0  0.11910  0.01000  0.82890  1.0000
  H   H56       1.0  0.88090  0.01000  0.67110  1.0000
  C   C81       1.0  0.44660  0.50490  0.25750  1.0000
  C   C82       1.0  0.55340  0.50490  0.24250  1.0000
  C   C83       1.0  0.94660  0.00490  0.25750  1.0000
  C   C84       1.0  0.05340  0.00490  0.24250  1.0000
  C   C85       1.0  0.55340  0.49510  0.74250  1.0000
  C   C86       1.0  0.44660  0.49510  0.75750  1.0000
  C   C87       1.0  0.05340  0.99510  0.74250  1.0000
  C   C88       1.0  0.94660  0.99510  0.75750  1.0000
  H   H57       1.0  0.46320  0.53200  0.25070  1.0000
  H   H58       1.0  0.53680  0.53200  0.24930  1.0000
  H   H59       1.0  0.96320  0.03200  0.25070  1.0000
  H   H60       1.0  0.03680  0.03200  0.24930  1.0000
  H   H61       1.0  0.53680  0.46800  0.74930  1.0000
  H   H62       1.0  0.46320  0.46800  0.75070  1.0000
  H   H63       1.0  0.03680  0.96800  0.74930  1.0000
  H   H64       1.0  0.96320  0.96800  0.75070  1.0000
  C   C89       1.0  0.42830  0.44490  0.30010  1.0000
  C   C90       1.0  0.57170  0.44490  0.19990  1.0000
  C   C91       1.0  0.92830  0.94490  0.30010  1.0000
  C   C92       1.0  0.07170  0.94490  0.19990  1.0000
  C   C93       1.0  0.57170  0.55510  0.69990  1.0000
  C   C94       1.0  0.42830  0.55510  0.80010  1.0000
  C   C95       1.0  0.07170  0.05510  0.69990  1.0000
  C   C96       1.0  0.92830  0.05510  0.80010  1.0000
  C   C97       1.0  0.42420  0.41080  0.34230  1.0000
  C   C98       1.0  0.57580  0.41080  0.15770  1.0000
  C   C99       1.0  0.92420  0.91080  0.34230  1.0000
  C   C100      1.0  0.07580  0.91080  0.15770  1.0000
  C   C101      1.0  0.57580  0.58920  0.65770  1.0000
  C   C102      1.0  0.42420  0.58920  0.84230  1.0000
  C   C103      1.0  0.07580  0.08920  0.65770  1.0000
  C   C104      1.0  0.92420  0.08920  0.84230  1.0000
  C   C105      1.0  0.43220  0.36690  0.42240  1.0000
  C   C106      1.0  0.56780  0.36690  0.07760  1.0000
  C   C107      1.0  0.93220  0.86690  0.42240  1.0000
  C   C108      1.0  0.06780  0.86690  0.07760  1.0000
  C   C109      1.0  0.56780  0.63310  0.57760  1.0000
  C   C110      1.0  0.43220  0.63310  0.92240  1.0000
  C   C111      1.0  0.06780  0.13310  0.57760  1.0000
  C   C112      1.0  0.93220  0.13310  0.92240  1.0000
  H   H65       1.0  0.44420  0.35490  0.46280  1.0000
  H   H66       1.0  0.55580  0.35490  0.03720  1.0000
  H   H67       1.0  0.94420  0.85490  0.46280  1.0000
  H   H68       1.0  0.05580  0.85490  0.03720  1.0000
  H   H69       1.0  0.55580  0.64510  0.53720  1.0000
  H   H70       1.0  0.44420  0.64510  0.96280  1.0000
  H   H71       1.0  0.05580  0.14510  0.53720  1.0000
  H   H72       1.0  0.94420  0.14510  0.96280  1.0000
  C   C113      1.0  0.38740  0.35190  0.36660  1.0000
  C   C114      1.0  0.61260  0.35190  0.13340  1.0000
  C   C115      1.0  0.88740  0.85190  0.36660  1.0000
  C   C116      1.0  0.11260  0.85190  0.13340  1.0000
  C   C117      1.0  0.61260  0.64810  0.63340  1.0000
  C   C118      1.0  0.38740  0.64810  0.86660  1.0000
  C   C119      1.0  0.11260  0.14810  0.63340  1.0000
  C   C120      1.0  0.88740  0.14810  0.86660  1.0000
  H   H73       1.0  0.36330  0.32670  0.36240  1.0000
  H   H74       1.0  0.63670  0.32670  0.13760  1.0000
  H   H75       1.0  0.86330  0.82670  0.36240  1.0000
  H   H76       1.0  0.13670  0.82670  0.13760  1.0000
  H   H77       1.0  0.63670  0.67330  0.63760  1.0000
  H   H78       1.0  0.36330  0.67330  0.86240  1.0000
  H   H79       1.0  0.13670  0.17330  0.63760  1.0000
  H   H80       1.0  0.86330  0.17330  0.86240  1.0000
  N   N1        1.0  0.29210  0.27900  0.97210  1.0000
  N   N2        1.0  0.70790  0.27900  0.52790  1.0000
  N   N3        1.0  0.79210  0.77900  0.97210  1.0000
  N   N4        1.0  0.20790  0.77900  0.52790  1.0000
  N   N5        1.0  0.70790  0.72100  0.02790  1.0000
  N   N6        1.0  0.29210  0.72100  0.47210  1.0000
  N   N7        1.0  0.20790  0.22100  0.02790  1.0000
  N   N8        1.0  0.79210  0.22100  0.47210  1.0000
  N   N9        1.0  0.30180  0.20200  0.01500  1.0000
  N   N10       1.0  0.69820  0.20200  0.48500  1.0000
  N   N11       1.0  0.80180  0.70200  0.01500  1.0000
  N   N12       1.0  0.19820  0.70200  0.48500  1.0000
  N   N13       1.0  0.69820  0.79800  0.98500  1.0000
  N   N14       1.0  0.30180  0.79800  0.51500  1.0000
  N   N15       1.0  0.19820  0.29800  0.98500  1.0000
  N   N16       1.0  0.80180  0.29800  0.51500  1.0000
  H   H81       1.0  0.29590  0.17680  0.03220  1.0000
  H   H82       1.0  0.70410  0.17680  0.46780  1.0000
  H   H83       1.0  0.79590  0.67680  0.03220  1.0000
  H   H84       1.0  0.20410  0.67680  0.46780  1.0000
  H   H85       1.0  0.70410  0.82320  0.96780  1.0000
  H   H86       1.0  0.29590  0.82320  0.53220  1.0000
  H   H87       1.0  0.20410  0.32320  0.96780  1.0000
  H   H88       1.0  0.79590  0.32320  0.53220  1.0000
  N   N17       1.0  0.27700  0.33210  0.21350  1.0000
  N   N18       1.0  0.72300  0.33210  0.28650  1.0000
  N   N19       1.0  0.77700  0.83210  0.21350  1.0000
  N   N20       1.0  0.22300  0.83210  0.28650  1.0000
  N   N21       1.0  0.72300  0.66790  0.78650  1.0000
  N   N22       1.0  0.27700  0.66790  0.71350  1.0000
  N   N23       1.0  0.22300  0.16790  0.78650  1.0000
  N   N24       1.0  0.77700  0.16790  0.71350  1.0000
  N   N25       1.0  0.35910  0.33200  0.19320  1.0000
  N   N26       1.0  0.64090  0.33200  0.30680  1.0000
  N   N27       1.0  0.85910  0.83200  0.19320  1.0000
  N   N28       1.0  0.14090  0.83200  0.30680  1.0000
  N   N29       1.0  0.64090  0.66800  0.80680  1.0000
  N   N30       1.0  0.35910  0.66800  0.69320  1.0000
  N   N31       1.0  0.14090  0.16800  0.80680  1.0000
  N   N32       1.0  0.85910  0.16800  0.69320  1.0000
  N   N33       1.0  0.34680  0.25210  0.15750  1.0000
  N   N34       1.0  0.65320  0.25210  0.34250  1.0000
  N   N35       1.0  0.84680  0.75210  0.15750  1.0000
  N   N36       1.0  0.15320  0.75210  0.34250  1.0000
  N   N37       1.0  0.65320  0.74790  0.84250  1.0000
  N   N38       1.0  0.34680  0.74790  0.65750  1.0000
  N   N39       1.0  0.15320  0.24790  0.84250  1.0000
  N   N40       1.0  0.84680  0.24790  0.65750  1.0000
  H   H89       1.0  0.33440  0.22170  0.14830  1.0000
  H   H90       1.0  0.66560  0.22170  0.35170  1.0000
  H   H91       1.0  0.83440  0.72170  0.14830  1.0000
  H   H92       1.0  0.16560  0.72170  0.35170  1.0000
  H   H93       1.0  0.66560  0.77830  0.85170  1.0000
  H   H94       1.0  0.33440  0.77830  0.64830  1.0000
  H   H95       1.0  0.16560  0.27830  0.85170  1.0000
  H   H96       1.0  0.83440  0.27830  0.64830  1.0000
  N   N41       1.0  0.25520  0.25190  0.19120  1.0000
  N   N42       1.0  0.74480  0.25190  0.30880  1.0000
  N   N43       1.0  0.75520  0.75190  0.19120  1.0000
  N   N44       1.0  0.24480  0.75190  0.30880  1.0000
  N   N45       1.0  0.74480  0.74810  0.80880  1.0000
  N   N46       1.0  0.25520  0.74810  0.69120  1.0000
  N   N47       1.0  0.24480  0.24810  0.80880  1.0000
  N   N48       1.0  0.75520  0.24810  0.69120  1.0000
  H   H97       1.0  0.25520  0.22120  0.17990  1.0000
  H   H98       1.0  0.74480  0.22120  0.32010  1.0000
  H   H99       1.0  0.75520  0.72120  0.17990  1.0000
  H   H100      1.0  0.24480  0.72120  0.32010  1.0000
  H   H101      1.0  0.74480  0.77880  0.82010  1.0000
  H   H102      1.0  0.25520  0.77880  0.67990  1.0000
  H   H103      1.0  0.24480  0.27880  0.82010  1.0000
  H   H104      1.0  0.75520  0.27880  0.67990  1.0000
  N   N49       1.0  0.38810  0.44410  0.24060  1.0000
  N   N50       1.0  0.61190  0.44410  0.25940  1.0000
  N   N51       1.0  0.88810  0.94410  0.24060  1.0000
  N   N52       1.0  0.11190  0.94410  0.25940  1.0000
  N   N53       1.0  0.61190  0.55590  0.75940  1.0000
  N   N54       1.0  0.38810  0.55590  0.74060  1.0000
  N   N55       1.0  0.11190  0.05590  0.75940  1.0000
  N   N56       1.0  0.88810  0.05590  0.74060  1.0000
  N   N57       1.0  0.38230  0.37870  0.31720  1.0000
  N   N58       1.0  0.61770  0.37870  0.18280  1.0000
  N   N59       1.0  0.88230  0.87870  0.31720  1.0000
  N   N60       1.0  0.11770  0.87870  0.18280  1.0000
  N   N61       1.0  0.61770  0.62130  0.68280  1.0000
  N   N62       1.0  0.38230  0.62130  0.81720  1.0000
  N   N63       1.0  0.11770  0.12130  0.68280  1.0000
  N   N64       1.0  0.88230  0.12130  0.81720  1.0000
  N   N65       1.0  0.45650  0.40450  0.40610  1.0000
  N   N66       1.0  0.54350  0.40450  0.09390  1.0000
  N   N67       1.0  0.95650  0.90450  0.40610  1.0000
  N   N68       1.0  0.04350  0.90450  0.09390  1.0000
  N   N69       1.0  0.54350  0.59550  0.59390  1.0000
  N   N70       1.0  0.45650  0.59550  0.90610  1.0000
  N   N71       1.0  0.04350  0.09550  0.59390  1.0000
  N   N72       1.0  0.95650  0.09550  0.90610  1.0000
  H   H105      1.0  0.48630  0.42060  0.43190  1.0000
  H   H106      1.0  0.51370  0.42060  0.06810  1.0000
  H   H107      1.0  0.98630  0.92060  0.43190  1.0000
  H   H108      1.0  0.01370  0.92060  0.06810  1.0000
  H   H109      1.0  0.51370  0.57940  0.56810  1.0000
  H   H110      1.0  0.48630  0.57940  0.93190  1.0000
  H   H111      1.0  0.01370  0.07940  0.56810  1.0000
  H   H112      1.0  0.98630  0.07940  0.93190  1.0000
  N   N73       1.0  0.46490  0.48150  0.31460  1.0000
  N   N74       1.0  0.53510  0.48150  0.18540  1.0000
  N   N75       1.0  0.96490  0.98150  0.31460  1.0000
  N   N76       1.0  0.03510  0.98150  0.18540  1.0000
  N   N77       1.0  0.53510  0.51850  0.68540  1.0000
  N   N78       1.0  0.46490  0.51850  0.81460  1.0000
  N   N79       1.0  0.03510  0.01850  0.68540  1.0000
  N   N80       1.0  0.96490  0.01850  0.81460  1.0000
  H   H113      1.0  0.49340  0.48880  0.35130  1.0000
  H   H114      1.0  0.50660  0.48880  0.14870  1.0000
  H   H115      1.0  0.99340  0.98880  0.35130  1.0000
  H   H116      1.0  0.00660  0.98880  0.14870  1.0000
  H   H117      1.0  0.50660  0.51120  0.64870  1.0000
  H   H118      1.0  0.49340  0.51120  0.85130  1.0000
  H   H119      1.0  0.00660  0.01120  0.64870  1.0000
  H   H120      1.0  0.99340  0.01120  0.85130  1.0000
  O   O1        1.0  0.10120  0.37100  0.76410  1.0000
  O   O2        1.0  0.89880  0.37100  0.73590  1.0000
  O   O3        1.0  0.60120  0.87100  0.76410  1.0000
  O   O4        1.0  0.39880  0.87100  0.73590  1.0000
  O   O5        1.0  0.89880  0.62900  0.23590  1.0000
  O   O6        1.0  0.10120  0.62900  0.26410  1.0000
  O   O7        1.0  0.39880  0.12900  0.23590  1.0000
  O   O8        1.0  0.60120  0.12900  0.26410  1.0000
  O   O9        1.0  0.29110  0.35860  0.76500  1.0000
  O   O10       1.0  0.70890  0.35860  0.73500  1.0000
  O   O11       1.0  0.79110  0.85860  0.76500  1.0000
  O   O12       1.0  0.20890  0.85860  0.73500  1.0000
  O   O13       1.0  0.70890  0.64140  0.23500  1.0000
  O   O14       1.0  0.29110  0.64140  0.26500  1.0000
  O   O15       1.0  0.20890  0.14140  0.23500  1.0000
  O   O16       1.0  0.79110  0.14140  0.26500  1.0000
  O   O17       1.0  0.27840  0.40480  0.11990  1.0000
  O   O18       1.0  0.72160  0.40480  0.38010  1.0000
  O   O19       1.0  0.77840  0.90480  0.11990  1.0000
  O   O20       1.0  0.22160  0.90480  0.38010  1.0000
  O   O21       1.0  0.72160  0.59520  0.88010  1.0000
  O   O22       1.0  0.27840  0.59520  0.61990  1.0000
  O   O23       1.0  0.22160  0.09520  0.88010  1.0000
  O   O24       1.0  0.77840  0.09520  0.61990  1.0000
  O   O25       1.0  0.26780  0.60870  0.07450  1.0000
  O   O26       1.0  0.73220  0.60870  0.42550  1.0000
  O   O27       1.0  0.76780  0.10870  0.07450  1.0000
  O   O28       1.0  0.23220  0.10870  0.42550  1.0000
  O   O29       1.0  0.73220  0.39130  0.92550  1.0000
  O   O30       1.0  0.26780  0.39130  0.57450  1.0000
  O   O31       1.0  0.23220  0.89130  0.92550  1.0000
  O   O32       1.0  0.76780  0.89130  0.57450  1.0000
  O   O33       1.0  0.09090  0.48830  0.91180  1.0000
  O   O34       1.0  0.90910  0.48830  0.58820  1.0000
  O   O35       1.0  0.59090  0.98830  0.91180  1.0000
  O   O36       1.0  0.40910  0.98830  0.58820  1.0000
  O   O37       1.0  0.90910  0.51170  0.08820  1.0000
  O   O38       1.0  0.09090  0.51170  0.41180  1.0000
  O   O39       1.0  0.40910  0.01170  0.08820  1.0000
  O   O40       1.0  0.59090  0.01170  0.41180  1.0000
  O   O41       1.0  0.09500  0.55490  0.73180  1.0000
  O   O42       1.0  0.90500  0.55490  0.76820  1.0000
  O   O43       1.0  0.59500  0.05490  0.73180  1.0000
  O   O44       1.0  0.40500  0.05490  0.76820  1.0000
  O   O45       1.0  0.90500  0.44510  0.26820  1.0000
  O   O46       1.0  0.09500  0.44510  0.23180  1.0000
  O   O47       1.0  0.40500  0.94510  0.26820  1.0000
  O   O48       1.0  0.59500  0.94510  0.23180  1.0000
  O   O49       1.0  0.27170  0.67600  0.89460  1.0000
  O   O50       1.0  0.72830  0.67600  0.60540  1.0000
  O   O51       1.0  0.77170  0.17600  0.89460  1.0000
  O   O52       1.0  0.22830  0.17600  0.60540  1.0000
  O   O53       1.0  0.72830  0.32400  0.10540  1.0000
  O   O54       1.0  0.27170  0.32400  0.39460  1.0000
  O   O55       1.0  0.22830  0.82400  0.10540  1.0000
  O   O56       1.0  0.77170  0.82400  0.39460  1.0000
  O   O57       1.0  0.28560  0.45210  0.23300  1.0000
  O   O58       1.0  0.71440  0.45210  0.26700  1.0000
  O   O59       1.0  0.78560  0.95210  0.23300  1.0000
  O   O60       1.0  0.21440  0.95210  0.26700  1.0000
  O   O61       1.0  0.71440  0.54790  0.76700  1.0000
  O   O62       1.0  0.28560  0.54790  0.73300  1.0000
  O   O63       1.0  0.21440  0.04790  0.76700  1.0000
  O   O64       1.0  0.78560  0.04790  0.73300  1.0000
  O   O65       1.0  0.43960  0.59850  0.07680  1.0000
  O   O66       1.0  0.56040  0.59850  0.42320  1.0000
  O   O67       1.0  0.93960  0.09850  0.07680  1.0000
  O   O68       1.0  0.06040  0.09850  0.42320  1.0000
  O   O69       1.0  0.56040  0.40150  0.92320  1.0000
  O   O70       1.0  0.43960  0.40150  0.57680  1.0000
  O   O71       1.0  0.06040  0.90150  0.92320  1.0000
  O   O72       1.0  0.93960  0.90150  0.57680  1.0000
  O   O73       1.0  0.45000  0.39290  0.11830  1.0000
  O   O74       1.0  0.55000  0.39290  0.38170  1.0000
  O   O75       1.0  0.95000  0.89290  0.11830  1.0000
  O   O76       1.0  0.05000  0.89290  0.38170  1.0000
  O   O77       1.0  0.55000  0.60710  0.88170  1.0000
  O   O78       1.0  0.45000  0.60710  0.61830  1.0000
  O   O79       1.0  0.05000  0.10710  0.88170  1.0000
  O   O80       1.0  0.95000  0.10710  0.61830  1.0000
  O   O81       1.0  0.45140  0.46820  0.91440  1.0000
  O   O82       1.0  0.54860  0.46820  0.58560  1.0000
  O   O83       1.0  0.95140  0.96820  0.91440  1.0000
  O   O84       1.0  0.04860  0.96820  0.58560  1.0000
  O   O85       1.0  0.54860  0.53180  0.08560  1.0000
  O   O86       1.0  0.45140  0.53180  0.41440  1.0000
  O   O87       1.0  0.04860  0.03180  0.08560  1.0000
  O   O88       1.0  0.95140  0.03180  0.41440  1.0000
  O   O89       1.0  0.15150  0.42970  0.87740  1.0000
  O   O90       1.0  0.84850  0.42970  0.62260  1.0000
  O   O91       1.0  0.65150  0.92970  0.87740  1.0000
  O   O92       1.0  0.34850  0.92970  0.62260  1.0000
  O   O93       1.0  0.84850  0.57030  0.12260  1.0000
  O   O94       1.0  0.15150  0.57030  0.37740  1.0000
  O   O95       1.0  0.34850  0.07030  0.12260  1.0000
  O   O96       1.0  0.65150  0.07030  0.37740  1.0000
  O   O97       1.0  0.15510  0.46630  0.78460  1.0000
  O   O98       1.0  0.84490  0.46630  0.71540  1.0000
  O   O99       1.0  0.65510  0.96630  0.78460  1.0000
  O   O100      1.0  0.34490  0.96630  0.71540  1.0000
  O   O101      1.0  0.84490  0.53370  0.21540  1.0000
  O   O102      1.0  0.15510  0.53370  0.28460  1.0000
  O   O103      1.0  0.34490  0.03370  0.21540  1.0000
  O   O104      1.0  0.65510  0.03370  0.28460  1.0000
  O   O105      1.0  0.20380  0.38320  0.77740  1.0000
  O   O106      1.0  0.79620  0.38320  0.72260  1.0000
  O   O107      1.0  0.70380  0.88320  0.77740  1.0000
  O   O108      1.0  0.29620  0.88320  0.72260  1.0000
  O   O109      1.0  0.79620  0.61680  0.22260  1.0000
  O   O110      1.0  0.20380  0.61680  0.27740  1.0000
  O   O111      1.0  0.29620  0.11680  0.22260  1.0000
  O   O112      1.0  0.70380  0.11680  0.27740  1.0000
  O   O113      1.0  0.19730  0.34310  0.87200  1.0000
  O   O114      1.0  0.80270  0.34310  0.62800  1.0000
  O   O115      1.0  0.69730  0.84310  0.87200  1.0000
  O   O116      1.0  0.30270  0.84310  0.62800  1.0000
  O   O117      1.0  0.80270  0.65690  0.12800  1.0000
  O   O118      1.0  0.19730  0.65690  0.37200  1.0000
  O   O119      1.0  0.30270  0.15690  0.12800  1.0000
  O   O120      1.0  0.69730  0.15690  0.37200  1.0000
  O   O121      1.0  0.26600  0.45980  0.78340  1.0000
  O   O122      1.0  0.73400  0.45980  0.71660  1.0000
  O   O123      1.0  0.76600  0.95980  0.78340  1.0000
  O   O124      1.0  0.23400  0.95980  0.71660  1.0000
  O   O125      1.0  0.73400  0.54020  0.21660  1.0000
  O   O126      1.0  0.26600  0.54020  0.28340  1.0000
  O   O127      1.0  0.23400  0.04020  0.21660  1.0000
  O   O128      1.0  0.76600  0.04020  0.28340  1.0000
  O   O129      1.0  0.35290  0.41870  0.87750  1.0000
  O   O130      1.0  0.64710  0.41870  0.62250  1.0000
  O   O131      1.0  0.85290  0.91870  0.87750  1.0000
  O   O132      1.0  0.14710  0.91870  0.62250  1.0000
  O   O133      1.0  0.64710  0.58130  0.12250  1.0000
  O   O134      1.0  0.35290  0.58130  0.37750  1.0000
  O   O135      1.0  0.14710  0.08130  0.12250  1.0000
  O   O136      1.0  0.85290  0.08130  0.37750  1.0000
  O   O137      1.0  0.29360  0.33780  0.87250  1.0000
  O   O138      1.0  0.70640  0.33780  0.62750  1.0000
  O   O139      1.0  0.79360  0.83780  0.87250  1.0000
  O   O140      1.0  0.20640  0.83780  0.62750  1.0000
  O   O141      1.0  0.70640  0.66220  0.12750  1.0000
  O   O142      1.0  0.29360  0.66220  0.37250  1.0000
  O   O143      1.0  0.20640  0.16220  0.12750  1.0000
  O   O144      1.0  0.79360  0.16220  0.37250  1.0000
  O   O145      1.0  0.19360  0.44670  0.00270  1.0000
  O   O146      1.0  0.80640  0.44670  0.49730  1.0000
  O   O147      1.0  0.69360  0.94670  0.00270  1.0000
  O   O148      1.0  0.30640  0.94670  0.49730  1.0000
  O   O149      1.0  0.80640  0.55330  0.99730  1.0000
  O   O150      1.0  0.19360  0.55330  0.50270  1.0000
  O   O151      1.0  0.30640  0.05330  0.99730  1.0000
  O   O152      1.0  0.69360  0.05330  0.50270  1.0000
  O   O153      1.0  0.26180  0.37820  0.00330  1.0000
  O   O154      1.0  0.73820  0.37820  0.49670  1.0000
  O   O155      1.0  0.76180  0.87820  0.00330  1.0000
  O   O156      1.0  0.23820  0.87820  0.49670  1.0000
  O   O157      1.0  0.73820  0.62180  0.99670  1.0000
  O   O158      1.0  0.26180  0.62180  0.50330  1.0000
  O   O159      1.0  0.23820  0.12180  0.99670  1.0000
  O   O160      1.0  0.76180  0.12180  0.50330  1.0000
  O   O161      1.0  0.34520  0.43840  0.07550  1.0000
  O   O162      1.0  0.65480  0.43840  0.42450  1.0000
  O   O163      1.0  0.84520  0.93840  0.07550  1.0000
  O   O164      1.0  0.15480  0.93840  0.42450  1.0000
  O   O165      1.0  0.65480  0.56160  0.92450  1.0000
  O   O166      1.0  0.34520  0.56160  0.57550  1.0000
  O   O167      1.0  0.15480  0.06160  0.92450  1.0000
  O   O168      1.0  0.84520  0.06160  0.57550  1.0000
  O   O169      1.0  0.27730  0.50350  0.07820  1.0000
  O   O170      1.0  0.72270  0.50350  0.42180  1.0000
  O   O171      1.0  0.77730  0.00350  0.07820  1.0000
  O   O172      1.0  0.22270  0.00350  0.42180  1.0000
  O   O173      1.0  0.72270  0.49650  0.92180  1.0000
  O   O174      1.0  0.27730  0.49650  0.57820  1.0000
  O   O175      1.0  0.22270  0.99650  0.92180  1.0000
  O   O176      1.0  0.77730  0.99650  0.57820  1.0000
  O   O177      1.0  0.18890  0.54440  0.98120  1.0000
  O   O178      1.0  0.81110  0.54440  0.51880  1.0000
  O   O179      1.0  0.68890  0.04440  0.98120  1.0000
  O   O180      1.0  0.31110  0.04440  0.51880  1.0000
  O   O181      1.0  0.81110  0.45560  0.01880  1.0000
  O   O182      1.0  0.18890  0.45560  0.48120  1.0000
  O   O183      1.0  0.31110  0.95560  0.01880  1.0000
  O   O184      1.0  0.68890  0.95560  0.48120  1.0000
  O   O185      1.0  0.14860  0.52800  0.86120  1.0000
  O   O186      1.0  0.85140  0.52800  0.63880  1.0000
  O   O187      1.0  0.64860  0.02800  0.86120  1.0000
  O   O188      1.0  0.35140  0.02800  0.63880  1.0000
  O   O189      1.0  0.85140  0.47200  0.13880  1.0000
  O   O190      1.0  0.14860  0.47200  0.36120  1.0000
  O   O191      1.0  0.35140  0.97200  0.13880  1.0000
  O   O192      1.0  0.64860  0.97200  0.36120  1.0000
  O   O193      1.0  0.33840  0.55660  0.05090  1.0000
  O   O194      1.0  0.66160  0.55660  0.44910  1.0000
  O   O195      1.0  0.83840  0.05660  0.05090  1.0000
  O   O196      1.0  0.16160  0.05660  0.44910  1.0000
  O   O197      1.0  0.66160  0.44340  0.94910  1.0000
  O   O198      1.0  0.33840  0.44340  0.55090  1.0000
  O   O199      1.0  0.16160  0.94340  0.94910  1.0000
  O   O200      1.0  0.83840  0.94340  0.55090  1.0000
  O   O201      1.0  0.25140  0.59600  0.95550  1.0000
  O   O202      1.0  0.74860  0.59600  0.54450  1.0000
  O   O203      1.0  0.75140  0.09600  0.95550  1.0000
  O   O204      1.0  0.24860  0.09600  0.54450  1.0000
  O   O205      1.0  0.74860  0.40400  0.04450  1.0000
  O   O206      1.0  0.25140  0.40400  0.45550  1.0000
  O   O207      1.0  0.24860  0.90400  0.04450  1.0000
  O   O208      1.0  0.75140  0.90400  0.45550  1.0000
  O   O209      1.0  0.19250  0.59970  0.83080  1.0000
  O   O210      1.0  0.80750  0.59970  0.66920  1.0000
  O   O211      1.0  0.69250  0.09970  0.83080  1.0000
  O   O212      1.0  0.30750  0.09970  0.66920  1.0000
  O   O213      1.0  0.80750  0.40030  0.16920  1.0000
  O   O214      1.0  0.19250  0.40030  0.33080  1.0000
  O   O215      1.0  0.30750  0.90030  0.16920  1.0000
  O   O216      1.0  0.69250  0.90030  0.33080  1.0000
  O   O217      1.0  0.19900  0.53940  0.75100  1.0000
  O   O218      1.0  0.80100  0.53940  0.74900  1.0000
  O   O219      1.0  0.69900  0.03940  0.75100  1.0000
  O   O220      1.0  0.30100  0.03940  0.74900  1.0000
  O   O221      1.0  0.80100  0.46060  0.24900  1.0000
  O   O222      1.0  0.19900  0.46060  0.25100  1.0000
  O   O223      1.0  0.30100  0.96060  0.24900  1.0000
  O   O224      1.0  0.69900  0.96060  0.25100  1.0000
  O   O225      1.0  0.34020  0.59130  0.95580  1.0000
  O   O226      1.0  0.65980  0.59130  0.54420  1.0000
  O   O227      1.0  0.84020  0.09130  0.95580  1.0000
  O   O228      1.0  0.15980  0.09130  0.54420  1.0000
  O   O229      1.0  0.65980  0.40870  0.04420  1.0000
  O   O230      1.0  0.34020  0.40870  0.45580  1.0000
  O   O231      1.0  0.15980  0.90870  0.04420  1.0000
  O   O232      1.0  0.84020  0.90870  0.45580  1.0000
  O   O233      1.0  0.28290  0.59400  0.82980  1.0000
  O   O234      1.0  0.71710  0.59400  0.67020  1.0000
  O   O235      1.0  0.78290  0.09400  0.82980  1.0000
  O   O236      1.0  0.21710  0.09400  0.67020  1.0000
  O   O237      1.0  0.71710  0.40600  0.17020  1.0000
  O   O238      1.0  0.28290  0.40600  0.32980  1.0000
  O   O239      1.0  0.21710  0.90600  0.17020  1.0000
  O   O240      1.0  0.78290  0.90600  0.32980  1.0000
  O   O241      1.0  0.34830  0.51660  0.86070  1.0000
  O   O242      1.0  0.65170  0.51660  0.63930  1.0000
  O   O243      1.0  0.84830  0.01660  0.86070  1.0000
  O   O244      1.0  0.15170  0.01660  0.63930  1.0000
  O   O245      1.0  0.65170  0.48340  0.13930  1.0000
  O   O246      1.0  0.34830  0.48340  0.36070  1.0000
  O   O247      1.0  0.15170  0.98340  0.13930  1.0000
  O   O248      1.0  0.84830  0.98340  0.36070  1.0000
  O   O249      1.0  0.42390  0.49540  0.08070  1.0000
  O   O250      1.0  0.57610  0.49540  0.41930  1.0000
  O   O251      1.0  0.92390  0.99540  0.08070  1.0000
  O   O252      1.0  0.07610  0.99540  0.41930  1.0000
  O   O253      1.0  0.57610  0.50460  0.91930  1.0000
  O   O254      1.0  0.42390  0.50460  0.58070  1.0000
  O   O255      1.0  0.07610  0.00460  0.91930  1.0000
  O   O256      1.0  0.92390  0.00460  0.58070  1.0000
  O   O257      1.0  0.42310  0.52990  0.98280  1.0000
  O   O258      1.0  0.57690  0.52990  0.51720  1.0000
  O   O259      1.0  0.92310  0.02990  0.98280  1.0000
  O   O260      1.0  0.07690  0.02990  0.51720  1.0000
  O   O261      1.0  0.57690  0.47010  0.01720  1.0000
  O   O262      1.0  0.42310  0.47010  0.48280  1.0000
  O   O263      1.0  0.07690  0.97010  0.01720  1.0000
  O   O264      1.0  0.92310  0.97010  0.48280  1.0000
  O   O265      1.0  0.35650  0.37320  0.00130  1.0000
  O   O266      1.0  0.64350  0.37320  0.49870  1.0000
  O   O267      1.0  0.85650  0.87320  0.00130  1.0000
  O   O268      1.0  0.14350  0.87320  0.49870  1.0000
  O   O269      1.0  0.64350  0.62680  0.99870  1.0000
  O   O270      1.0  0.35650  0.62680  0.50130  1.0000
  O   O271      1.0  0.14350  0.12680  0.99870  1.0000
  O   O272      1.0  0.85650  0.12680  0.50130  1.0000
  O   O273      1.0  0.43010  0.43290  0.00380  1.0000
  O   O274      1.0  0.56990  0.43290  0.49620  1.0000
  O   O275      1.0  0.93010  0.93290  0.00380  1.0000
  O   O276      1.0  0.06990  0.93290  0.49620  1.0000
  O   O277      1.0  0.56990  0.56710  0.99620  1.0000
  O   O278      1.0  0.43010  0.56710  0.50380  1.0000
  O   O279      1.0  0.06990  0.06710  0.99620  1.0000
  O   O280      1.0  0.93010  0.06710  0.50380  1.0000
  O   O281      1.0  0.25830  0.42510  0.89030  1.0000
  O   O282      1.0  0.74170  0.42510  0.60970  1.0000
  O   O283      1.0  0.75830  0.92510  0.89030  1.0000
  O   O284      1.0  0.24170  0.92510  0.60970  1.0000
  O   O285      1.0  0.74170  0.57490  0.10970  1.0000
  O   O286      1.0  0.25830  0.57490  0.39030  1.0000
  O   O287      1.0  0.24170  0.07490  0.10970  1.0000
  O   O288      1.0  0.75830  0.07490  0.39030  1.0000
  O   O289      1.0  0.25230  0.48490  0.96350  1.0000
  O   O290      1.0  0.74770  0.48490  0.53650  1.0000
  O   O291      1.0  0.75230  0.98490  0.96350  1.0000
  O   O292      1.0  0.24770  0.98490  0.53650  1.0000
  O   O293      1.0  0.74770  0.51510  0.03650  1.0000
  O   O294      1.0  0.25230  0.51510  0.46350  1.0000
  O   O295      1.0  0.24770  0.01510  0.03650  1.0000
  O   O296      1.0  0.75230  0.01510  0.46350  1.0000
  O   O297      1.0  0.25520  0.51890  0.87330  1.0000
  O   O298      1.0  0.74480  0.51890  0.62670  1.0000
  O   O299      1.0  0.75520  0.01890  0.87330  1.0000
  O   O300      1.0  0.24480  0.01890  0.62670  1.0000
  O   O301      1.0  0.74480  0.48110  0.12670  1.0000
  O   O302      1.0  0.25520  0.48110  0.37330  1.0000
  O   O303      1.0  0.24480  0.98110  0.12670  1.0000
  O   O304      1.0  0.75520  0.98110  0.37330  1.0000
  O   O305      1.0  0.33910  0.48000  0.96510  1.0000
  O   O306      1.0  0.66090  0.48000  0.53490  1.0000
  O   O307      1.0  0.83910  0.98000  0.96510  1.0000
  O   O308      1.0  0.16090  0.98000  0.53490  1.0000
  O   O309      1.0  0.66090  0.52000  0.03490  1.0000
  O   O310      1.0  0.33910  0.52000  0.46510  1.0000
  O   O311      1.0  0.16090  0.02000  0.03490  1.0000
  O   O312      1.0  0.83910  0.02000  0.46510  1.0000
