data_image0
_chemical_formula_structural       In10Zn2O96C16H8C24H8C8H8C32H8C8H8C24H8C32
_chemical_formula_sum              "In10 Zn2 O96 C144 H48"
_cell_length_a       22.7219
_cell_length_b       22.7219
_cell_length_c       17.3033
_cell_angle_alpha    90
_cell_angle_beta     90
_cell_angle_gamma    90

_space_group_name_H-M_alt    "P 1"
_space_group_IT_number       1

loop_
  _space_group_symop_operation_xyz
  'x, y, z'

loop_
  _atom_site_type_symbol
  _atom_site_label
  _atom_site_symmetry_multiplicity
  _atom_site_fract_x
  _atom_site_fract_y
  _atom_site_fract_z
  _atom_site_occupancy
  In  In1       1.0  0.79933  0.79987  0.40891  1.0000
  In  In2       1.0  0.20067  0.20013  0.40891  1.0000
  In  In3       1.0  0.79987  0.20067  0.59109  1.0000
  In  In4       1.0  0.20013  0.79933  0.59109  1.0000
  In  In5       1.0  0.29933  0.29987  0.90891  1.0000
  In  In6       1.0  0.70067  0.70013  0.90891  1.0000
  In  In7       1.0  0.29987  0.70067  0.09109  1.0000
  In  In8       1.0  0.70013  0.29933  0.09109  1.0000
  In  In9       1.0  0.50000  0.50000  0.50000  1.0000
  In  In10      1.0  0.00000  0.00000  0.00000  1.0000
  Zn  Zn1       1.0  0.50000  0.00000  0.75000  1.0000
  Zn  Zn2       1.0  0.00000  0.50000  0.25000  1.0000
  O   O1        1.0  0.77910  0.75820  0.52320  1.0000
  O   O2        1.0  0.22090  0.24180  0.52320  1.0000
  O   O3        1.0  0.75820  0.22090  0.47680  1.0000
  O   O4        1.0  0.24180  0.77910  0.47680  1.0000
  O   O5        1.0  0.27910  0.25820  0.02320  1.0000
  O   O6        1.0  0.72090  0.74180  0.02320  1.0000
  O   O7        1.0  0.25820  0.72090  0.97680  1.0000
  O   O8        1.0  0.74180  0.27910  0.97680  1.0000
  O   O9        1.0  0.73040  0.70140  0.78750  1.0000
  O   O10       1.0  0.26960  0.29860  0.78750  1.0000
  O   O11       1.0  0.70140  0.26960  0.21250  1.0000
  O   O12       1.0  0.29860  0.73040  0.21250  1.0000
  O   O13       1.0  0.23040  0.20140  0.28750  1.0000
  O   O14       1.0  0.76960  0.79860  0.28750  1.0000
  O   O15       1.0  0.20140  0.76960  0.71250  1.0000
  O   O16       1.0  0.79860  0.23040  0.71250  1.0000
  O   O17       1.0  0.71210  0.85070  0.43880  1.0000
  O   O18       1.0  0.28790  0.14930  0.43880  1.0000
  O   O19       1.0  0.85070  0.28790  0.56120  1.0000
  O   O20       1.0  0.14930  0.71210  0.56120  1.0000
  O   O21       1.0  0.21210  0.35070  0.93880  1.0000
  O   O22       1.0  0.78790  0.64930  0.93880  1.0000
  O   O23       1.0  0.35070  0.78790  0.06120  1.0000
  O   O24       1.0  0.64930  0.21210  0.06120  1.0000
  O   O25       1.0  0.65280  0.64810  0.80910  1.0000
  O   O26       1.0  0.34720  0.35190  0.80910  1.0000
  O   O27       1.0  0.64810  0.34720  0.19090  1.0000
  O   O28       1.0  0.35190  0.65280  0.19090  1.0000
  O   O29       1.0  0.15280  0.14810  0.30910  1.0000
  O   O30       1.0  0.84720  0.85190  0.30910  1.0000
  O   O31       1.0  0.14810  0.84720  0.69090  1.0000
  O   O32       1.0  0.85190  0.15280  0.69090  1.0000
  O   O33       1.0  0.73030  0.13610  0.61610  1.0000
  O   O34       1.0  0.26970  0.86390  0.61610  1.0000
  O   O35       1.0  0.13610  0.26970  0.38390  1.0000
  O   O36       1.0  0.86390  0.73030  0.38390  1.0000
  O   O37       1.0  0.23030  0.63610  0.11610  1.0000
  O   O38       1.0  0.76970  0.36390  0.11610  1.0000
  O   O39       1.0  0.63610  0.76970  0.88390  1.0000
  O   O40       1.0  0.36390  0.23030  0.88390  1.0000
  O   O41       1.0  0.80220  0.10570  0.54090  1.0000
  O   O42       1.0  0.19780  0.89430  0.54090  1.0000
  O   O43       1.0  0.10570  0.19780  0.45910  1.0000
  O   O44       1.0  0.89430  0.80220  0.45910  1.0000
  O   O45       1.0  0.30220  0.60570  0.04090  1.0000
  O   O46       1.0  0.69780  0.39430  0.04090  1.0000
  O   O47       1.0  0.60570  0.69780  0.95910  1.0000
  O   O48       1.0  0.39430  0.30220  0.95910  1.0000
  O   O49       1.0  0.79800  0.89020  0.46220  1.0000
  O   O50       1.0  0.20200  0.10980  0.46220  1.0000
  O   O51       1.0  0.89020  0.20200  0.53780  1.0000
  O   O52       1.0  0.10980  0.79800  0.53780  1.0000
  O   O53       1.0  0.29800  0.39020  0.96220  1.0000
  O   O54       1.0  0.70200  0.60980  0.96220  1.0000
  O   O55       1.0  0.39020  0.70200  0.03780  1.0000
  O   O56       1.0  0.60980  0.29800  0.03780  1.0000
  O   O57       1.0  0.73320  0.72150  0.42340  1.0000
  O   O58       1.0  0.26680  0.27850  0.42340  1.0000
  O   O59       1.0  0.72150  0.26680  0.57660  1.0000
  O   O60       1.0  0.27850  0.73320  0.57660  1.0000
  O   O61       1.0  0.23320  0.22150  0.92340  1.0000
  O   O62       1.0  0.76680  0.77850  0.92340  1.0000
  O   O63       1.0  0.22150  0.76680  0.07660  1.0000
  O   O64       1.0  0.77850  0.23320  0.07660  1.0000
  O   O65       1.0  0.55320  0.54440  0.59070  1.0000
  O   O66       1.0  0.44680  0.45560  0.59070  1.0000
  O   O67       1.0  0.54440  0.44680  0.40930  1.0000
  O   O68       1.0  0.45560  0.55320  0.40930  1.0000
  O   O69       1.0  0.05320  0.04440  0.09070  1.0000
  O   O70       1.0  0.94680  0.95560  0.09070  1.0000
  O   O71       1.0  0.04440  0.94680  0.90930  1.0000
  O   O72       1.0  0.95560  0.05320  0.90930  1.0000
  O   O73       1.0  0.57800  0.56400  0.47310  1.0000
  O   O74       1.0  0.42200  0.43600  0.47310  1.0000
  O   O75       1.0  0.56400  0.42200  0.52690  1.0000
  O   O76       1.0  0.43600  0.57800  0.52690  1.0000
  O   O77       1.0  0.07800  0.06400  0.97310  1.0000
  O   O78       1.0  0.92200  0.93600  0.97310  1.0000
  O   O79       1.0  0.06400  0.92200  0.02690  1.0000
  O   O80       1.0  0.93600  0.07800  0.02690  1.0000
  O   O81       1.0  0.57210  0.00690  0.69050  1.0000
  O   O82       1.0  0.42790  0.99310  0.69050  1.0000
  O   O83       1.0  0.00690  0.42790  0.30950  1.0000
  O   O84       1.0  0.99310  0.57210  0.30950  1.0000
  O   O85       1.0  0.07210  0.50690  0.19050  1.0000
  O   O86       1.0  0.92790  0.49310  0.19050  1.0000
  O   O87       1.0  0.50690  0.92790  0.80950  1.0000
  O   O88       1.0  0.49310  0.07210  0.80950  1.0000
  O   O89       1.0  0.54560  0.92900  0.61740  1.0000
  O   O90       1.0  0.45440  0.07100  0.61740  1.0000
  O   O91       1.0  0.92900  0.45440  0.38260  1.0000
  O   O92       1.0  0.07100  0.54560  0.38260  1.0000
  O   O93       1.0  0.04560  0.42900  0.11740  1.0000
  O   O94       1.0  0.95440  0.57100  0.11740  1.0000
  O   O95       1.0  0.42900  0.95440  0.88260  1.0000
  O   O96       1.0  0.57100  0.04560  0.88260  1.0000
  C   C1        1.0  0.63500  0.60960  0.57350  1.0000
  C   C2        1.0  0.36500  0.39040  0.57350  1.0000
  C   C3        1.0  0.60960  0.36500  0.42650  1.0000
  C   C4        1.0  0.39040  0.63500  0.42650  1.0000
  C   C5        1.0  0.13500  0.10960  0.07350  1.0000
  C   C6        1.0  0.86500  0.89040  0.07350  1.0000
  C   C7        1.0  0.10960  0.86500  0.92650  1.0000
  C   C8        1.0  0.89040  0.13500  0.92650  1.0000
  C   C9        1.0  0.64180  0.61770  0.65090  1.0000
  C   C10       1.0  0.35820  0.38230  0.65090  1.0000
  C   C11       1.0  0.61770  0.35820  0.34910  1.0000
  C   C12       1.0  0.38230  0.64180  0.34910  1.0000
  C   C13       1.0  0.14180  0.11770  0.15090  1.0000
  C   C14       1.0  0.85820  0.88230  0.15090  1.0000
  C   C15       1.0  0.11770  0.85820  0.84910  1.0000
  C   C16       1.0  0.88230  0.14180  0.84910  1.0000
  H   H1        1.0  0.61840  0.59680  0.68540  1.0000
  H   H2        1.0  0.38160  0.40320  0.68540  1.0000
  H   H3        1.0  0.59680  0.38160  0.31460  1.0000
  H   H4        1.0  0.40320  0.61840  0.31460  1.0000
  H   H5        1.0  0.11840  0.09680  0.18540  1.0000
  H   H6        1.0  0.88160  0.90320  0.18540  1.0000
  H   H7        1.0  0.09680  0.88160  0.81460  1.0000
  H   H8        1.0  0.90320  0.11840  0.81460  1.0000
  C   C17       1.0  0.74200  0.72380  0.49420  1.0000
  C   C18       1.0  0.25800  0.27620  0.49420  1.0000
  C   C19       1.0  0.72380  0.25800  0.50580  1.0000
  C   C20       1.0  0.27620  0.74200  0.50580  1.0000
  C   C21       1.0  0.24200  0.22380  0.99420  1.0000
  C   C22       1.0  0.75800  0.77620  0.99420  1.0000
  C   C23       1.0  0.22380  0.75800  0.00580  1.0000
  C   C24       1.0  0.77620  0.24200  0.00580  1.0000
  C   C25       1.0  0.68410  0.65750  0.67890  1.0000
  C   C26       1.0  0.31590  0.34250  0.67890  1.0000
  C   C27       1.0  0.65750  0.31590  0.32110  1.0000
  C   C28       1.0  0.34250  0.68410  0.32110  1.0000
  C   C29       1.0  0.18410  0.15750  0.17890  1.0000
  C   C30       1.0  0.81590  0.84250  0.17890  1.0000
  C   C31       1.0  0.15750  0.81590  0.82110  1.0000
  C   C32       1.0  0.84250  0.18410  0.82110  1.0000
  C   C33       1.0  0.66590  0.64080  0.52310  1.0000
  C   C34       1.0  0.33410  0.35920  0.52310  1.0000
  C   C35       1.0  0.64080  0.33410  0.47690  1.0000
  C   C36       1.0  0.35920  0.66590  0.47690  1.0000
  C   C37       1.0  0.16590  0.14080  0.02310  1.0000
  C   C38       1.0  0.83410  0.85920  0.02310  1.0000
  C   C39       1.0  0.14080  0.83410  0.97690  1.0000
  C   C40       1.0  0.85920  0.16590  0.97690  1.0000
  H   H9        1.0  0.65990  0.63490  0.47050  1.0000
  H   H10       1.0  0.34010  0.36510  0.47050  1.0000
  H   H11       1.0  0.63490  0.34010  0.52950  1.0000
  H   H12       1.0  0.36510  0.65990  0.52950  1.0000
  H   H13       1.0  0.15990  0.13490  0.97050  1.0000
  H   H14       1.0  0.84010  0.86510  0.97050  1.0000
  H   H15       1.0  0.13490  0.84010  0.02950  1.0000
  H   H16       1.0  0.86510  0.15990  0.02950  1.0000
  C   C41       1.0  0.71860  0.68940  0.62780  1.0000
  C   C42       1.0  0.28140  0.31060  0.62780  1.0000
  C   C43       1.0  0.68940  0.28140  0.37220  1.0000
  C   C44       1.0  0.31060  0.71860  0.37220  1.0000
  C   C45       1.0  0.21860  0.18940  0.12780  1.0000
  C   C46       1.0  0.78140  0.81060  0.12780  1.0000
  C   C47       1.0  0.18940  0.78140  0.87220  1.0000
  C   C48       1.0  0.81060  0.21860  0.87220  1.0000
  H   H17       1.0  0.74800  0.71440  0.64580  1.0000
  H   H18       1.0  0.25200  0.28560  0.64580  1.0000
  H   H19       1.0  0.71440  0.25200  0.35420  1.0000
  H   H20       1.0  0.28560  0.74800  0.35420  1.0000
  H   H21       1.0  0.24800  0.21440  0.14580  1.0000
  H   H22       1.0  0.75200  0.78560  0.14580  1.0000
  H   H23       1.0  0.21440  0.75200  0.85420  1.0000
  H   H24       1.0  0.78560  0.24800  0.85420  1.0000
  C   C49       1.0  0.58270  0.57070  0.54800  1.0000
  C   C50       1.0  0.41730  0.42930  0.54800  1.0000
  C   C51       1.0  0.57070  0.41730  0.45200  1.0000
  C   C52       1.0  0.42930  0.58270  0.45200  1.0000
  C   C53       1.0  0.08270  0.07070  0.04800  1.0000
  C   C54       1.0  0.91730  0.92930  0.04800  1.0000
  C   C55       1.0  0.07070  0.91730  0.95200  1.0000
  C   C56       1.0  0.92930  0.08270  0.95200  1.0000
  C   C57       1.0  0.70790  0.68310  0.54770  1.0000
  C   C58       1.0  0.29210  0.31690  0.54770  1.0000
  C   C59       1.0  0.68310  0.29210  0.45230  1.0000
  C   C60       1.0  0.31690  0.70790  0.45230  1.0000
  C   C61       1.0  0.20790  0.18310  0.04770  1.0000
  C   C62       1.0  0.79210  0.81690  0.04770  1.0000
  C   C63       1.0  0.18310  0.79210  0.95230  1.0000
  C   C64       1.0  0.81690  0.20790  0.95230  1.0000
  C   C65       1.0  0.72140  0.03720  0.57060  1.0000
  C   C66       1.0  0.27860  0.96280  0.57060  1.0000
  C   C67       1.0  0.03720  0.27860  0.42940  1.0000
  C   C68       1.0  0.96280  0.72140  0.42940  1.0000
  C   C69       1.0  0.22140  0.53720  0.07060  1.0000
  C   C70       1.0  0.77860  0.46280  0.07060  1.0000
  C   C71       1.0  0.53720  0.77860  0.92940  1.0000
  C   C72       1.0  0.46280  0.22140  0.92940  1.0000
  C   C73       1.0  0.67080  0.02960  0.60480  1.0000
  C   C74       1.0  0.32920  0.97040  0.60480  1.0000
  C   C75       1.0  0.02960  0.32920  0.39520  1.0000
  C   C76       1.0  0.97040  0.67080  0.39520  1.0000
  C   C77       1.0  0.17080  0.52960  0.10480  1.0000
  C   C78       1.0  0.82920  0.47040  0.10480  1.0000
  C   C79       1.0  0.52960  0.82920  0.89520  1.0000
  C   C80       1.0  0.47040  0.17080  0.89520  1.0000
  H   H25       1.0  0.65570  0.05980  0.63530  1.0000
  H   H26       1.0  0.34430  0.94020  0.63530  1.0000
  H   H27       1.0  0.05980  0.34430  0.36470  1.0000
  H   H28       1.0  0.94020  0.65570  0.36470  1.0000
  H   H29       1.0  0.15570  0.55980  0.13530  1.0000
  H   H30       1.0  0.84430  0.44020  0.13530  1.0000
  H   H31       1.0  0.55980  0.84430  0.86470  1.0000
  H   H32       1.0  0.44020  0.15570  0.86470  1.0000
  C   C81       1.0  0.65920  0.93230  0.54700  1.0000
  C   C82       1.0  0.34080  0.06770  0.54700  1.0000
  C   C83       1.0  0.93230  0.34080  0.45300  1.0000
  C   C84       1.0  0.06770  0.65920  0.45300  1.0000
  C   C85       1.0  0.15920  0.43230  0.04700  1.0000
  C   C86       1.0  0.84080  0.56770  0.04700  1.0000
  C   C87       1.0  0.43230  0.84080  0.95300  1.0000
  C   C88       1.0  0.56770  0.15920  0.95300  1.0000
  H   H33       1.0  0.63730  0.89890  0.53570  1.0000
  H   H34       1.0  0.36270  0.10110  0.53570  1.0000
  H   H35       1.0  0.89890  0.36270  0.46430  1.0000
  H   H36       1.0  0.10110  0.63730  0.46430  1.0000
  H   H37       1.0  0.13730  0.39890  0.03570  1.0000
  H   H38       1.0  0.86270  0.60110  0.03570  1.0000
  H   H39       1.0  0.39890  0.86270  0.96430  1.0000
  H   H40       1.0  0.60110  0.13730  0.96430  1.0000
  C   C89       1.0  0.71480  0.93950  0.51370  1.0000
  C   C90       1.0  0.28520  0.06050  0.51370  1.0000
  C   C91       1.0  0.93950  0.28520  0.48630  1.0000
  C   C92       1.0  0.06050  0.71480  0.48630  1.0000
  C   C93       1.0  0.21480  0.43950  0.01370  1.0000
  C   C94       1.0  0.78520  0.56050  0.01370  1.0000
  C   C95       1.0  0.43950  0.78520  0.98630  1.0000
  C   C96       1.0  0.56050  0.21480  0.98630  1.0000
  C   C97       1.0  0.63640  0.97450  0.59660  1.0000
  C   C98       1.0  0.36360  0.02550  0.59660  1.0000
  C   C99       1.0  0.97450  0.36360  0.40340  1.0000
  C   C100      1.0  0.02550  0.63640  0.40340  1.0000
  C   C101      1.0  0.13640  0.47450  0.09660  1.0000
  C   C102      1.0  0.86360  0.52550  0.09660  1.0000
  C   C103      1.0  0.47450  0.86360  0.90340  1.0000
  C   C104      1.0  0.52550  0.13640  0.90340  1.0000
  C   C105      1.0  0.74840  0.99190  0.52270  1.0000
  C   C106      1.0  0.25160  0.00810  0.52270  1.0000
  C   C107      1.0  0.99190  0.25160  0.47730  1.0000
  C   C108      1.0  0.00810  0.74840  0.47730  1.0000
  C   C109      1.0  0.24840  0.49190  0.02270  1.0000
  C   C110      1.0  0.75160  0.50810  0.02270  1.0000
  C   C111      1.0  0.49190  0.75160  0.97730  1.0000
  C   C112      1.0  0.50810  0.24840  0.97730  1.0000
  H   H41       1.0  0.78500  0.99700  0.49960  1.0000
  H   H42       1.0  0.21500  0.00300  0.49960  1.0000
  H   H43       1.0  0.99700  0.21500  0.50040  1.0000
  H   H44       1.0  0.00300  0.78500  0.50040  1.0000
  H   H45       1.0  0.28500  0.49700  0.99960  1.0000
  H   H46       1.0  0.71500  0.50300  0.99960  1.0000
  H   H47       1.0  0.49700  0.71500  0.00040  1.0000
  H   H48       1.0  0.50300  0.28500  0.00040  1.0000
  C   C113      1.0  0.74560  0.89180  0.46090  1.0000
  C   C114      1.0  0.25440  0.10820  0.46090  1.0000
  C   C115      1.0  0.89180  0.25440  0.53910  1.0000
  C   C116      1.0  0.10820  0.74560  0.53910  1.0000
  C   C117      1.0  0.24560  0.39180  0.96090  1.0000
  C   C118      1.0  0.75440  0.60820  0.96090  1.0000
  C   C119      1.0  0.39180  0.75440  0.03910  1.0000
  C   C120      1.0  0.60820  0.24560  0.03910  1.0000
  C   C121      1.0  0.57790  0.96840  0.63620  1.0000
  C   C122      1.0  0.42210  0.03160  0.63620  1.0000
  C   C123      1.0  0.96840  0.42210  0.36380  1.0000
  C   C124      1.0  0.03160  0.57790  0.36380  1.0000
  C   C125      1.0  0.07790  0.46840  0.13620  1.0000
  C   C126      1.0  0.92210  0.53160  0.13620  1.0000
  C   C127      1.0  0.46840  0.92210  0.86380  1.0000
  C   C128      1.0  0.53160  0.07790  0.86380  1.0000
  C   C129      1.0  0.75160  0.09450  0.57940  1.0000
  C   C130      1.0  0.24840  0.90550  0.57940  1.0000
  C   C131      1.0  0.09450  0.24840  0.42060  1.0000
  C   C132      1.0  0.90550  0.75160  0.42060  1.0000
  C   C133      1.0  0.25160  0.59450  0.07940  1.0000
  C   C134      1.0  0.74840  0.40550  0.07940  1.0000
  C   C135      1.0  0.59450  0.74840  0.92060  1.0000
  C   C136      1.0  0.40550  0.25160  0.92060  1.0000
  C   C137      1.0  0.68890  0.67080  0.76350  1.0000
  C   C138      1.0  0.31110  0.32920  0.76350  1.0000
  C   C139      1.0  0.67080  0.31110  0.23650  1.0000
  C   C140      1.0  0.32920  0.68890  0.23650  1.0000
  C   C141      1.0  0.18890  0.17080  0.26350  1.0000
  C   C142      1.0  0.81110  0.82920  0.26350  1.0000
  C   C143      1.0  0.17080  0.81110  0.73650  1.0000
  C   C144      1.0  0.82920  0.18890  0.73650  1.0000
