data_image0
_chemical_formula_structural       C48H16C16H16C48H16C32H16C16H16C32H16C48H48C16H48C48H16C48H16C16H16C32H16C16H16C32H16C48H48C16H48Cd24O192
_chemical_formula_sum              "C512 H384 Cd24 O192"
_cell_length_a       22.18
_cell_length_b       22.18
_cell_length_c       43.666
_cell_angle_alpha    90
_cell_angle_beta     90
_cell_angle_gamma    90

_space_group_name_H-M_alt    "P 1"
_space_group_IT_number       1

loop_
  _space_group_symop_operation_xyz
  'x, y, z'

loop_
  _atom_site_type_symbol
  _atom_site_label
  _atom_site_symmetry_multiplicity
  _atom_site_fract_x
  _atom_site_fract_y
  _atom_site_fract_z
  _atom_site_occupancy
  C   C1        1.0  0.63130  0.05630  0.37335  1.0000
  C   C2        1.0  0.36870  0.94370  0.37335  1.0000
  C   C3        1.0  0.05630  0.36870  0.62665  1.0000
  C   C4        1.0  0.94370  0.63130  0.62665  1.0000
  C   C5        1.0  0.86870  0.05630  0.37665  1.0000
  C   C6        1.0  0.13130  0.94370  0.37665  1.0000
  C   C7        1.0  0.44370  0.36870  0.12335  1.0000
  C   C8        1.0  0.55630  0.63130  0.12335  1.0000
  C   C9        1.0  0.13130  0.55630  0.87335  1.0000
  C   C10       1.0  0.86870  0.44370  0.87335  1.0000
  C   C11       1.0  0.55630  0.86870  0.12665  1.0000
  C   C12       1.0  0.44370  0.13130  0.12665  1.0000
  C   C13       1.0  0.36870  0.55630  0.87665  1.0000
  C   C14       1.0  0.63130  0.44370  0.87665  1.0000
  C   C15       1.0  0.94370  0.86870  0.62335  1.0000
  C   C16       1.0  0.05630  0.13130  0.62335  1.0000
  C   C17       1.0  0.62920  0.02020  0.34468  1.0000
  C   C18       1.0  0.37080  0.97980  0.34468  1.0000
  C   C19       1.0  0.02020  0.37080  0.65532  1.0000
  C   C20       1.0  0.97980  0.62920  0.65532  1.0000
  C   C21       1.0  0.87080  0.02020  0.40532  1.0000
  C   C22       1.0  0.12920  0.97980  0.40532  1.0000
  C   C23       1.0  0.47980  0.37080  0.09468  1.0000
  C   C24       1.0  0.52020  0.62920  0.09468  1.0000
  C   C25       1.0  0.12920  0.52020  0.84468  1.0000
  C   C26       1.0  0.87080  0.47980  0.84468  1.0000
  C   C27       1.0  0.52020  0.87080  0.15532  1.0000
  C   C28       1.0  0.47980  0.12920  0.15532  1.0000
  C   C29       1.0  0.37080  0.52020  0.90532  1.0000
  C   C30       1.0  0.62920  0.47980  0.90532  1.0000
  C   C31       1.0  0.97980  0.87080  0.59468  1.0000
  C   C32       1.0  0.02020  0.12920  0.59468  1.0000
  C   C33       1.0  0.57810  0.01490  0.32648  1.0000
  C   C34       1.0  0.42190  0.98510  0.32648  1.0000
  C   C35       1.0  0.01490  0.42190  0.67352  1.0000
  C   C36       1.0  0.98510  0.57810  0.67352  1.0000
  C   C37       1.0  0.92190  0.01490  0.42352  1.0000
  C   C38       1.0  0.07810  0.98510  0.42352  1.0000
  C   C39       1.0  0.48510  0.42190  0.07648  1.0000
  C   C40       1.0  0.51490  0.57810  0.07648  1.0000
  C   C41       1.0  0.07810  0.51490  0.82648  1.0000
  C   C42       1.0  0.92190  0.48510  0.82648  1.0000
  C   C43       1.0  0.51490  0.92190  0.17352  1.0000
  C   C44       1.0  0.48510  0.07810  0.17352  1.0000
  C   C45       1.0  0.42190  0.51490  0.92352  1.0000
  C   C46       1.0  0.57810  0.48510  0.92352  1.0000
  C   C47       1.0  0.98510  0.92190  0.57648  1.0000
  C   C48       1.0  0.01490  0.07810  0.57648  1.0000
  H   H1        1.0  0.54370  0.03720  0.33110  1.0000
  H   H2        1.0  0.45630  0.96280  0.33110  1.0000
  H   H3        1.0  0.03720  0.45630  0.66890  1.0000
  H   H4        1.0  0.96280  0.54370  0.66890  1.0000
  H   H5        1.0  0.95630  0.03720  0.41890  1.0000
  H   H6        1.0  0.04370  0.96280  0.41890  1.0000
  H   H7        1.0  0.46280  0.45630  0.08110  1.0000
  H   H8        1.0  0.53720  0.54370  0.08110  1.0000
  H   H9        1.0  0.04370  0.53720  0.83110  1.0000
  H   H10       1.0  0.95630  0.46280  0.83110  1.0000
  H   H11       1.0  0.53720  0.95630  0.16890  1.0000
  H   H12       1.0  0.46280  0.04370  0.16890  1.0000
  H   H13       1.0  0.45630  0.53720  0.91890  1.0000
  H   H14       1.0  0.54370  0.46280  0.91890  1.0000
  H   H15       1.0  0.96280  0.95630  0.58110  1.0000
  H   H16       1.0  0.03720  0.04370  0.58110  1.0000
  C   C49       1.0  0.57830  0.97630  0.30141  1.0000
  C   C50       1.0  0.42170  0.02370  0.30141  1.0000
  C   C51       1.0  0.97630  0.42170  0.69859  1.0000
  C   C52       1.0  0.02370  0.57830  0.69859  1.0000
  C   C53       1.0  0.92170  0.97630  0.44859  1.0000
  C   C54       1.0  0.07830  0.02370  0.44859  1.0000
  C   C55       1.0  0.52370  0.42170  0.05141  1.0000
  C   C56       1.0  0.47630  0.57830  0.05141  1.0000
  C   C57       1.0  0.07830  0.47630  0.80141  1.0000
  C   C58       1.0  0.92170  0.52370  0.80141  1.0000
  C   C59       1.0  0.47630  0.92170  0.19859  1.0000
  C   C60       1.0  0.52370  0.07830  0.19859  1.0000
  C   C61       1.0  0.42170  0.47630  0.94859  1.0000
  C   C62       1.0  0.57830  0.52370  0.94859  1.0000
  C   C63       1.0  0.02370  0.92170  0.55141  1.0000
  C   C64       1.0  0.97630  0.07830  0.55141  1.0000
  H   H17       1.0  0.54410  0.97270  0.28920  1.0000
  H   H18       1.0  0.45590  0.02730  0.28920  1.0000
  H   H19       1.0  0.97270  0.45590  0.71080  1.0000
  H   H20       1.0  0.02730  0.54410  0.71080  1.0000
  H   H21       1.0  0.95590  0.97270  0.46080  1.0000
  H   H22       1.0  0.04410  0.02730  0.46080  1.0000
  H   H23       1.0  0.52730  0.45590  0.03920  1.0000
  H   H24       1.0  0.47270  0.54410  0.03920  1.0000
  H   H25       1.0  0.04410  0.47270  0.78920  1.0000
  H   H26       1.0  0.95590  0.52730  0.78920  1.0000
  H   H27       1.0  0.47270  0.95590  0.21080  1.0000
  H   H28       1.0  0.52730  0.04410  0.21080  1.0000
  H   H29       1.0  0.45590  0.47270  0.96080  1.0000
  H   H30       1.0  0.54410  0.52730  0.96080  1.0000
  H   H31       1.0  0.02730  0.95590  0.53920  1.0000
  H   H32       1.0  0.97270  0.04410  0.53920  1.0000
  C   C65       1.0  0.62970  0.94300  0.29453  1.0000
  C   C66       1.0  0.37030  0.05700  0.29453  1.0000
  C   C67       1.0  0.94300  0.37030  0.70547  1.0000
  C   C68       1.0  0.05700  0.62970  0.70547  1.0000
  C   C69       1.0  0.87030  0.94300  0.45547  1.0000
  C   C70       1.0  0.12970  0.05700  0.45547  1.0000
  C   C71       1.0  0.55700  0.37030  0.04453  1.0000
  C   C72       1.0  0.44300  0.62970  0.04453  1.0000
  C   C73       1.0  0.12970  0.44300  0.79453  1.0000
  C   C74       1.0  0.87030  0.55700  0.79453  1.0000
  C   C75       1.0  0.44300  0.87030  0.20547  1.0000
  C   C76       1.0  0.55700  0.12970  0.20547  1.0000
  C   C77       1.0  0.37030  0.44300  0.95547  1.0000
  C   C78       1.0  0.62970  0.55700  0.95547  1.0000
  C   C79       1.0  0.05700  0.87030  0.54453  1.0000
  C   C80       1.0  0.94300  0.12970  0.54453  1.0000
  C   C81       1.0  0.68080  0.94840  0.31273  1.0000
  C   C82       1.0  0.31920  0.05160  0.31273  1.0000
  C   C83       1.0  0.94840  0.31920  0.68727  1.0000
  C   C84       1.0  0.05160  0.68080  0.68727  1.0000
  C   C85       1.0  0.81920  0.94840  0.43727  1.0000
  C   C86       1.0  0.18080  0.05160  0.43727  1.0000
  C   C87       1.0  0.55160  0.31920  0.06273  1.0000
  C   C88       1.0  0.44840  0.68080  0.06273  1.0000
  C   C89       1.0  0.18080  0.44840  0.81273  1.0000
  C   C90       1.0  0.81920  0.55160  0.81273  1.0000
  C   C91       1.0  0.44840  0.81920  0.18727  1.0000
  C   C92       1.0  0.55160  0.18080  0.18727  1.0000
  C   C93       1.0  0.31920  0.44840  0.93727  1.0000
  C   C94       1.0  0.68080  0.55160  0.93727  1.0000
  C   C95       1.0  0.05160  0.81920  0.56273  1.0000
  C   C96       1.0  0.94840  0.18080  0.56273  1.0000
  C   C97       1.0  0.68060  0.98700  0.33780  1.0000
  C   C98       1.0  0.31940  0.01300  0.33780  1.0000
  C   C99       1.0  0.98700  0.31940  0.66220  1.0000
  C   C100      1.0  0.01300  0.68060  0.66220  1.0000
  C   C101      1.0  0.81940  0.98700  0.41220  1.0000
  C   C102      1.0  0.18060  0.01300  0.41220  1.0000
  C   C103      1.0  0.51300  0.31940  0.08780  1.0000
  C   C104      1.0  0.48700  0.68060  0.08780  1.0000
  C   C105      1.0  0.18060  0.48700  0.83780  1.0000
  C   C106      1.0  0.81940  0.51300  0.83780  1.0000
  C   C107      1.0  0.48700  0.81940  0.16220  1.0000
  C   C108      1.0  0.51300  0.18060  0.16220  1.0000
  C   C109      1.0  0.31940  0.48700  0.91220  1.0000
  C   C110      1.0  0.68060  0.51300  0.91220  1.0000
  C   C111      1.0  0.01300  0.81940  0.58780  1.0000
  C   C112      1.0  0.98700  0.18060  0.58780  1.0000
  H   H33       1.0  0.71480  0.99050  0.35000  1.0000
  H   H34       1.0  0.28520  0.00950  0.35000  1.0000
  H   H35       1.0  0.99050  0.28520  0.65000  1.0000
  H   H36       1.0  0.00950  0.71480  0.65000  1.0000
  H   H37       1.0  0.78520  0.99050  0.40000  1.0000
  H   H38       1.0  0.21480  0.00950  0.40000  1.0000
  H   H39       1.0  0.50950  0.28520  0.10000  1.0000
  H   H40       1.0  0.49050  0.71480  0.10000  1.0000
  H   H41       1.0  0.21480  0.49050  0.85000  1.0000
  H   H42       1.0  0.78520  0.50950  0.85000  1.0000
  H   H43       1.0  0.49050  0.78520  0.15000  1.0000
  H   H44       1.0  0.50950  0.21480  0.15000  1.0000
  H   H45       1.0  0.28520  0.49050  0.90000  1.0000
  H   H46       1.0  0.71480  0.50950  0.90000  1.0000
  H   H47       1.0  0.00950  0.78520  0.60000  1.0000
  H   H48       1.0  0.99050  0.21480  0.60000  1.0000
  C   C113      1.0  0.62790  0.89750  0.26901  1.0000
  C   C114      1.0  0.37210  0.10250  0.26901  1.0000
  C   C115      1.0  0.89750  0.37210  0.73099  1.0000
  C   C116      1.0  0.10250  0.62790  0.73099  1.0000
  C   C117      1.0  0.87210  0.89750  0.48099  1.0000
  C   C118      1.0  0.12790  0.10250  0.48099  1.0000
  C   C119      1.0  0.60250  0.37210  0.01901  1.0000
  C   C120      1.0  0.39750  0.62790  0.01901  1.0000
  C   C121      1.0  0.12790  0.39750  0.76901  1.0000
  C   C122      1.0  0.87210  0.60250  0.76901  1.0000
  C   C123      1.0  0.39750  0.87210  0.23099  1.0000
  C   C124      1.0  0.60250  0.12790  0.23099  1.0000
  C   C125      1.0  0.37210  0.39750  0.98099  1.0000
  C   C126      1.0  0.62790  0.60250  0.98099  1.0000
  C   C127      1.0  0.10250  0.87210  0.51901  1.0000
  C   C128      1.0  0.89750  0.12790  0.51901  1.0000
  C   C129      1.0  0.60230  0.84150  0.27381  1.0000
  C   C130      1.0  0.39770  0.15850  0.27381  1.0000
  C   C131      1.0  0.84150  0.39770  0.72619  1.0000
  C   C132      1.0  0.15850  0.60230  0.72619  1.0000
  C   C133      1.0  0.89770  0.84150  0.47619  1.0000
  C   C134      1.0  0.10230  0.15850  0.47619  1.0000
  C   C135      1.0  0.65850  0.39770  0.02381  1.0000
  C   C136      1.0  0.34150  0.60230  0.02381  1.0000
  C   C137      1.0  0.10230  0.34150  0.77381  1.0000
  C   C138      1.0  0.89770  0.65850  0.77381  1.0000
  C   C139      1.0  0.34150  0.89770  0.22619  1.0000
  C   C140      1.0  0.65850  0.10230  0.22619  1.0000
  C   C141      1.0  0.39770  0.34150  0.97619  1.0000
  C   C142      1.0  0.60230  0.65850  0.97619  1.0000
  C   C143      1.0  0.15850  0.89770  0.52381  1.0000
  C   C144      1.0  0.84150  0.10230  0.52381  1.0000
  H   H49       1.0  0.58530  0.83170  0.29260  1.0000
  H   H50       1.0  0.41470  0.16830  0.29260  1.0000
  H   H51       1.0  0.83170  0.41470  0.70740  1.0000
  H   H52       1.0  0.16830  0.58530  0.70740  1.0000
  H   H53       1.0  0.91470  0.83170  0.45740  1.0000
  H   H54       1.0  0.08530  0.16830  0.45740  1.0000
  H   H55       1.0  0.66830  0.41470  0.04260  1.0000
  H   H56       1.0  0.33170  0.58530  0.04260  1.0000
  H   H57       1.0  0.08530  0.33170  0.79260  1.0000
  H   H58       1.0  0.91470  0.66830  0.79260  1.0000
  H   H59       1.0  0.33170  0.91470  0.20740  1.0000
  H   H60       1.0  0.66830  0.08530  0.20740  1.0000
  H   H61       1.0  0.41470  0.33170  0.95740  1.0000
  H   H62       1.0  0.58530  0.66830  0.95740  1.0000
  H   H63       1.0  0.16830  0.91470  0.54260  1.0000
  H   H64       1.0  0.83170  0.08530  0.54260  1.0000
  C   C145      1.0  0.60240  0.79960  0.24959  1.0000
  C   C146      1.0  0.39760  0.20040  0.24959  1.0000
  C   C147      1.0  0.79960  0.39760  0.75041  1.0000
  C   C148      1.0  0.20040  0.60240  0.75041  1.0000
  C   C149      1.0  0.89760  0.79960  0.50041  1.0000
  C   C150      1.0  0.10240  0.20040  0.50041  1.0000
  C   C151      1.0  0.70040  0.39760  0.99959  1.0000
  C   C152      1.0  0.29960  0.60240  0.99959  1.0000
  C   C153      1.0  0.10240  0.29960  0.74959  1.0000
  C   C154      1.0  0.89760  0.70040  0.74959  1.0000
  C   C155      1.0  0.29960  0.89760  0.25041  1.0000
  C   C156      1.0  0.70040  0.10240  0.25041  1.0000
  C   C157      1.0  0.39760  0.29960  0.00041  1.0000
  C   C158      1.0  0.60240  0.70040  0.00041  1.0000
  C   C159      1.0  0.20040  0.89760  0.49959  1.0000
  C   C160      1.0  0.79960  0.10240  0.49959  1.0000
  H   H65       1.0  0.58610  0.76150  0.25270  1.0000
  H   H66       1.0  0.41390  0.23850  0.25270  1.0000
  H   H67       1.0  0.76150  0.41390  0.74730  1.0000
  H   H68       1.0  0.23850  0.58610  0.74730  1.0000
  H   H69       1.0  0.91390  0.76150  0.49730  1.0000
  H   H70       1.0  0.08610  0.23850  0.49730  1.0000
  H   H71       1.0  0.73850  0.41390  0.00270  1.0000
  H   H72       1.0  0.26150  0.58610  0.00270  1.0000
  H   H73       1.0  0.08610  0.26150  0.75270  1.0000
  H   H74       1.0  0.91390  0.73850  0.75270  1.0000
  H   H75       1.0  0.26150  0.91390  0.24730  1.0000
  H   H76       1.0  0.73850  0.08610  0.24730  1.0000
  H   H77       1.0  0.41390  0.26150  0.99730  1.0000
  H   H78       1.0  0.58610  0.73850  0.99730  1.0000
  H   H79       1.0  0.23850  0.91390  0.50270  1.0000
  H   H80       1.0  0.76150  0.08610  0.50270  1.0000
  C   C161      1.0  0.62620  0.81400  0.22134  1.0000
  C   C162      1.0  0.37380  0.18600  0.22134  1.0000
  C   C163      1.0  0.81400  0.37380  0.77866  1.0000
  C   C164      1.0  0.18600  0.62620  0.77866  1.0000
  C   C165      1.0  0.87380  0.81400  0.52866  1.0000
  C   C166      1.0  0.12620  0.18600  0.52866  1.0000
  C   C167      1.0  0.68600  0.37380  0.97134  1.0000
  C   C168      1.0  0.31400  0.62620  0.97134  1.0000
  C   C169      1.0  0.12620  0.31400  0.72134  1.0000
  C   C170      1.0  0.87380  0.68600  0.72134  1.0000
  C   C171      1.0  0.31400  0.87380  0.27866  1.0000
  C   C172      1.0  0.68600  0.12620  0.27866  1.0000
  C   C173      1.0  0.37380  0.31400  0.02866  1.0000
  C   C174      1.0  0.62620  0.68600  0.02866  1.0000
  C   C175      1.0  0.18600  0.87380  0.47134  1.0000
  C   C176      1.0  0.81400  0.12620  0.47134  1.0000
  C   C177      1.0  0.65190  0.86910  0.21736  1.0000
  C   C178      1.0  0.34810  0.13090  0.21736  1.0000
  C   C179      1.0  0.86910  0.34810  0.78264  1.0000
  C   C180      1.0  0.13090  0.65190  0.78264  1.0000
  C   C181      1.0  0.84810  0.86910  0.53264  1.0000
  C   C182      1.0  0.15190  0.13090  0.53264  1.0000
  C   C183      1.0  0.63090  0.34810  0.96736  1.0000
  C   C184      1.0  0.36910  0.65190  0.96736  1.0000
  C   C185      1.0  0.15190  0.36910  0.71736  1.0000
  C   C186      1.0  0.84810  0.63090  0.71736  1.0000
  C   C187      1.0  0.36910  0.84810  0.28264  1.0000
  C   C188      1.0  0.63090  0.15190  0.28264  1.0000
  C   C189      1.0  0.34810  0.36910  0.03264  1.0000
  C   C190      1.0  0.65190  0.63090  0.03264  1.0000
  C   C191      1.0  0.13090  0.84810  0.46736  1.0000
  C   C192      1.0  0.86910  0.15190  0.46736  1.0000
  H   H81       1.0  0.66860  0.87860  0.19840  1.0000
  H   H82       1.0  0.33140  0.12140  0.19840  1.0000
  H   H83       1.0  0.87860  0.33140  0.80160  1.0000
  H   H84       1.0  0.12140  0.66860  0.80160  1.0000
  H   H85       1.0  0.83140  0.87860  0.55160  1.0000
  H   H86       1.0  0.16860  0.12140  0.55160  1.0000
  H   H87       1.0  0.62140  0.33140  0.94840  1.0000
  H   H88       1.0  0.37860  0.66860  0.94840  1.0000
  H   H89       1.0  0.16860  0.37860  0.69840  1.0000
  H   H90       1.0  0.83140  0.62140  0.69840  1.0000
  H   H91       1.0  0.37860  0.83140  0.30160  1.0000
  H   H92       1.0  0.62140  0.16860  0.30160  1.0000
  H   H93       1.0  0.33140  0.37860  0.05160  1.0000
  H   H94       1.0  0.66860  0.62140  0.05160  1.0000
  H   H95       1.0  0.12140  0.83140  0.44840  1.0000
  H   H96       1.0  0.87860  0.16860  0.44840  1.0000
  C   C193      1.0  0.65420  0.91190  0.24079  1.0000
  C   C194      1.0  0.34580  0.08810  0.24079  1.0000
  C   C195      1.0  0.91190  0.34580  0.75921  1.0000
  C   C196      1.0  0.08810  0.65420  0.75921  1.0000
  C   C197      1.0  0.84580  0.91190  0.50921  1.0000
  C   C198      1.0  0.15420  0.08810  0.50921  1.0000
  C   C199      1.0  0.58810  0.34580  0.99079  1.0000
  C   C200      1.0  0.41190  0.65420  0.99079  1.0000
  C   C201      1.0  0.15420  0.41190  0.74079  1.0000
  C   C202      1.0  0.84580  0.58810  0.74079  1.0000
  C   C203      1.0  0.41190  0.84580  0.25921  1.0000
  C   C204      1.0  0.58810  0.15420  0.25921  1.0000
  C   C205      1.0  0.34580  0.41190  0.00921  1.0000
  C   C206      1.0  0.65420  0.58810  0.00921  1.0000
  C   C207      1.0  0.08810  0.84580  0.49079  1.0000
  C   C208      1.0  0.91190  0.15420  0.49079  1.0000
  C   C209      1.0  0.63080  0.76870  0.19642  1.0000
  C   C210      1.0  0.36920  0.23130  0.19642  1.0000
  C   C211      1.0  0.76870  0.36920  0.80358  1.0000
  C   C212      1.0  0.23130  0.63080  0.80358  1.0000
  C   C213      1.0  0.86920  0.76870  0.55358  1.0000
  C   C214      1.0  0.13080  0.23130  0.55358  1.0000
  C   C215      1.0  0.73130  0.36920  0.94642  1.0000
  C   C216      1.0  0.26870  0.63080  0.94642  1.0000
  C   C217      1.0  0.13080  0.26870  0.69642  1.0000
  C   C218      1.0  0.86920  0.73130  0.69642  1.0000
  C   C219      1.0  0.26870  0.86920  0.30358  1.0000
  C   C220      1.0  0.73130  0.13080  0.30358  1.0000
  C   C221      1.0  0.36920  0.26870  0.05358  1.0000
  C   C222      1.0  0.63080  0.73130  0.05358  1.0000
  C   C223      1.0  0.23130  0.86920  0.44642  1.0000
  C   C224      1.0  0.76870  0.13080  0.44642  1.0000
  C   C225      1.0  0.79430  0.94720  0.31011  1.0000
  C   C226      1.0  0.20570  0.05280  0.31011  1.0000
  C   C227      1.0  0.94720  0.20570  0.68989  1.0000
  C   C228      1.0  0.05280  0.79430  0.68989  1.0000
  C   C229      1.0  0.70570  0.94720  0.43989  1.0000
  C   C230      1.0  0.29430  0.05280  0.43989  1.0000
  C   C231      1.0  0.55280  0.20570  0.06011  1.0000
  C   C232      1.0  0.44720  0.79430  0.06011  1.0000
  C   C233      1.0  0.29430  0.44720  0.81011  1.0000
  C   C234      1.0  0.70570  0.55280  0.81011  1.0000
  C   C235      1.0  0.44720  0.70570  0.18989  1.0000
  C   C236      1.0  0.55280  0.29430  0.18989  1.0000
  C   C237      1.0  0.20570  0.44720  0.93989  1.0000
  C   C238      1.0  0.79430  0.55280  0.93989  1.0000
  C   C239      1.0  0.05280  0.70570  0.56011  1.0000
  C   C240      1.0  0.94720  0.29430  0.56011  1.0000
  H   H97       1.0  0.82200  0.94510  0.29320  1.0000
  H   H98       1.0  0.17800  0.05490  0.29320  1.0000
  H   H99       1.0  0.94510  0.17800  0.70680  1.0000
  H   H100      1.0  0.05490  0.82200  0.70680  1.0000
  H   H101      1.0  0.67800  0.94510  0.45680  1.0000
  H   H102      1.0  0.32200  0.05490  0.45680  1.0000
  H   H103      1.0  0.55490  0.17800  0.04320  1.0000
  H   H104      1.0  0.44510  0.82200  0.04320  1.0000
  H   H105      1.0  0.32200  0.44510  0.79320  1.0000
  H   H106      1.0  0.67800  0.55490  0.79320  1.0000
  H   H107      1.0  0.44510  0.67800  0.20680  1.0000
  H   H108      1.0  0.55490  0.32200  0.20680  1.0000
  H   H109      1.0  0.17800  0.44510  0.95680  1.0000
  H   H110      1.0  0.82200  0.55490  0.95680  1.0000
  H   H111      1.0  0.05490  0.67800  0.54320  1.0000
  H   H112      1.0  0.94510  0.32200  0.54320  1.0000
  H   H113      1.0  0.80990  0.92450  0.32700  1.0000
  H   H114      1.0  0.19010  0.07550  0.32700  1.0000
  H   H115      1.0  0.92450  0.19010  0.67300  1.0000
  H   H116      1.0  0.07550  0.80990  0.67300  1.0000
  H   H117      1.0  0.69010  0.92450  0.42300  1.0000
  H   H118      1.0  0.30990  0.07550  0.42300  1.0000
  H   H119      1.0  0.57550  0.19010  0.07700  1.0000
  H   H120      1.0  0.42450  0.80990  0.07700  1.0000
  H   H121      1.0  0.30990  0.42450  0.82700  1.0000
  H   H122      1.0  0.69010  0.57550  0.82700  1.0000
  H   H123      1.0  0.42450  0.69010  0.17300  1.0000
  H   H124      1.0  0.57550  0.30990  0.17300  1.0000
  H   H125      1.0  0.19010  0.42450  0.92300  1.0000
  H   H126      1.0  0.80990  0.57550  0.92300  1.0000
  H   H127      1.0  0.07550  0.69010  0.57700  1.0000
  H   H128      1.0  0.92450  0.30990  0.57700  1.0000
  H   H129      1.0  0.78930  0.98860  0.31610  1.0000
  H   H130      1.0  0.21070  0.01140  0.31610  1.0000
  H   H131      1.0  0.98860  0.21070  0.68390  1.0000
  H   H132      1.0  0.01140  0.78930  0.68390  1.0000
  H   H133      1.0  0.71070  0.98860  0.43390  1.0000
  H   H134      1.0  0.28930  0.01140  0.43390  1.0000
  H   H135      1.0  0.51140  0.21070  0.06610  1.0000
  H   H136      1.0  0.48860  0.78930  0.06610  1.0000
  H   H137      1.0  0.28930  0.48860  0.81610  1.0000
  H   H138      1.0  0.71070  0.51140  0.81610  1.0000
  H   H139      1.0  0.48860  0.71070  0.18390  1.0000
  H   H140      1.0  0.51140  0.28930  0.18390  1.0000
  H   H141      1.0  0.21070  0.48860  0.93390  1.0000
  H   H142      1.0  0.78930  0.51140  0.93390  1.0000
  H   H143      1.0  0.01140  0.71070  0.56610  1.0000
  H   H144      1.0  0.98860  0.28930  0.56610  1.0000
  C   C241      1.0  0.72560  0.96440  0.20890  1.0000
  C   C242      1.0  0.27440  0.03560  0.20890  1.0000
  C   C243      1.0  0.96440  0.27440  0.79110  1.0000
  C   C244      1.0  0.03560  0.72560  0.79110  1.0000
  C   C245      1.0  0.77440  0.96440  0.54110  1.0000
  C   C246      1.0  0.22560  0.03560  0.54110  1.0000
  C   C247      1.0  0.53560  0.27440  0.95890  1.0000
  C   C248      1.0  0.46440  0.72560  0.95890  1.0000
  C   C249      1.0  0.22560  0.46440  0.70890  1.0000
  C   C250      1.0  0.77440  0.53560  0.70890  1.0000
  C   C251      1.0  0.46440  0.77440  0.29110  1.0000
  C   C252      1.0  0.53560  0.22560  0.29110  1.0000
  C   C253      1.0  0.27440  0.46440  0.04110  1.0000
  C   C254      1.0  0.72560  0.53560  0.04110  1.0000
  C   C255      1.0  0.03560  0.77440  0.45890  1.0000
  C   C256      1.0  0.96440  0.22560  0.45890  1.0000
  H   H145      1.0  0.70320  0.96060  0.19020  1.0000
  H   H146      1.0  0.29680  0.03940  0.19020  1.0000
  H   H147      1.0  0.96060  0.29680  0.80980  1.0000
  H   H148      1.0  0.03940  0.70320  0.80980  1.0000
  H   H149      1.0  0.79680  0.96060  0.55980  1.0000
  H   H150      1.0  0.20320  0.03940  0.55980  1.0000
  H   H151      1.0  0.53940  0.29680  0.94020  1.0000
  H   H152      1.0  0.46060  0.70320  0.94020  1.0000
  H   H153      1.0  0.20320  0.46060  0.69020  1.0000
  H   H154      1.0  0.79680  0.53940  0.69020  1.0000
  H   H155      1.0  0.46060  0.79680  0.30980  1.0000
  H   H156      1.0  0.53940  0.20320  0.30980  1.0000
  H   H157      1.0  0.29680  0.46060  0.05980  1.0000
  H   H158      1.0  0.70320  0.53940  0.05980  1.0000
  H   H159      1.0  0.03940  0.79680  0.44020  1.0000
  H   H160      1.0  0.96060  0.20320  0.44020  1.0000
  H   H161      1.0  0.75340  0.93140  0.21070  1.0000
  H   H162      1.0  0.24660  0.06860  0.21070  1.0000
  H   H163      1.0  0.93140  0.24660  0.78930  1.0000
  H   H164      1.0  0.06860  0.75340  0.78930  1.0000
  H   H165      1.0  0.74660  0.93140  0.53930  1.0000
  H   H166      1.0  0.25340  0.06860  0.53930  1.0000
  H   H167      1.0  0.56860  0.24660  0.96070  1.0000
  H   H168      1.0  0.43140  0.75340  0.96070  1.0000
  H   H169      1.0  0.25340  0.43140  0.71070  1.0000
  H   H170      1.0  0.74660  0.56860  0.71070  1.0000
  H   H171      1.0  0.43140  0.74660  0.28930  1.0000
  H   H172      1.0  0.56860  0.25340  0.28930  1.0000
  H   H173      1.0  0.24660  0.43140  0.03930  1.0000
  H   H174      1.0  0.75340  0.56860  0.03930  1.0000
  H   H175      1.0  0.06860  0.74660  0.46070  1.0000
  H   H176      1.0  0.93140  0.25340  0.46070  1.0000
  H   H177      1.0  0.74750  0.00180  0.20870  1.0000
  H   H178      1.0  0.25250  0.99820  0.20870  1.0000
  H   H179      1.0  0.00180  0.25250  0.79130  1.0000
  H   H180      1.0  0.99820  0.74750  0.79130  1.0000
  H   H181      1.0  0.75250  0.00180  0.54130  1.0000
  H   H182      1.0  0.24750  0.99820  0.54130  1.0000
  H   H183      1.0  0.49820  0.25250  0.95870  1.0000
  H   H184      1.0  0.50180  0.74750  0.95870  1.0000
  H   H185      1.0  0.24750  0.50180  0.70870  1.0000
  H   H186      1.0  0.75250  0.49820  0.70870  1.0000
  H   H187      1.0  0.50180  0.75250  0.29130  1.0000
  H   H188      1.0  0.49820  0.24750  0.29130  1.0000
  H   H189      1.0  0.25250  0.50180  0.04130  1.0000
  H   H190      1.0  0.74750  0.49820  0.04130  1.0000
  H   H191      1.0  0.99820  0.75250  0.45870  1.0000
  H   H192      1.0  0.00180  0.24750  0.45870  1.0000
  C   C257      1.0  0.86870  0.22800  0.36430  1.0000
  C   C258      1.0  0.13130  0.77200  0.36430  1.0000
  C   C259      1.0  0.22800  0.13130  0.63570  1.0000
  C   C260      1.0  0.77200  0.86870  0.63570  1.0000
  C   C261      1.0  0.63130  0.22800  0.38570  1.0000
  C   C262      1.0  0.36870  0.77200  0.38570  1.0000
  C   C263      1.0  0.27200  0.13130  0.11430  1.0000
  C   C264      1.0  0.72800  0.86870  0.11430  1.0000
  C   C265      1.0  0.36870  0.72800  0.86430  1.0000
  C   C266      1.0  0.63130  0.27200  0.86430  1.0000
  C   C267      1.0  0.72800  0.63130  0.13570  1.0000
  C   C268      1.0  0.27200  0.36870  0.13570  1.0000
  C   C269      1.0  0.13130  0.72800  0.88570  1.0000
  C   C270      1.0  0.86870  0.27200  0.88570  1.0000
  C   C271      1.0  0.77200  0.63130  0.61430  1.0000
  C   C272      1.0  0.22800  0.36870  0.61430  1.0000
  C   C273      1.0  0.87320  0.27460  0.38921  1.0000
  C   C274      1.0  0.12680  0.72540  0.38921  1.0000
  C   C275      1.0  0.27460  0.12680  0.61079  1.0000
  C   C276      1.0  0.72540  0.87320  0.61079  1.0000
  C   C277      1.0  0.62680  0.27460  0.36079  1.0000
  C   C278      1.0  0.37320  0.72540  0.36079  1.0000
  C   C279      1.0  0.22540  0.12680  0.13921  1.0000
  C   C280      1.0  0.77460  0.87320  0.13921  1.0000
  C   C281      1.0  0.37320  0.77460  0.88921  1.0000
  C   C282      1.0  0.62680  0.22540  0.88921  1.0000
  C   C283      1.0  0.77460  0.62680  0.11079  1.0000
  C   C284      1.0  0.22540  0.37320  0.11079  1.0000
  C   C285      1.0  0.12680  0.77460  0.86079  1.0000
  C   C286      1.0  0.87320  0.22540  0.86079  1.0000
  C   C287      1.0  0.72540  0.62680  0.63921  1.0000
  C   C288      1.0  0.27460  0.37320  0.63921  1.0000
  C   C289      1.0  0.81870  0.28360  0.40709  1.0000
  C   C290      1.0  0.18130  0.71640  0.40709  1.0000
  C   C291      1.0  0.28360  0.18130  0.59291  1.0000
  C   C292      1.0  0.71640  0.81870  0.59291  1.0000
  C   C293      1.0  0.68130  0.28360  0.34291  1.0000
  C   C294      1.0  0.31870  0.71640  0.34291  1.0000
  C   C295      1.0  0.21640  0.18130  0.15709  1.0000
  C   C296      1.0  0.78360  0.81870  0.15709  1.0000
  C   C297      1.0  0.31870  0.78360  0.90709  1.0000
  C   C298      1.0  0.68130  0.21640  0.90709  1.0000
  C   C299      1.0  0.78360  0.68130  0.09291  1.0000
  C   C300      1.0  0.21640  0.31870  0.09291  1.0000
  C   C301      1.0  0.18130  0.78360  0.84291  1.0000
  C   C302      1.0  0.81870  0.21640  0.84291  1.0000
  C   C303      1.0  0.71640  0.68130  0.65709  1.0000
  C   C304      1.0  0.28360  0.31870  0.65709  1.0000
  H   H193      1.0  0.78290  0.26320  0.40300  1.0000
  H   H194      1.0  0.21710  0.73680  0.40300  1.0000
  H   H195      1.0  0.26320  0.21710  0.59700  1.0000
  H   H196      1.0  0.73680  0.78290  0.59700  1.0000
  H   H197      1.0  0.71710  0.26320  0.34700  1.0000
  H   H198      1.0  0.28290  0.73680  0.34700  1.0000
  H   H199      1.0  0.23680  0.21710  0.15300  1.0000
  H   H200      1.0  0.76320  0.78290  0.15300  1.0000
  H   H201      1.0  0.28290  0.76320  0.90300  1.0000
  H   H202      1.0  0.71710  0.23680  0.90300  1.0000
  H   H203      1.0  0.76320  0.71710  0.09700  1.0000
  H   H204      1.0  0.23680  0.28290  0.09700  1.0000
  H   H205      1.0  0.21710  0.76320  0.84700  1.0000
  H   H206      1.0  0.78290  0.23680  0.84700  1.0000
  H   H207      1.0  0.73680  0.71710  0.65300  1.0000
  H   H208      1.0  0.26320  0.28290  0.65300  1.0000
  C   C305      1.0  0.82400  0.32490  0.43058  1.0000
  C   C306      1.0  0.17600  0.67510  0.43058  1.0000
  C   C307      1.0  0.32490  0.17600  0.56942  1.0000
  C   C308      1.0  0.67510  0.82400  0.56942  1.0000
  C   C309      1.0  0.67600  0.32490  0.31942  1.0000
  C   C310      1.0  0.32400  0.67510  0.31942  1.0000
  C   C311      1.0  0.17510  0.17600  0.18058  1.0000
  C   C312      1.0  0.82490  0.82400  0.18058  1.0000
  C   C313      1.0  0.32400  0.82490  0.93058  1.0000
  C   C314      1.0  0.67600  0.17510  0.93058  1.0000
  C   C315      1.0  0.82490  0.67600  0.06942  1.0000
  C   C316      1.0  0.17510  0.32400  0.06942  1.0000
  C   C317      1.0  0.17600  0.82490  0.81942  1.0000
  C   C318      1.0  0.82400  0.17510  0.81942  1.0000
  C   C319      1.0  0.67510  0.67600  0.68058  1.0000
  C   C320      1.0  0.32490  0.32400  0.68058  1.0000
  C   C321      1.0  0.86980  0.36100  0.43595  1.0000
  C   C322      1.0  0.13020  0.63900  0.43595  1.0000
  C   C323      1.0  0.36100  0.13020  0.56405  1.0000
  C   C324      1.0  0.63900  0.86980  0.56405  1.0000
  C   C325      1.0  0.63020  0.36100  0.31405  1.0000
  C   C326      1.0  0.36980  0.63900  0.31405  1.0000
  C   C327      1.0  0.13900  0.13020  0.18595  1.0000
  C   C328      1.0  0.86100  0.86980  0.18595  1.0000
  C   C329      1.0  0.36980  0.86100  0.93595  1.0000
  C   C330      1.0  0.63020  0.13900  0.93595  1.0000
  C   C331      1.0  0.86100  0.63020  0.06405  1.0000
  C   C332      1.0  0.13900  0.36980  0.06405  1.0000
  C   C333      1.0  0.13020  0.86100  0.81405  1.0000
  C   C334      1.0  0.86980  0.13900  0.81405  1.0000
  C   C335      1.0  0.63900  0.63020  0.68595  1.0000
  C   C336      1.0  0.36100  0.36980  0.68595  1.0000
  C   C337      1.0  0.92040  0.35450  0.41633  1.0000
  C   C338      1.0  0.07960  0.64550  0.41633  1.0000
  C   C339      1.0  0.35450  0.07960  0.58367  1.0000
  C   C340      1.0  0.64550  0.92040  0.58367  1.0000
  C   C341      1.0  0.57960  0.35450  0.33367  1.0000
  C   C342      1.0  0.42040  0.64550  0.33367  1.0000
  C   C343      1.0  0.14550  0.07960  0.16633  1.0000
  C   C344      1.0  0.85450  0.92040  0.16633  1.0000
  C   C345      1.0  0.42040  0.85450  0.91633  1.0000
  C   C346      1.0  0.57960  0.14550  0.91633  1.0000
  C   C347      1.0  0.85450  0.57960  0.08367  1.0000
  C   C348      1.0  0.14550  0.42040  0.08367  1.0000
  C   C349      1.0  0.07960  0.85450  0.83367  1.0000
  C   C350      1.0  0.92040  0.14550  0.83367  1.0000
  C   C351      1.0  0.64550  0.57960  0.66633  1.0000
  C   C352      1.0  0.35450  0.42040  0.66633  1.0000
  H   H209      1.0  0.95280  0.38080  0.41820  1.0000
  H   H210      1.0  0.04720  0.61920  0.41820  1.0000
  H   H211      1.0  0.38080  0.04720  0.58180  1.0000
  H   H212      1.0  0.61920  0.95280  0.58180  1.0000
  H   H213      1.0  0.54720  0.38080  0.33180  1.0000
  H   H214      1.0  0.45280  0.61920  0.33180  1.0000
  H   H215      1.0  0.11920  0.04720  0.16820  1.0000
  H   H216      1.0  0.88080  0.95280  0.16820  1.0000
  H   H217      1.0  0.45280  0.88080  0.91820  1.0000
  H   H218      1.0  0.54720  0.11920  0.91820  1.0000
  H   H219      1.0  0.88080  0.54720  0.08180  1.0000
  H   H220      1.0  0.11920  0.45280  0.08180  1.0000
  H   H221      1.0  0.04720  0.88080  0.83180  1.0000
  H   H222      1.0  0.95280  0.11920  0.83180  1.0000
  H   H223      1.0  0.61920  0.54720  0.66820  1.0000
  H   H224      1.0  0.38080  0.45280  0.66820  1.0000
  C   C353      1.0  0.92200  0.30750  0.39336  1.0000
  C   C354      1.0  0.07800  0.69250  0.39336  1.0000
  C   C355      1.0  0.30750  0.07800  0.60664  1.0000
  C   C356      1.0  0.69250  0.92200  0.60664  1.0000
  C   C357      1.0  0.57800  0.30750  0.35664  1.0000
  C   C358      1.0  0.42200  0.69250  0.35664  1.0000
  C   C359      1.0  0.19250  0.07800  0.14336  1.0000
  C   C360      1.0  0.80750  0.92200  0.14336  1.0000
  C   C361      1.0  0.42200  0.80750  0.89336  1.0000
  C   C362      1.0  0.57800  0.19250  0.89336  1.0000
  C   C363      1.0  0.80750  0.57800  0.10664  1.0000
  C   C364      1.0  0.19250  0.42200  0.10664  1.0000
  C   C365      1.0  0.07800  0.80750  0.85664  1.0000
  C   C366      1.0  0.92200  0.19250  0.85664  1.0000
  C   C367      1.0  0.69250  0.57800  0.64336  1.0000
  C   C368      1.0  0.30750  0.42200  0.64336  1.0000
  H   H225      1.0  0.95660  0.30070  0.38180  1.0000
  H   H226      1.0  0.04340  0.69930  0.38180  1.0000
  H   H227      1.0  0.30070  0.04340  0.61820  1.0000
  H   H228      1.0  0.69930  0.95660  0.61820  1.0000
  H   H229      1.0  0.54340  0.30070  0.36820  1.0000
  H   H230      1.0  0.45660  0.69930  0.36820  1.0000
  H   H231      1.0  0.19930  0.04340  0.13180  1.0000
  H   H232      1.0  0.80070  0.95660  0.13180  1.0000
  H   H233      1.0  0.45660  0.80070  0.88180  1.0000
  H   H234      1.0  0.54340  0.19930  0.88180  1.0000
  H   H235      1.0  0.80070  0.54340  0.11820  1.0000
  H   H236      1.0  0.19930  0.45660  0.11820  1.0000
  H   H237      1.0  0.04340  0.80070  0.86820  1.0000
  H   H238      1.0  0.95660  0.19930  0.86820  1.0000
  H   H239      1.0  0.69930  0.54340  0.63180  1.0000
  H   H240      1.0  0.30070  0.45660  0.63180  1.0000
  C   C369      1.0  0.87030  0.40960  0.45976  1.0000
  C   C370      1.0  0.12970  0.59040  0.45976  1.0000
  C   C371      1.0  0.40960  0.12970  0.54024  1.0000
  C   C372      1.0  0.59040  0.87030  0.54024  1.0000
  C   C373      1.0  0.62970  0.40960  0.29024  1.0000
  C   C374      1.0  0.37030  0.59040  0.29024  1.0000
  C   C375      1.0  0.09040  0.12970  0.20976  1.0000
  C   C376      1.0  0.90960  0.87030  0.20976  1.0000
  C   C377      1.0  0.37030  0.90960  0.95976  1.0000
  C   C378      1.0  0.62970  0.09040  0.95976  1.0000
  C   C379      1.0  0.90960  0.62970  0.04024  1.0000
  C   C380      1.0  0.09040  0.37030  0.04024  1.0000
  C   C381      1.0  0.12970  0.90960  0.79024  1.0000
  C   C382      1.0  0.87030  0.09040  0.79024  1.0000
  C   C383      1.0  0.59040  0.62970  0.70976  1.0000
  C   C384      1.0  0.40960  0.37030  0.70976  1.0000
  C   C385      1.0  0.82710  0.45470  0.45976  1.0000
  C   C386      1.0  0.17290  0.54530  0.45976  1.0000
  C   C387      1.0  0.45470  0.17290  0.54024  1.0000
  C   C388      1.0  0.54530  0.82710  0.54024  1.0000
  C   C389      1.0  0.67290  0.45470  0.29024  1.0000
  C   C390      1.0  0.32710  0.54530  0.29024  1.0000
  C   C391      1.0  0.04530  0.17290  0.20976  1.0000
  C   C392      1.0  0.95470  0.82710  0.20976  1.0000
  C   C393      1.0  0.32710  0.95470  0.95976  1.0000
  C   C394      1.0  0.67290  0.04530  0.95976  1.0000
  C   C395      1.0  0.95470  0.67290  0.04024  1.0000
  C   C396      1.0  0.04530  0.32710  0.04024  1.0000
  C   C397      1.0  0.17290  0.95470  0.79024  1.0000
  C   C398      1.0  0.82710  0.04530  0.79024  1.0000
  C   C399      1.0  0.54530  0.67290  0.70976  1.0000
  C   C400      1.0  0.45470  0.32710  0.70976  1.0000
  H   H241      1.0  0.79850  0.45460  0.44420  1.0000
  H   H242      1.0  0.20150  0.54540  0.44420  1.0000
  H   H243      1.0  0.45460  0.20150  0.55580  1.0000
  H   H244      1.0  0.54540  0.79850  0.55580  1.0000
  H   H245      1.0  0.70150  0.45460  0.30580  1.0000
  H   H246      1.0  0.29850  0.54540  0.30580  1.0000
  H   H247      1.0  0.04540  0.20150  0.19420  1.0000
  H   H248      1.0  0.95460  0.79850  0.19420  1.0000
  H   H249      1.0  0.29850  0.95460  0.94420  1.0000
  H   H250      1.0  0.70150  0.04540  0.94420  1.0000
  H   H251      1.0  0.95460  0.70150  0.05580  1.0000
  H   H252      1.0  0.04540  0.29850  0.05580  1.0000
  H   H253      1.0  0.20150  0.95460  0.80580  1.0000
  H   H254      1.0  0.79850  0.04540  0.80580  1.0000
  H   H255      1.0  0.54540  0.70150  0.69420  1.0000
  H   H256      1.0  0.45460  0.29850  0.69420  1.0000
  C   C401      1.0  0.82380  0.50040  0.48190  1.0000
  C   C402      1.0  0.17620  0.49960  0.48190  1.0000
  C   C403      1.0  0.50040  0.17620  0.51810  1.0000
  C   C404      1.0  0.49960  0.82380  0.51810  1.0000
  C   C405      1.0  0.67620  0.50040  0.26810  1.0000
  C   C406      1.0  0.32380  0.49960  0.26810  1.0000
  C   C407      1.0  0.99960  0.17620  0.23190  1.0000
  C   C408      1.0  0.00040  0.82380  0.23190  1.0000
  C   C409      1.0  0.32380  0.00040  0.98190  1.0000
  C   C410      1.0  0.67620  0.99960  0.98190  1.0000
  C   C411      1.0  0.00040  0.67620  0.01810  1.0000
  C   C412      1.0  0.99960  0.32380  0.01810  1.0000
  C   C413      1.0  0.17620  0.00040  0.76810  1.0000
  C   C414      1.0  0.82380  0.99960  0.76810  1.0000
  C   C415      1.0  0.49960  0.67620  0.73190  1.0000
  C   C416      1.0  0.50040  0.32380  0.73190  1.0000
  H   H257      1.0  0.79280  0.52860  0.48190  1.0000
  H   H258      1.0  0.20720  0.47140  0.48190  1.0000
  H   H259      1.0  0.52860  0.20720  0.51810  1.0000
  H   H260      1.0  0.47140  0.79280  0.51810  1.0000
  H   H261      1.0  0.70720  0.52860  0.26810  1.0000
  H   H262      1.0  0.29280  0.47140  0.26810  1.0000
  H   H263      1.0  0.97140  0.20720  0.23190  1.0000
  H   H264      1.0  0.02860  0.79280  0.23190  1.0000
  H   H265      1.0  0.29280  0.02860  0.98190  1.0000
  H   H266      1.0  0.70720  0.97140  0.98190  1.0000
  H   H267      1.0  0.02860  0.70720  0.01810  1.0000
  H   H268      1.0  0.97140  0.29280  0.01810  1.0000
  H   H269      1.0  0.20720  0.02860  0.76810  1.0000
  H   H270      1.0  0.79280  0.97140  0.76810  1.0000
  H   H271      1.0  0.47140  0.70720  0.73190  1.0000
  H   H272      1.0  0.52860  0.29280  0.73190  1.0000
  C   C417      1.0  0.86940  0.50160  0.50399  1.0000
  C   C418      1.0  0.13060  0.49840  0.50399  1.0000
  C   C419      1.0  0.50160  0.13060  0.49601  1.0000
  C   C420      1.0  0.49840  0.86940  0.49601  1.0000
  C   C421      1.0  0.63060  0.50160  0.24601  1.0000
  C   C422      1.0  0.36940  0.49840  0.24601  1.0000
  C   C423      1.0  0.99840  0.13060  0.25399  1.0000
  C   C424      1.0  0.00160  0.86940  0.25399  1.0000
  C   C425      1.0  0.36940  0.00160  0.00399  1.0000
  C   C426      1.0  0.63060  0.99840  0.00399  1.0000
  C   C427      1.0  0.00160  0.63060  0.99601  1.0000
  C   C428      1.0  0.99840  0.36940  0.99601  1.0000
  C   C429      1.0  0.13060  0.00160  0.74601  1.0000
  C   C430      1.0  0.86940  0.99840  0.74601  1.0000
  C   C431      1.0  0.49840  0.63060  0.75399  1.0000
  C   C432      1.0  0.50160  0.36940  0.75399  1.0000
  C   C433      1.0  0.91470  0.45680  0.50424  1.0000
  C   C434      1.0  0.08530  0.54320  0.50424  1.0000
  C   C435      1.0  0.45680  0.08530  0.49576  1.0000
  C   C436      1.0  0.54320  0.91470  0.49576  1.0000
  C   C437      1.0  0.58530  0.45680  0.24576  1.0000
  C   C438      1.0  0.41470  0.54320  0.24576  1.0000
  C   C439      1.0  0.04320  0.08530  0.25424  1.0000
  C   C440      1.0  0.95680  0.91470  0.25424  1.0000
  C   C441      1.0  0.41470  0.95680  0.00424  1.0000
  C   C442      1.0  0.58530  0.04320  0.00424  1.0000
  C   C443      1.0  0.95680  0.58530  0.99576  1.0000
  C   C444      1.0  0.04320  0.41470  0.99576  1.0000
  C   C445      1.0  0.08530  0.95680  0.74576  1.0000
  C   C446      1.0  0.91470  0.04320  0.74576  1.0000
  C   C447      1.0  0.54320  0.58530  0.75424  1.0000
  C   C448      1.0  0.45680  0.41470  0.75424  1.0000
  H   H273      1.0  0.94460  0.45620  0.51920  1.0000
  H   H274      1.0  0.05540  0.54380  0.51920  1.0000
  H   H275      1.0  0.45620  0.05540  0.48080  1.0000
  H   H276      1.0  0.54380  0.94460  0.48080  1.0000
  H   H277      1.0  0.55540  0.45620  0.23080  1.0000
  H   H278      1.0  0.44460  0.54380  0.23080  1.0000
  H   H279      1.0  0.04380  0.05540  0.26920  1.0000
  H   H280      1.0  0.95620  0.94460  0.26920  1.0000
  H   H281      1.0  0.44460  0.95620  0.01920  1.0000
  H   H282      1.0  0.55540  0.04380  0.01920  1.0000
  H   H283      1.0  0.95620  0.55540  0.98080  1.0000
  H   H284      1.0  0.04380  0.44460  0.98080  1.0000
  H   H285      1.0  0.05540  0.95620  0.73080  1.0000
  H   H286      1.0  0.94460  0.04380  0.73080  1.0000
  H   H287      1.0  0.54380  0.55540  0.76920  1.0000
  H   H288      1.0  0.45620  0.44460  0.76920  1.0000
  C   C449      1.0  0.91270  0.41450  0.48179  1.0000
  C   C450      1.0  0.08730  0.58550  0.48179  1.0000
  C   C451      1.0  0.41450  0.08730  0.51821  1.0000
  C   C452      1.0  0.58550  0.91270  0.51821  1.0000
  C   C453      1.0  0.58730  0.41450  0.26821  1.0000
  C   C454      1.0  0.41270  0.58550  0.26821  1.0000
  C   C455      1.0  0.08550  0.08730  0.23179  1.0000
  C   C456      1.0  0.91450  0.91270  0.23179  1.0000
  C   C457      1.0  0.41270  0.91450  0.98179  1.0000
  C   C458      1.0  0.58730  0.08550  0.98179  1.0000
  C   C459      1.0  0.91450  0.58730  0.01821  1.0000
  C   C460      1.0  0.08550  0.41270  0.01821  1.0000
  C   C461      1.0  0.08730  0.91450  0.76821  1.0000
  C   C462      1.0  0.91270  0.08550  0.76821  1.0000
  C   C463      1.0  0.58550  0.58730  0.73179  1.0000
  C   C464      1.0  0.41450  0.41270  0.73179  1.0000
  C   C465      1.0  0.86900  0.54600  0.52893  1.0000
  C   C466      1.0  0.13100  0.45400  0.52893  1.0000
  C   C467      1.0  0.54600  0.13100  0.47107  1.0000
  C   C468      1.0  0.45400  0.86900  0.47107  1.0000
  C   C469      1.0  0.63100  0.54600  0.22107  1.0000
  C   C470      1.0  0.36900  0.45400  0.22107  1.0000
  C   C471      1.0  0.95400  0.13100  0.27893  1.0000
  C   C472      1.0  0.04600  0.86900  0.27893  1.0000
  C   C473      1.0  0.36900  0.04600  0.02893  1.0000
  C   C474      1.0  0.63100  0.95400  0.02893  1.0000
  C   C475      1.0  0.04600  0.63100  0.97107  1.0000
  C   C476      1.0  0.95400  0.36900  0.97107  1.0000
  C   C477      1.0  0.13100  0.04600  0.72107  1.0000
  C   C478      1.0  0.86900  0.95400  0.72107  1.0000
  C   C479      1.0  0.45400  0.63100  0.77893  1.0000
  C   C480      1.0  0.54600  0.36900  0.77893  1.0000
  C   C481      1.0  0.72050  0.30230  0.44528  1.0000
  C   C482      1.0  0.27950  0.69770  0.44528  1.0000
  C   C483      1.0  0.30230  0.27950  0.55472  1.0000
  C   C484      1.0  0.69770  0.72050  0.55472  1.0000
  C   C485      1.0  0.77950  0.30230  0.30472  1.0000
  C   C486      1.0  0.22050  0.69770  0.30472  1.0000
  C   C487      1.0  0.19770  0.27950  0.19528  1.0000
  C   C488      1.0  0.80230  0.72050  0.19528  1.0000
  C   C489      1.0  0.22050  0.80230  0.94528  1.0000
  C   C490      1.0  0.77950  0.19770  0.94528  1.0000
  C   C491      1.0  0.80230  0.77950  0.05472  1.0000
  C   C492      1.0  0.19770  0.22050  0.05472  1.0000
  C   C493      1.0  0.27950  0.80230  0.80472  1.0000
  C   C494      1.0  0.72050  0.19770  0.80472  1.0000
  C   C495      1.0  0.69770  0.77950  0.69528  1.0000
  C   C496      1.0  0.30230  0.22050  0.69528  1.0000
  H   H289      1.0  0.69930  0.31590  0.42740  1.0000
  H   H290      1.0  0.30070  0.68410  0.42740  1.0000
  H   H291      1.0  0.31590  0.30070  0.57260  1.0000
  H   H292      1.0  0.68410  0.69930  0.57260  1.0000
  H   H293      1.0  0.80070  0.31590  0.32260  1.0000
  H   H294      1.0  0.19930  0.68410  0.32260  1.0000
  H   H295      1.0  0.18410  0.30070  0.17740  1.0000
  H   H296      1.0  0.81590  0.69930  0.17740  1.0000
  H   H297      1.0  0.19930  0.81590  0.92740  1.0000
  H   H298      1.0  0.80070  0.18410  0.92740  1.0000
  H   H299      1.0  0.81590  0.80070  0.07260  1.0000
  H   H300      1.0  0.18410  0.19930  0.07260  1.0000
  H   H301      1.0  0.30070  0.81590  0.82260  1.0000
  H   H302      1.0  0.69930  0.18410  0.82260  1.0000
  H   H303      1.0  0.68410  0.80070  0.67740  1.0000
  H   H304      1.0  0.31590  0.19930  0.67740  1.0000
  H   H305      1.0  0.69480  0.30570  0.46290  1.0000
  H   H306      1.0  0.30520  0.69430  0.46290  1.0000
  H   H307      1.0  0.30570  0.30520  0.53710  1.0000
  H   H308      1.0  0.69430  0.69480  0.53710  1.0000
  H   H309      1.0  0.80520  0.30570  0.28710  1.0000
  H   H310      1.0  0.19480  0.69430  0.28710  1.0000
  H   H311      1.0  0.19430  0.30520  0.21290  1.0000
  H   H312      1.0  0.80570  0.69480  0.21290  1.0000
  H   H313      1.0  0.19480  0.80570  0.96290  1.0000
  H   H314      1.0  0.80520  0.19430  0.96290  1.0000
  H   H315      1.0  0.80570  0.80520  0.03710  1.0000
  H   H316      1.0  0.19430  0.19480  0.03710  1.0000
  H   H317      1.0  0.30520  0.80570  0.78710  1.0000
  H   H318      1.0  0.69480  0.19430  0.78710  1.0000
  H   H319      1.0  0.69430  0.80520  0.71290  1.0000
  H   H320      1.0  0.30570  0.19480  0.71290  1.0000
  H   H321      1.0  0.73230  0.26100  0.44260  1.0000
  H   H322      1.0  0.26770  0.73900  0.44260  1.0000
  H   H323      1.0  0.26100  0.26770  0.55740  1.0000
  H   H324      1.0  0.73900  0.73230  0.55740  1.0000
  H   H325      1.0  0.76770  0.26100  0.30740  1.0000
  H   H326      1.0  0.23230  0.73900  0.30740  1.0000
  H   H327      1.0  0.23900  0.26770  0.19260  1.0000
  H   H328      1.0  0.76100  0.73230  0.19260  1.0000
  H   H329      1.0  0.23230  0.76100  0.94260  1.0000
  H   H330      1.0  0.76770  0.23900  0.94260  1.0000
  H   H331      1.0  0.76100  0.76770  0.05740  1.0000
  H   H332      1.0  0.23900  0.23230  0.05740  1.0000
  H   H333      1.0  0.26770  0.76100  0.80740  1.0000
  H   H334      1.0  0.73230  0.23900  0.80740  1.0000
  H   H335      1.0  0.73900  0.76770  0.69260  1.0000
  H   H336      1.0  0.26100  0.23230  0.69260  1.0000
  C   C497      1.0  0.02040  0.37250  0.49741  1.0000
  C   C498      1.0  0.97960  0.62750  0.49741  1.0000
  C   C499      1.0  0.37250  0.97960  0.50259  1.0000
  C   C500      1.0  0.62750  0.02040  0.50259  1.0000
  C   C501      1.0  0.47960  0.37250  0.25259  1.0000
  C   C502      1.0  0.52040  0.62750  0.25259  1.0000
  C   C503      1.0  0.12750  0.97960  0.24741  1.0000
  C   C504      1.0  0.87250  0.02040  0.24741  1.0000
  C   C505      1.0  0.52040  0.87250  0.99741  1.0000
  C   C506      1.0  0.47960  0.12750  0.99741  1.0000
  C   C507      1.0  0.87250  0.47960  0.00259  1.0000
  C   C508      1.0  0.12750  0.52040  0.00259  1.0000
  C   C509      1.0  0.97960  0.87250  0.75259  1.0000
  C   C510      1.0  0.02040  0.12750  0.75259  1.0000
  C   C511      1.0  0.62750  0.47960  0.74741  1.0000
  C   C512      1.0  0.37250  0.52040  0.74741  1.0000
  H   H337      1.0  0.04940  0.39090  0.48400  1.0000
  H   H338      1.0  0.95060  0.60910  0.48400  1.0000
  H   H339      1.0  0.39090  0.95060  0.51600  1.0000
  H   H340      1.0  0.60910  0.04940  0.51600  1.0000
  H   H341      1.0  0.45060  0.39090  0.26600  1.0000
  H   H342      1.0  0.54940  0.60910  0.26600  1.0000
  H   H343      1.0  0.10910  0.95060  0.23400  1.0000
  H   H344      1.0  0.89090  0.04940  0.23400  1.0000
  H   H345      1.0  0.54940  0.89090  0.98400  1.0000
  H   H346      1.0  0.45060  0.10910  0.98400  1.0000
  H   H347      1.0  0.89090  0.45060  0.01600  1.0000
  H   H348      1.0  0.10910  0.54940  0.01600  1.0000
  H   H349      1.0  0.95060  0.89090  0.76600  1.0000
  H   H350      1.0  0.04940  0.10910  0.76600  1.0000
  H   H351      1.0  0.60910  0.45060  0.73400  1.0000
  H   H352      1.0  0.39090  0.54940  0.73400  1.0000
  H   H353      1.0  0.03390  0.33270  0.50280  1.0000
  H   H354      1.0  0.96610  0.66730  0.50280  1.0000
  H   H355      1.0  0.33270  0.96610  0.49720  1.0000
  H   H356      1.0  0.66730  0.03390  0.49720  1.0000
  H   H357      1.0  0.46610  0.33270  0.24720  1.0000
  H   H358      1.0  0.53390  0.66730  0.24720  1.0000
  H   H359      1.0  0.16730  0.96610  0.25280  1.0000
  H   H360      1.0  0.83270  0.03390  0.25280  1.0000
  H   H361      1.0  0.53390  0.83270  0.00280  1.0000
  H   H362      1.0  0.46610  0.16730  0.00280  1.0000
  H   H363      1.0  0.83270  0.46610  0.99720  1.0000
  H   H364      1.0  0.16730  0.53390  0.99720  1.0000
  H   H365      1.0  0.96610  0.83270  0.74720  1.0000
  H   H366      1.0  0.03390  0.16730  0.74720  1.0000
  H   H367      1.0  0.66730  0.46610  0.75280  1.0000
  H   H368      1.0  0.33270  0.53390  0.75280  1.0000
  H   H369      1.0  0.01630  0.39630  0.51560  1.0000
  H   H370      1.0  0.98370  0.60370  0.51560  1.0000
  H   H371      1.0  0.39630  0.98370  0.48440  1.0000
  H   H372      1.0  0.60370  0.01630  0.48440  1.0000
  H   H373      1.0  0.48370  0.39630  0.23440  1.0000
  H   H374      1.0  0.51630  0.60370  0.23440  1.0000
  H   H375      1.0  0.10370  0.98370  0.26560  1.0000
  H   H376      1.0  0.89630  0.01630  0.26560  1.0000
  H   H377      1.0  0.51630  0.89630  0.01560  1.0000
  H   H378      1.0  0.48370  0.10370  0.01560  1.0000
  H   H379      1.0  0.89630  0.48370  0.98440  1.0000
  H   H380      1.0  0.10370  0.51630  0.98440  1.0000
  H   H381      1.0  0.98370  0.89630  0.73440  1.0000
  H   H382      1.0  0.01630  0.10370  0.73440  1.0000
  H   H383      1.0  0.60370  0.48370  0.76560  1.0000
  H   H384      1.0  0.39630  0.51630  0.76560  1.0000
  Cd  Cd1       1.0  0.62945  0.13156  0.42509  1.0000
  Cd  Cd2       1.0  0.37056  0.86845  0.42509  1.0000
  Cd  Cd3       1.0  0.13156  0.37056  0.57491  1.0000
  Cd  Cd4       1.0  0.86845  0.62945  0.57491  1.0000
  Cd  Cd5       1.0  0.87056  0.13156  0.32491  1.0000
  Cd  Cd6       1.0  0.12945  0.86845  0.32491  1.0000
  Cd  Cd7       1.0  0.36845  0.37056  0.17509  1.0000
  Cd  Cd8       1.0  0.63155  0.62945  0.17509  1.0000
  Cd  Cd9       1.0  0.12945  0.63155  0.92509  1.0000
  Cd  Cd10      1.0  0.87056  0.36845  0.92509  1.0000
  Cd  Cd11      1.0  0.63155  0.87056  0.07491  1.0000
  Cd  Cd12      1.0  0.36845  0.12945  0.07491  1.0000
  Cd  Cd13      1.0  0.37056  0.63155  0.82491  1.0000
  Cd  Cd14      1.0  0.62945  0.36845  0.82491  1.0000
  Cd  Cd15      1.0  0.86845  0.87056  0.67509  1.0000
  Cd  Cd16      1.0  0.13156  0.12945  0.67509  1.0000
  Cd  Cd17      1.0  0.75000  0.13215  0.37500  1.0000
  Cd  Cd18      1.0  0.25000  0.86785  0.37500  1.0000
  Cd  Cd19      1.0  0.13215  0.25000  0.62500  1.0000
  Cd  Cd20      1.0  0.86785  0.75000  0.62500  1.0000
  Cd  Cd21      1.0  0.36785  0.25000  0.12500  1.0000
  Cd  Cd22      1.0  0.63215  0.75000  0.12500  1.0000
  Cd  Cd23      1.0  0.25000  0.63215  0.87500  1.0000
  Cd  Cd24      1.0  0.75000  0.36785  0.87500  1.0000
  O   O1        1.0  0.57899  0.08377  0.38055  1.0000
  O   O2        1.0  0.42101  0.91623  0.38055  1.0000
  O   O3        1.0  0.08377  0.42101  0.61945  1.0000
  O   O4        1.0  0.91623  0.57899  0.61945  1.0000
  O   O5        1.0  0.92101  0.08377  0.36945  1.0000
  O   O6        1.0  0.07899  0.91623  0.36945  1.0000
  O   O7        1.0  0.41623  0.42101  0.13055  1.0000
  O   O8        1.0  0.58377  0.57899  0.13055  1.0000
  O   O9        1.0  0.07899  0.58377  0.88055  1.0000
  O   O10       1.0  0.92101  0.41623  0.88055  1.0000
  O   O11       1.0  0.58377  0.92101  0.11945  1.0000
  O   O12       1.0  0.41623  0.07899  0.11945  1.0000
  O   O13       1.0  0.42101  0.58377  0.86945  1.0000
  O   O14       1.0  0.57899  0.41623  0.86945  1.0000
  O   O15       1.0  0.91623  0.92101  0.63055  1.0000
  O   O16       1.0  0.08377  0.07899  0.63055  1.0000
  O   O17       1.0  0.67580  0.06395  0.38879  1.0000
  O   O18       1.0  0.32420  0.93605  0.38879  1.0000
  O   O19       1.0  0.06395  0.32420  0.61121  1.0000
  O   O20       1.0  0.93605  0.67580  0.61121  1.0000
  O   O21       1.0  0.82420  0.06395  0.36121  1.0000
  O   O22       1.0  0.17580  0.93605  0.36121  1.0000
  O   O23       1.0  0.43605  0.32420  0.13879  1.0000
  O   O24       1.0  0.56395  0.67580  0.13879  1.0000
  O   O25       1.0  0.17580  0.56395  0.88879  1.0000
  O   O26       1.0  0.82420  0.43605  0.88879  1.0000
  O   O27       1.0  0.56395  0.82420  0.11121  1.0000
  O   O28       1.0  0.43605  0.17580  0.11121  1.0000
  O   O29       1.0  0.32420  0.56395  0.86121  1.0000
  O   O30       1.0  0.67580  0.43605  0.86121  1.0000
  O   O31       1.0  0.93605  0.82420  0.63879  1.0000
  O   O32       1.0  0.06395  0.17580  0.63879  1.0000
  O   O33       1.0  0.61665  0.71326  0.20357  1.0000
  O   O34       1.0  0.38335  0.28674  0.20357  1.0000
  O   O35       1.0  0.71326  0.38335  0.79643  1.0000
  O   O36       1.0  0.28674  0.61665  0.79643  1.0000
  O   O37       1.0  0.88335  0.71326  0.54643  1.0000
  O   O38       1.0  0.11665  0.28674  0.54643  1.0000
  O   O39       1.0  0.78674  0.38335  0.95357  1.0000
  O   O40       1.0  0.21326  0.61665  0.95357  1.0000
  O   O41       1.0  0.11665  0.21326  0.70357  1.0000
  O   O42       1.0  0.88335  0.78674  0.70357  1.0000
  O   O43       1.0  0.21326  0.88335  0.29643  1.0000
  O   O44       1.0  0.78674  0.11665  0.29643  1.0000
  O   O45       1.0  0.38335  0.21326  0.04643  1.0000
  O   O46       1.0  0.61665  0.78674  0.04643  1.0000
  O   O47       1.0  0.28674  0.88335  0.45357  1.0000
  O   O48       1.0  0.71326  0.11665  0.45357  1.0000
  O   O49       1.0  0.63680  0.78541  0.17119  1.0000
  O   O50       1.0  0.36320  0.21459  0.17119  1.0000
  O   O51       1.0  0.78541  0.36320  0.82881  1.0000
  O   O52       1.0  0.21459  0.63680  0.82881  1.0000
  O   O53       1.0  0.86320  0.78541  0.57881  1.0000
  O   O54       1.0  0.13680  0.21459  0.57881  1.0000
  O   O55       1.0  0.71459  0.36320  0.92119  1.0000
  O   O56       1.0  0.28541  0.63680  0.92119  1.0000
  O   O57       1.0  0.13680  0.28541  0.67119  1.0000
  O   O58       1.0  0.86320  0.71459  0.67119  1.0000
  O   O59       1.0  0.28541  0.86320  0.32881  1.0000
  O   O60       1.0  0.71459  0.13680  0.32881  1.0000
  O   O61       1.0  0.36320  0.28541  0.07881  1.0000
  O   O62       1.0  0.63680  0.71459  0.07881  1.0000
  O   O63       1.0  0.21459  0.86320  0.42119  1.0000
  O   O64       1.0  0.78541  0.13680  0.42119  1.0000
  O   O65       1.0  0.73676  0.92266  0.30094  1.0000
  O   O66       1.0  0.26324  0.07734  0.30094  1.0000
  O   O67       1.0  0.92266  0.26324  0.69906  1.0000
  O   O68       1.0  0.07734  0.73676  0.69906  1.0000
  O   O69       1.0  0.76324  0.92266  0.44906  1.0000
  O   O70       1.0  0.23676  0.07734  0.44906  1.0000
  O   O71       1.0  0.57734  0.26324  0.05094  1.0000
  O   O72       1.0  0.42266  0.73676  0.05094  1.0000
  O   O73       1.0  0.23676  0.42266  0.80094  1.0000
  O   O74       1.0  0.76324  0.57734  0.80094  1.0000
  O   O75       1.0  0.42266  0.76324  0.19906  1.0000
  O   O76       1.0  0.57734  0.23676  0.19906  1.0000
  O   O77       1.0  0.26324  0.42266  0.94906  1.0000
  O   O78       1.0  0.73676  0.57734  0.94906  1.0000
  O   O79       1.0  0.07734  0.76324  0.55094  1.0000
  O   O80       1.0  0.92266  0.23676  0.55094  1.0000
  O   O81       1.0  0.68552  0.96373  0.23404  1.0000
  O   O82       1.0  0.31448  0.03627  0.23404  1.0000
  O   O83       1.0  0.96373  0.31448  0.76596  1.0000
  O   O84       1.0  0.03627  0.68552  0.76596  1.0000
  O   O85       1.0  0.81448  0.96373  0.51596  1.0000
  O   O86       1.0  0.18552  0.03627  0.51596  1.0000
  O   O87       1.0  0.53627  0.31448  0.98404  1.0000
  O   O88       1.0  0.46373  0.68552  0.98404  1.0000
  O   O89       1.0  0.18552  0.46373  0.73404  1.0000
  O   O90       1.0  0.81448  0.53627  0.73404  1.0000
  O   O91       1.0  0.46373  0.81448  0.26596  1.0000
  O   O92       1.0  0.53627  0.18552  0.26596  1.0000
  O   O93       1.0  0.31448  0.46373  0.01596  1.0000
  O   O94       1.0  0.68552  0.53627  0.01596  1.0000
  O   O95       1.0  0.03627  0.81448  0.48404  1.0000
  O   O96       1.0  0.96373  0.18552  0.48404  1.0000
  O   O97       1.0  0.82273  0.20043  0.35943  1.0000
  O   O98       1.0  0.17727  0.79957  0.35943  1.0000
  O   O99       1.0  0.20043  0.17727  0.64057  1.0000
  O   O100      1.0  0.79957  0.82273  0.64057  1.0000
  O   O101      1.0  0.67727  0.20043  0.39057  1.0000
  O   O102      1.0  0.32273  0.79957  0.39057  1.0000
  O   O103      1.0  0.29957  0.17727  0.10943  1.0000
  O   O104      1.0  0.70043  0.82273  0.10943  1.0000
  O   O105      1.0  0.32273  0.70043  0.85943  1.0000
  O   O106      1.0  0.67727  0.29957  0.85943  1.0000
  O   O107      1.0  0.70043  0.67727  0.14057  1.0000
  O   O108      1.0  0.29957  0.32273  0.14057  1.0000
  O   O109      1.0  0.17727  0.70043  0.89057  1.0000
  O   O110      1.0  0.82273  0.29957  0.89057  1.0000
  O   O111      1.0  0.79957  0.67727  0.60943  1.0000
  O   O112      1.0  0.20043  0.32273  0.60943  1.0000
  O   O113      1.0  0.91786  0.21449  0.35109  1.0000
  O   O114      1.0  0.08214  0.78551  0.35109  1.0000
  O   O115      1.0  0.21449  0.08214  0.64891  1.0000
  O   O116      1.0  0.78551  0.91786  0.64891  1.0000
  O   O117      1.0  0.58214  0.21449  0.39891  1.0000
  O   O118      1.0  0.41786  0.78551  0.39891  1.0000
  O   O119      1.0  0.28551  0.08214  0.10109  1.0000
  O   O120      1.0  0.71449  0.91786  0.10109  1.0000
  O   O121      1.0  0.41786  0.71449  0.85109  1.0000
  O   O122      1.0  0.58214  0.28551  0.85109  1.0000
  O   O123      1.0  0.71449  0.58214  0.14891  1.0000
  O   O124      1.0  0.28551  0.41786  0.14891  1.0000
  O   O125      1.0  0.08214  0.71449  0.89891  1.0000
  O   O126      1.0  0.91786  0.28551  0.89891  1.0000
  O   O127      1.0  0.78551  0.58214  0.60109  1.0000
  O   O128      1.0  0.21449  0.41786  0.60109  1.0000
  O   O129      1.0  0.82770  0.58781  0.52906  1.0000
  O   O130      1.0  0.17230  0.41219  0.52906  1.0000
  O   O131      1.0  0.58781  0.17230  0.47094  1.0000
  O   O132      1.0  0.41219  0.82770  0.47094  1.0000
  O   O133      1.0  0.67230  0.58781  0.22094  1.0000
  O   O134      1.0  0.32770  0.41219  0.22094  1.0000
  O   O135      1.0  0.91219  0.17230  0.27906  1.0000
  O   O136      1.0  0.08781  0.82770  0.27906  1.0000
  O   O137      1.0  0.32770  0.08781  0.02906  1.0000
  O   O138      1.0  0.67230  0.91219  0.02906  1.0000
  O   O139      1.0  0.08781  0.67230  0.97094  1.0000
  O   O140      1.0  0.91219  0.32770  0.97094  1.0000
  O   O141      1.0  0.17230  0.08781  0.72094  1.0000
  O   O142      1.0  0.82770  0.91219  0.72094  1.0000
  O   O143      1.0  0.41219  0.67230  0.77906  1.0000
  O   O144      1.0  0.58781  0.32770  0.77906  1.0000
  O   O145      1.0  0.90930  0.55080  0.54818  1.0000
  O   O146      1.0  0.09070  0.44920  0.54818  1.0000
  O   O147      1.0  0.55080  0.09070  0.45182  1.0000
  O   O148      1.0  0.44920  0.90930  0.45182  1.0000
  O   O149      1.0  0.59070  0.55080  0.20182  1.0000
  O   O150      1.0  0.40930  0.44920  0.20182  1.0000
  O   O151      1.0  0.94920  0.09070  0.29818  1.0000
  O   O152      1.0  0.05080  0.90930  0.29818  1.0000
  O   O153      1.0  0.40930  0.05080  0.04818  1.0000
  O   O154      1.0  0.59070  0.94920  0.04818  1.0000
  O   O155      1.0  0.05080  0.59070  0.95182  1.0000
  O   O156      1.0  0.94920  0.40930  0.95182  1.0000
  O   O157      1.0  0.09070  0.05080  0.70182  1.0000
  O   O158      1.0  0.90930  0.94920  0.70182  1.0000
  O   O159      1.0  0.44920  0.59070  0.79818  1.0000
  O   O160      1.0  0.55080  0.40930  0.79818  1.0000
  O   O161      1.0  0.77115  0.33727  0.44955  1.0000
  O   O162      1.0  0.22885  0.66273  0.44955  1.0000
  O   O163      1.0  0.33727  0.22885  0.55045  1.0000
  O   O164      1.0  0.66273  0.77115  0.55045  1.0000
  O   O165      1.0  0.72885  0.33727  0.30045  1.0000
  O   O166      1.0  0.27115  0.66273  0.30045  1.0000
  O   O167      1.0  0.16273  0.22885  0.19955  1.0000
  O   O168      1.0  0.83727  0.77115  0.19955  1.0000
  O   O169      1.0  0.27115  0.83727  0.94955  1.0000
  O   O170      1.0  0.72885  0.16273  0.94955  1.0000
  O   O171      1.0  0.83727  0.72885  0.05045  1.0000
  O   O172      1.0  0.16273  0.27115  0.05045  1.0000
  O   O173      1.0  0.22885  0.83727  0.80045  1.0000
  O   O174      1.0  0.77115  0.16273  0.80045  1.0000
  O   O175      1.0  0.66273  0.72885  0.69955  1.0000
  O   O176      1.0  0.33727  0.27115  0.69955  1.0000
  O   O177      1.0  0.95846  0.36827  0.48086  1.0000
  O   O178      1.0  0.04154  0.63173  0.48086  1.0000
  O   O179      1.0  0.36827  0.04154  0.51914  1.0000
  O   O180      1.0  0.63173  0.95846  0.51914  1.0000
  O   O181      1.0  0.54154  0.36827  0.26914  1.0000
  O   O182      1.0  0.45846  0.63173  0.26914  1.0000
  O   O183      1.0  0.13173  0.04154  0.23086  1.0000
  O   O184      1.0  0.86827  0.95846  0.23086  1.0000
  O   O185      1.0  0.45846  0.86827  0.98086  1.0000
  O   O186      1.0  0.54154  0.13173  0.98086  1.0000
  O   O187      1.0  0.86827  0.54154  0.01914  1.0000
  O   O188      1.0  0.13173  0.45846  0.01914  1.0000
  O   O189      1.0  0.04154  0.86827  0.76914  1.0000
  O   O190      1.0  0.95846  0.13173  0.76914  1.0000
  O   O191      1.0  0.63173  0.54154  0.73086  1.0000
  O   O192      1.0  0.36827  0.45846  0.73086  1.0000
