data_image0
_chemical_formula_structural       Sr4O32N8C8H4C4H4C4H4C20H4C4H4C4H4C12O4H8O4H8
_chemical_formula_sum              "Sr4 O40 N8 C56 H40"
_cell_length_a       11.9953
_cell_length_b       13.701
_cell_length_c       15.143
_cell_angle_alpha    90
_cell_angle_beta     90.098
_cell_angle_gamma    90

_space_group_name_H-M_alt    "P 1"
_space_group_IT_number       1

loop_
  _space_group_symop_operation_xyz
  'x, y, z'

loop_
  _atom_site_type_symbol
  _atom_site_label
  _atom_site_symmetry_multiplicity
  _atom_site_fract_x
  _atom_site_fract_y
  _atom_site_fract_z
  _atom_site_occupancy
  Sr  Sr1       1.0  0.33146  0.23256  0.74543  1.0000
  Sr  Sr2       1.0  0.16854  0.73256  0.75457  1.0000
  Sr  Sr3       1.0  0.66854  0.76744  0.25457  1.0000
  Sr  Sr4       1.0  0.83146  0.26744  0.24543  1.0000
  O   O1        1.0  0.12540  0.16650  0.69370  1.0000
  O   O2        1.0  0.37460  0.66650  0.80630  1.0000
  O   O3        1.0  0.87460  0.83350  0.30630  1.0000
  O   O4        1.0  0.62540  0.33350  0.19370  1.0000
  O   O5        1.0  0.99320  0.05590  0.72330  1.0000
  O   O6        1.0  0.50680  0.55590  0.77670  1.0000
  O   O7        1.0  0.00680  0.94410  0.27670  1.0000
  O   O8        1.0  0.49320  0.44410  0.22330  1.0000
  O   O9        1.0  0.36620  0.26490  0.91220  1.0000
  O   O10       1.0  0.13380  0.76490  0.58780  1.0000
  O   O11       1.0  0.63380  0.73510  0.08780  1.0000
  O   O12       1.0  0.86620  0.23510  0.41220  1.0000
  O   O13       1.0  0.30940  0.28740  0.05080  1.0000
  O   O14       1.0  0.19060  0.78740  0.44920  1.0000
  O   O15       1.0  0.69060  0.71260  0.94920  1.0000
  O   O16       1.0  0.80940  0.21260  0.55080  1.0000
  O   O17       1.0  0.25490  0.40570  0.78700  1.0000
  O   O18       1.0  0.24510  0.90570  0.71300  1.0000
  O   O19       1.0  0.74510  0.59430  0.21300  1.0000
  O   O20       1.0  0.75490  0.09430  0.28700  1.0000
  O   O21       1.0  0.16720  0.54510  0.75480  1.0000
  O   O22       1.0  0.33280  0.04510  0.74520  1.0000
  O   O23       1.0  0.83280  0.45490  0.24520  1.0000
  O   O24       1.0  0.66720  0.95490  0.25480  1.0000
  O   O25       1.0  0.35930  0.18380  0.58260  1.0000
  O   O26       1.0  0.14070  0.68380  0.91740  1.0000
  O   O27       1.0  0.64070  0.81620  0.41740  1.0000
  O   O28       1.0  0.85930  0.31620  0.08260  1.0000
  O   O29       1.0  0.29860  0.18020  0.44390  1.0000
  O   O30       1.0  0.20140  0.68020  0.05610  1.0000
  O   O31       1.0  0.70140  0.81980  0.55610  1.0000
  O   O32       1.0  0.79860  0.31980  0.94390  1.0000
  N   N1        1.0  0.17200  0.18370  0.86740  1.0000
  N   N2        1.0  0.32800  0.68370  0.63260  1.0000
  N   N3        1.0  0.82800  0.81630  0.13260  1.0000
  N   N4        1.0  0.67200  0.31630  0.36740  1.0000
  N   N5        1.0  0.25470  0.34930  0.61810  1.0000
  N   N6        1.0  0.24530  0.84930  0.88190  1.0000
  N   N7        1.0  0.74530  0.65070  0.38190  1.0000
  N   N8        1.0  0.75470  0.15070  0.11810  1.0000
  C   C1        1.0  0.07990  0.13630  0.84390  1.0000
  C   C2        1.0  0.42010  0.63630  0.65610  1.0000
  C   C3        1.0  0.92010  0.86370  0.15610  1.0000
  C   C4        1.0  0.57990  0.36370  0.34390  1.0000
  C   C5        1.0  0.00070  0.10470  0.90570  1.0000
  C   C6        1.0  0.49930  0.60470  0.59430  1.0000
  C   C7        1.0  0.99930  0.89530  0.09430  1.0000
  C   C8        1.0  0.50070  0.39530  0.40570  1.0000
  H   H1        1.0  0.93600  0.07020  0.88740  1.0000
  H   H2        1.0  0.56400  0.57020  0.61260  1.0000
  H   H3        1.0  0.06400  0.92980  0.11260  1.0000
  H   H4        1.0  0.43600  0.42980  0.38740  1.0000
  C   C9        1.0  0.01910  0.12510  0.99380  1.0000
  C   C10       1.0  0.48090  0.62510  0.50620  1.0000
  C   C11       1.0  0.98090  0.87490  0.00620  1.0000
  C   C12       1.0  0.51910  0.37490  0.49380  1.0000
  H   H5        1.0  0.96630  0.10580  0.03710  1.0000
  H   H6        1.0  0.53370  0.60580  0.46290  1.0000
  H   H7        1.0  0.03370  0.89420  0.96290  1.0000
  H   H8        1.0  0.46630  0.39420  0.53710  1.0000
  C   C13       1.0  0.11510  0.17380  0.01800  1.0000
  C   C14       1.0  0.38490  0.67380  0.48200  1.0000
  C   C15       1.0  0.88490  0.82620  0.98200  1.0000
  C   C16       1.0  0.61510  0.32620  0.51800  1.0000
  H   H9        1.0  0.13000  0.18790  0.07830  1.0000
  H   H10       1.0  0.37000  0.68790  0.42170  1.0000
  H   H11       1.0  0.87000  0.81210  0.92170  1.0000
  H   H12       1.0  0.63000  0.31210  0.57830  1.0000
  C   C17       1.0  0.18990  0.20190  0.95230  1.0000
  C   C18       1.0  0.31010  0.70190  0.54770  1.0000
  C   C19       1.0  0.81010  0.79810  0.04770  1.0000
  C   C20       1.0  0.68990  0.29810  0.45230  1.0000
  C   C21       1.0  0.06590  0.11920  0.74540  1.0000
  C   C22       1.0  0.43410  0.61920  0.75460  1.0000
  C   C23       1.0  0.93410  0.88080  0.25460  1.0000
  C   C24       1.0  0.56590  0.38080  0.24540  1.0000
  C   C25       1.0  0.29770  0.25500  0.97300  1.0000
  C   C26       1.0  0.20230  0.75500  0.52700  1.0000
  C   C27       1.0  0.70230  0.74500  0.02700  1.0000
  C   C28       1.0  0.79770  0.24500  0.47300  1.0000
  C   C29       1.0  0.20640  0.43560  0.63670  1.0000
  C   C30       1.0  0.29360  0.93560  0.86330  1.0000
  C   C31       1.0  0.79360  0.56440  0.36330  1.0000
  C   C32       1.0  0.70640  0.06440  0.13670  1.0000
  C   C33       1.0  0.15520  0.49270  0.57380  1.0000
  C   C34       1.0  0.34480  0.99270  0.92620  1.0000
  C   C35       1.0  0.84480  0.50730  0.42620  1.0000
  C   C36       1.0  0.65520  0.00730  0.07380  1.0000
  H   H13       1.0  0.12300  0.55370  0.58920  1.0000
  H   H14       1.0  0.37700  0.05370  0.91080  1.0000
  H   H15       1.0  0.87700  0.44630  0.41080  1.0000
  H   H16       1.0  0.62300  0.94630  0.08920  1.0000
  C   C37       1.0  0.15150  0.45920  0.48690  1.0000
  C   C38       1.0  0.34850  0.95920  0.01310  1.0000
  C   C39       1.0  0.84850  0.54080  0.51310  1.0000
  C   C40       1.0  0.65150  0.04080  0.98690  1.0000
  H   H17       1.0  0.11610  0.49690  0.44230  1.0000
  H   H18       1.0  0.38390  0.99690  0.05770  1.0000
  H   H19       1.0  0.88390  0.50310  0.55770  1.0000
  H   H20       1.0  0.61610  0.00310  0.94230  1.0000
  C   C41       1.0  0.20020  0.36980  0.46640  1.0000
  C   C42       1.0  0.29980  0.86980  0.03360  1.0000
  C   C43       1.0  0.79980  0.63020  0.53360  1.0000
  C   C44       1.0  0.70020  0.13020  0.96640  1.0000
  H   H21       1.0  0.19900  0.34550  0.40760  1.0000
  H   H22       1.0  0.30100  0.84550  0.09240  1.0000
  H   H23       1.0  0.80100  0.65450  0.59240  1.0000
  H   H24       1.0  0.69900  0.15450  0.90760  1.0000
  C   C45       1.0  0.25040  0.31720  0.53370  1.0000
  C   C46       1.0  0.24960  0.81720  0.96630  1.0000
  C   C47       1.0  0.74960  0.68280  0.46630  1.0000
  C   C48       1.0  0.75040  0.18280  0.03370  1.0000
  C   C49       1.0  0.21120  0.46500  0.73470  1.0000
  C   C50       1.0  0.28880  0.96500  0.76530  1.0000
  C   C51       1.0  0.78880  0.53500  0.26530  1.0000
  C   C52       1.0  0.71120  0.03500  0.23470  1.0000
  C   C53       1.0  0.30700  0.21950  0.51820  1.0000
  C   C54       1.0  0.19300  0.71950  0.98180  1.0000
  C   C55       1.0  0.69300  0.78050  0.48180  1.0000
  C   C56       1.0  0.80700  0.28050  0.01820  1.0000
  O   O33       1.0  0.50000  0.35790  0.73010  1.0000
  O   O34       1.0  0.00000  0.85790  0.76990  1.0000
  O   O35       1.0  0.50000  0.64210  0.26990  1.0000
  O   O36       1.0  0.00000  0.14210  0.23010  1.0000
  H   H25       1.0  0.56870  0.34550  0.73810  1.0000
  H   H26       1.0  0.93130  0.84550  0.76190  1.0000
  H   H27       1.0  0.43130  0.65450  0.26190  1.0000
  H   H28       1.0  0.06870  0.15450  0.23810  1.0000
  H   H29       1.0  0.48770  0.41890  0.73280  1.0000
  H   H30       1.0  0.01230  0.91890  0.76720  1.0000
  H   H31       1.0  0.51230  0.58110  0.26720  1.0000
  H   H32       1.0  0.98770  0.08110  0.23280  1.0000
  O   O37       1.0  0.53320  0.15600  0.76090  1.0000
  O   O38       1.0  0.96680  0.65600  0.73910  1.0000
  O   O39       1.0  0.46680  0.84400  0.23910  1.0000
  O   O40       1.0  0.03320  0.34400  0.26090  1.0000
  H   H33       1.0  0.59730  0.17990  0.75090  1.0000
  H   H34       1.0  0.90270  0.67990  0.74910  1.0000
  H   H35       1.0  0.40270  0.82010  0.24910  1.0000
  H   H36       1.0  0.09730  0.32010  0.25090  1.0000
  H   H37       1.0  0.54620  0.09530  0.76630  1.0000
  H   H38       1.0  0.95380  0.59530  0.73370  1.0000
  H   H39       1.0  0.45380  0.90470  0.23370  1.0000
  H   H40       1.0  0.04620  0.40470  0.26630  1.0000
