data_image0
_chemical_formula_structural       Cd4C2H2C4H2C2H2C6H2C4H2C2H2C4N4O16S6
_chemical_formula_sum              "Cd4 C24 H12 N4 O16 S6"
_cell_length_a       7.8398
_cell_length_b       14.425
_cell_length_c       14.4884
_cell_angle_alpha    90.76
_cell_angle_beta     97.907
_cell_angle_gamma    105.506

_space_group_name_H-M_alt    "P 1"
_space_group_IT_number       1

loop_
  _space_group_symop_operation_xyz
  'x, y, z'

loop_
  _atom_site_type_symbol
  _atom_site_label
  _atom_site_symmetry_multiplicity
  _atom_site_fract_x
  _atom_site_fract_y
  _atom_site_fract_z
  _atom_site_occupancy
  Cd  Cd1       1.0  0.27558  0.03618  0.00659  1.0000
  Cd  Cd2       1.0  0.72442  0.96382  0.99341  1.0000
  Cd  Cd3       1.0  0.44139  0.52703  0.35357  1.0000
  Cd  Cd4       1.0  0.55861  0.47297  0.64643  1.0000
  C   C1        1.0  0.27190  0.24310  0.11230  1.0000
  C   C2        1.0  0.72810  0.75690  0.88770  1.0000
  H   H1        1.0  0.38080  0.24080  0.14560  1.0000
  H   H2        1.0  0.61920  0.75920  0.85440  1.0000
  C   C3        1.0  0.20360  0.31690  0.13400  1.0000
  C   C4        1.0  0.79640  0.68310  0.86600  1.0000
  C   C5        1.0  0.04020  0.31970  0.08320  1.0000
  C   C6        1.0  0.95980  0.68030  0.91680  1.0000
  H   H3        1.0  0.98880  0.36880  0.09560  1.0000
  H   H4        1.0  0.01120  0.63120  0.90440  1.0000
  C   C7        1.0  0.95630  0.24940  0.01480  1.0000
  C   C8        1.0  0.04370  0.75060  0.98520  1.0000
  H   H5        1.0  0.84780  0.25090  0.98040  1.0000
  H   H6        1.0  0.15220  0.74910  0.01960  1.0000
  C   C9        1.0  0.03290  0.17590  0.99670  1.0000
  C   C10       1.0  0.96710  0.82410  0.00330  1.0000
  C   C11       1.0  0.29890  0.39220  0.21080  1.0000
  C   C12       1.0  0.70110  0.60780  0.78920  1.0000
  C   C13       1.0  0.39550  0.17310  0.83080  1.0000
  C   C14       1.0  0.60450  0.82690  0.16920  1.0000
  H   H7        1.0  0.35670  0.22030  0.85950  1.0000
  H   H8        1.0  0.64330  0.77970  0.14050  1.0000
  C   C15       1.0  0.46750  0.19430  0.74980  1.0000
  C   C16       1.0  0.53250  0.80570  0.25020  1.0000
  C   C17       1.0  0.51910  0.12230  0.70700  1.0000
  C   C18       1.0  0.48090  0.87770  0.29300  1.0000
  H   H9        1.0  0.56700  0.13340  0.65170  1.0000
  H   H10       1.0  0.43300  0.86660  0.34830  1.0000
  C   C19       1.0  0.50010  0.03400  0.74590  1.0000
  C   C20       1.0  0.49990  0.96600  0.25410  1.0000
  H   H11       1.0  0.53300  0.98510  0.71660  1.0000
  H   H12       1.0  0.46700  0.01490  0.28340  1.0000
  C   C21       1.0  0.43050  0.01910  0.83010  1.0000
  C   C22       1.0  0.56950  0.98090  0.16990  1.0000
  C   C23       1.0  0.49340  0.29320  0.71270  1.0000
  C   C24       1.0  0.50660  0.70680  0.28730  1.0000
  N   N1        1.0  0.19100  0.17360  0.04570  1.0000
  N   N2        1.0  0.80900  0.82640  0.95430  1.0000
  N   N3        1.0  0.37810  0.08890  0.87080  1.0000
  N   N4        1.0  0.62190  0.91110  0.12920  1.0000
  O   O1        1.0  0.22670  0.45530  0.22970  1.0000
  O   O2        1.0  0.77330  0.54470  0.77030  1.0000
  O   O3        1.0  0.44570  0.38800  0.25270  1.0000
  O   O4        1.0  0.55430  0.61200  0.74730  1.0000
  O   O5        1.0  0.41860  0.34880  0.74520  1.0000
  O   O6        1.0  0.58140  0.65120  0.25480  1.0000
  O   O7        1.0  0.58900  0.31550  0.65000  1.0000
  O   O8        1.0  0.41100  0.68450  0.35000  1.0000
  O   O9        1.0  0.36920  0.40350  0.46910  1.0000
  O   O10       1.0  0.63080  0.59650  0.53090  1.0000
  O   O11       1.0  0.18680  0.51030  0.43840  1.0000
  O   O12       1.0  0.81320  0.48970  0.56160  1.0000
  O   O13       1.0  0.26930  0.47120  0.59641  1.0000
  O   O14       1.0  0.73070  0.52880  0.40359  1.0000
  O   O15       1.0  0.05820  0.35210  0.49170  1.0000
  O   O16       1.0  0.94180  0.64790  0.50830  1.0000
  S   S1        1.0  0.93636  0.08569  0.90914  1.0000
  S   S2        1.0  0.06364  0.91431  0.09086  1.0000
  S   S3        1.0  0.40639  0.91283  0.88891  1.0000
  S   S4        1.0  0.59361  0.08717  0.11109  1.0000
  S   S5        1.0  0.21752  0.43342  0.49727  1.0000
  S   S6        1.0  0.78248  0.56658  0.50273  1.0000
