data_image0
_chemical_formula_structural       O12C4H4C8O4H8O4C4H8Li4
_chemical_formula_sum              "O20 C16 H20 Li4"
_cell_length_a       5.4998
_cell_length_b       10.6053
_cell_length_c       15.2719
_cell_angle_alpha    90
_cell_angle_beta     99.942
_cell_angle_gamma    90

_space_group_name_H-M_alt    "P 1"
_space_group_IT_number       1

loop_
  _space_group_symop_operation_xyz
  'x, y, z'

loop_
  _atom_site_type_symbol
  _atom_site_label
  _atom_site_symmetry_multiplicity
  _atom_site_fract_x
  _atom_site_fract_y
  _atom_site_fract_z
  _atom_site_occupancy
  O   O1        1.0  0.99395  0.69185  0.40065  1.0000
  O   O2        1.0  0.00605  0.19185  0.09935  1.0000
  O   O3        1.0  0.00605  0.30815  0.59935  1.0000
  O   O4        1.0  0.99395  0.80815  0.90065  1.0000
  O   O5        1.0  0.71914  0.93004  0.32473  1.0000
  O   O6        1.0  0.28086  0.43004  0.17527  1.0000
  O   O7        1.0  0.28086  0.06996  0.67527  1.0000
  O   O8        1.0  0.71914  0.56996  0.82473  1.0000
  O   O9        1.0  0.39460  0.70151  0.39881  1.0000
  O   O10       1.0  0.60540  0.20151  0.10119  1.0000
  O   O11       1.0  0.60540  0.29849  0.60119  1.0000
  O   O12       1.0  0.39460  0.79849  0.89881  1.0000
  C   C1        1.0  0.98110  0.94353  0.46775  1.0000
  C   C2        1.0  0.01890  0.44353  0.03225  1.0000
  C   C3        1.0  0.01890  0.05647  0.53225  1.0000
  C   C4        1.0  0.98110  0.55647  0.96775  1.0000
  H   H1        1.0  0.85510  0.88760  0.48470  1.0000
  H   H2        1.0  0.14490  0.38760  0.01530  1.0000
  H   H3        1.0  0.14490  0.11240  0.51530  1.0000
  H   H4        1.0  0.85510  0.61240  0.98470  1.0000
  C   C5        1.0  0.20100  0.74583  0.41869  1.0000
  C   C6        1.0  0.79900  0.24583  0.08131  1.0000
  C   C7        1.0  0.79900  0.25417  0.58131  1.0000
  C   C8        1.0  0.20100  0.75417  0.91869  1.0000
  C   C9        1.0  0.89540  0.98847  0.37198  1.0000
  C   C10       1.0  0.10460  0.48847  0.12802  1.0000
  C   C11       1.0  0.10460  0.01153  0.62802  1.0000
  C   C12       1.0  0.89540  0.51153  0.87198  1.0000
  O   O13       1.0  0.59790  0.66386  0.22779  1.0000
  O   O14       1.0  0.40210  0.16386  0.27221  1.0000
  O   O15       1.0  0.40210  0.33614  0.77221  1.0000
  O   O16       1.0  0.59790  0.83614  0.72779  1.0000
  H   H5        1.0  0.50820  0.59930  0.23080  1.0000
  H   H6        1.0  0.49180  0.09930  0.26920  1.0000
  H   H7        1.0  0.49180  0.40070  0.76920  1.0000
  H   H8        1.0  0.50820  0.90070  0.73080  1.0000
  H   H9        1.0  0.73340  0.64190  0.21270  1.0000
  H   H10       1.0  0.26660  0.14190  0.28730  1.0000
  H   H11       1.0  0.26660  0.35810  0.78730  1.0000
  H   H12       1.0  0.73340  0.85810  0.71270  1.0000
  O   O17       1.0  0.00410  0.07828  0.34376  1.0000
  O   O18       1.0  0.99590  0.57828  0.15624  1.0000
  O   O19       1.0  0.99590  0.92172  0.65624  1.0000
  O   O20       1.0  0.00410  0.42172  0.84376  1.0000
  C   C13       1.0  0.22160  0.86872  0.47059  1.0000
  C   C14       1.0  0.77840  0.36872  0.02941  1.0000
  C   C15       1.0  0.77840  0.13128  0.52941  1.0000
  C   C16       1.0  0.22160  0.63128  0.97059  1.0000
  H   H13       1.0  0.33980  0.92240  0.44810  1.0000
  H   H14       1.0  0.66020  0.42240  0.05190  1.0000
  H   H15       1.0  0.66020  0.07760  0.55190  1.0000
  H   H16       1.0  0.33980  0.57760  0.94810  1.0000
  H   H17       1.0  0.28850  0.85010  0.53220  1.0000
  H   H18       1.0  0.71150  0.35010  0.96780  1.0000
  H   H19       1.0  0.71150  0.14990  0.46780  1.0000
  H   H20       1.0  0.28850  0.64990  0.03220  1.0000
  Li  Li1       1.0  0.66580  0.74870  0.34509  1.0000
  Li  Li2       1.0  0.33420  0.24870  0.15491  1.0000
  Li  Li3       1.0  0.33420  0.25130  0.65491  1.0000
  Li  Li4       1.0  0.66580  0.75130  0.84509  1.0000
