data_image0
_chemical_formula_structural       Mn2Ga2O24C12H12
_chemical_formula_sum              "Mn2 Ga2 O24 C12 H12"
_cell_length_a       8.2484
_cell_length_b       8.2484
_cell_length_c       13.883
_cell_angle_alpha    90
_cell_angle_beta     90
_cell_angle_gamma    120

_space_group_name_H-M_alt    "P 1"
_space_group_IT_number       1

loop_
  _space_group_symop_operation_xyz
  'x, y, z'

loop_
  _atom_site_type_symbol
  _atom_site_label
  _atom_site_symmetry_multiplicity
  _atom_site_fract_x
  _atom_site_fract_y
  _atom_site_fract_z
  _atom_site_occupancy
  Mn  Mn1       1.0  0.66670  0.33330  0.25000  1.0000
  Mn  Mn2       1.0  0.33330  0.66670  0.75000  1.0000
  Ga  Ga1       1.0  0.00000  0.00000  0.00000  1.0000
  Ga  Ga2       1.0  0.00000  0.00000  0.50000  1.0000
  O   O1        1.0  0.44930  0.33930  0.16520  1.0000
  O   O2        1.0  0.66070  0.11000  0.16520  1.0000
  O   O3        1.0  0.89000  0.55070  0.16520  1.0000
  O   O4        1.0  0.66070  0.55070  0.33480  1.0000
  O   O5        1.0  0.89000  0.33930  0.33480  1.0000
  O   O6        1.0  0.44930  0.11000  0.33480  1.0000
  O   O7        1.0  0.55070  0.66070  0.83480  1.0000
  O   O8        1.0  0.33930  0.89000  0.83480  1.0000
  O   O9        1.0  0.11000  0.44930  0.83480  1.0000
  O   O10       1.0  0.33930  0.44930  0.66520  1.0000
  O   O11       1.0  0.11000  0.66070  0.66520  1.0000
  O   O12       1.0  0.55070  0.89000  0.66520  1.0000
  O   O13       1.0  0.18750  0.20430  0.08022  1.0000
  O   O14       1.0  0.79570  0.98320  0.08022  1.0000
  O   O15       1.0  0.01680  0.81250  0.08022  1.0000
  O   O16       1.0  0.79570  0.81250  0.41978  1.0000
  O   O17       1.0  0.01680  0.20430  0.41978  1.0000
  O   O18       1.0  0.18750  0.98320  0.41978  1.0000
  O   O19       1.0  0.81250  0.79570  0.91978  1.0000
  O   O20       1.0  0.20430  0.01680  0.91978  1.0000
  O   O21       1.0  0.98320  0.18750  0.91978  1.0000
  O   O22       1.0  0.20430  0.18750  0.58022  1.0000
  O   O23       1.0  0.98320  0.79570  0.58022  1.0000
  O   O24       1.0  0.81250  0.01680  0.58022  1.0000
  C   C1        1.0  0.33220  0.21010  0.11460  1.0000
  C   C2        1.0  0.78990  0.12210  0.11460  1.0000
  C   C3        1.0  0.87790  0.66780  0.11460  1.0000
  C   C4        1.0  0.78990  0.66780  0.38540  1.0000
  C   C5        1.0  0.87790  0.21010  0.38540  1.0000
  C   C6        1.0  0.33220  0.12210  0.38540  1.0000
  C   C7        1.0  0.66780  0.78990  0.88540  1.0000
  C   C8        1.0  0.21010  0.87790  0.88540  1.0000
  C   C9        1.0  0.12210  0.33220  0.88540  1.0000
  C   C10       1.0  0.21010  0.33220  0.61460  1.0000
  C   C11       1.0  0.12210  0.78990  0.61460  1.0000
  C   C12       1.0  0.66780  0.87790  0.61460  1.0000
  H   H1        1.0  0.35200  0.11100  0.10110  1.0000
  H   H2        1.0  0.88900  0.24100  0.10110  1.0000
  H   H3        1.0  0.75900  0.64800  0.10110  1.0000
  H   H4        1.0  0.88900  0.64800  0.39890  1.0000
  H   H5        1.0  0.75900  0.11100  0.39890  1.0000
  H   H6        1.0  0.35200  0.24100  0.39890  1.0000
  H   H7        1.0  0.64800  0.88900  0.89890  1.0000
  H   H8        1.0  0.11100  0.75900  0.89890  1.0000
  H   H9        1.0  0.24100  0.35200  0.89890  1.0000
  H   H10       1.0  0.11100  0.35200  0.60110  1.0000
  H   H11       1.0  0.24100  0.88900  0.60110  1.0000
  H   H12       1.0  0.64800  0.75900  0.60110  1.0000
