data_image0
_chemical_formula_structural       Mn2Ga2O24C12H12
_chemical_formula_sum              "Mn2 Ga2 O24 C12 H12"
_cell_length_a       8.23
_cell_length_b       8.23
_cell_length_c       13.95
_cell_angle_alpha    90
_cell_angle_beta     90
_cell_angle_gamma    120

_space_group_name_H-M_alt    "P 1"
_space_group_IT_number       1

loop_
  _space_group_symop_operation_xyz
  'x, y, z'

loop_
  _atom_site_type_symbol
  _atom_site_label
  _atom_site_symmetry_multiplicity
  _atom_site_fract_x
  _atom_site_fract_y
  _atom_site_fract_z
  _atom_site_occupancy
  Mn  Mn1       1.0  0.66670  0.33330  0.25000  1.0000
  Mn  Mn2       1.0  0.33330  0.66670  0.75000  1.0000
  Ga  Ga1       1.0  0.00000  0.00000  0.00000  1.0000
  Ga  Ga2       1.0  0.00000  0.00000  0.50000  1.0000
  O   O1        1.0  0.44850  0.33820  0.16512  1.0000
  O   O2        1.0  0.66180  0.11030  0.16512  1.0000
  O   O3        1.0  0.88970  0.55150  0.16512  1.0000
  O   O4        1.0  0.66180  0.55150  0.33488  1.0000
  O   O5        1.0  0.88970  0.33820  0.33488  1.0000
  O   O6        1.0  0.44850  0.11030  0.33488  1.0000
  O   O7        1.0  0.55150  0.66180  0.83488  1.0000
  O   O8        1.0  0.33820  0.88970  0.83488  1.0000
  O   O9        1.0  0.11030  0.44850  0.83488  1.0000
  O   O10       1.0  0.33820  0.44850  0.66512  1.0000
  O   O11       1.0  0.11030  0.66180  0.66512  1.0000
  O   O12       1.0  0.55150  0.88970  0.66512  1.0000
  O   O13       1.0  0.18920  0.20450  0.07968  1.0000
  O   O14       1.0  0.79550  0.98470  0.07968  1.0000
  O   O15       1.0  0.01530  0.81080  0.07968  1.0000
  O   O16       1.0  0.79550  0.81080  0.42032  1.0000
  O   O17       1.0  0.01530  0.20450  0.42032  1.0000
  O   O18       1.0  0.18920  0.98470  0.42032  1.0000
  O   O19       1.0  0.81080  0.79550  0.92032  1.0000
  O   O20       1.0  0.20450  0.01530  0.92032  1.0000
  O   O21       1.0  0.98470  0.18920  0.92032  1.0000
  O   O22       1.0  0.20450  0.18920  0.57968  1.0000
  O   O23       1.0  0.98470  0.79550  0.57968  1.0000
  O   O24       1.0  0.81080  0.01530  0.57968  1.0000
  C   C1        1.0  0.33150  0.20950  0.11549  1.0000
  C   C2        1.0  0.79050  0.12200  0.11549  1.0000
  C   C3        1.0  0.87800  0.66850  0.11549  1.0000
  C   C4        1.0  0.79050  0.66850  0.38451  1.0000
  C   C5        1.0  0.87800  0.20950  0.38451  1.0000
  C   C6        1.0  0.33150  0.12200  0.38451  1.0000
  C   C7        1.0  0.66850  0.79050  0.88451  1.0000
  C   C8        1.0  0.20950  0.87800  0.88451  1.0000
  C   C9        1.0  0.12200  0.33150  0.88451  1.0000
  C   C10       1.0  0.20950  0.33150  0.61549  1.0000
  C   C11       1.0  0.12200  0.79050  0.61549  1.0000
  C   C12       1.0  0.66850  0.87800  0.61549  1.0000
  H   H1        1.0  0.34980  0.10850  0.10360  1.0000
  H   H2        1.0  0.89150  0.24130  0.10360  1.0000
  H   H3        1.0  0.75870  0.65020  0.10360  1.0000
  H   H4        1.0  0.89150  0.65020  0.39640  1.0000
  H   H5        1.0  0.75870  0.10850  0.39640  1.0000
  H   H6        1.0  0.34980  0.24130  0.39640  1.0000
  H   H7        1.0  0.65020  0.89150  0.89640  1.0000
  H   H8        1.0  0.10850  0.75870  0.89640  1.0000
  H   H9        1.0  0.24130  0.34980  0.89640  1.0000
  H   H10       1.0  0.10850  0.34980  0.60360  1.0000
  H   H11       1.0  0.24130  0.89150  0.60360  1.0000
  H   H12       1.0  0.65020  0.75870  0.60360  1.0000
