data_image0
_chemical_formula_structural       Ga2O12C12O12H12Mn2
_chemical_formula_sum              "Ga2 O24 C12 H12 Mn2"
_cell_length_a       8.2488
_cell_length_b       8.2488
_cell_length_c       14.046
_cell_angle_alpha    90
_cell_angle_beta     90
_cell_angle_gamma    120

_space_group_name_H-M_alt    "P 1"
_space_group_IT_number       1

loop_
  _space_group_symop_operation_xyz
  'x, y, z'

loop_
  _atom_site_type_symbol
  _atom_site_label
  _atom_site_symmetry_multiplicity
  _atom_site_fract_x
  _atom_site_fract_y
  _atom_site_fract_z
  _atom_site_occupancy
  Ga  Ga1       1.0  0.00000  1.00000  0.00000  1.0000
  Ga  Ga2       1.0  0.00000  0.00000  0.50000  1.0000
  O   O1        1.0  0.79650  0.81000  0.07956  1.0000
  O   O2        1.0  0.19000  0.98650  0.07956  1.0000
  O   O3        1.0  0.01350  0.20350  0.07956  1.0000
  O   O4        1.0  0.19000  0.20350  0.42044  1.0000
  O   O5        1.0  0.01350  0.81000  0.42044  1.0000
  O   O6        1.0  0.79650  0.98650  0.42044  1.0000
  O   O7        1.0  0.20350  0.19000  0.92044  1.0000
  O   O8        1.0  0.81000  0.01350  0.92044  1.0000
  O   O9        1.0  0.98650  0.79650  0.92044  1.0000
  O   O10       1.0  0.81000  0.79650  0.57956  1.0000
  O   O11       1.0  0.98650  0.19000  0.57956  1.0000
  O   O12       1.0  0.20350  0.01350  0.57956  1.0000
  C   C1        1.0  0.79280  0.66940  0.11660  1.0000
  C   C2        1.0  0.33060  0.12340  0.11660  1.0000
  C   C3        1.0  0.87660  0.20720  0.11660  1.0000
  C   C4        1.0  0.33060  0.20720  0.38340  1.0000
  C   C5        1.0  0.87660  0.66940  0.38340  1.0000
  C   C6        1.0  0.79280  0.12340  0.38340  1.0000
  C   C7        1.0  0.20720  0.33060  0.88340  1.0000
  C   C8        1.0  0.66940  0.87660  0.88340  1.0000
  C   C9        1.0  0.12340  0.79280  0.88340  1.0000
  C   C10       1.0  0.66940  0.79280  0.61660  1.0000
  C   C11       1.0  0.12340  0.33060  0.61660  1.0000
  C   C12       1.0  0.20720  0.87660  0.61660  1.0000
  O   O13       1.0  0.66380  0.55190  0.16556  1.0000
  O   O14       1.0  0.44810  0.11190  0.16556  1.0000
  O   O15       1.0  0.88810  0.33620  0.16556  1.0000
  O   O16       1.0  0.44810  0.33620  0.33444  1.0000
  O   O17       1.0  0.88810  0.55190  0.33444  1.0000
  O   O18       1.0  0.66380  0.11190  0.33444  1.0000
  O   O19       1.0  0.33620  0.44810  0.83444  1.0000
  O   O20       1.0  0.55190  0.88810  0.83444  1.0000
  O   O21       1.0  0.11190  0.66380  0.83444  1.0000
  O   O22       1.0  0.55190  0.66380  0.66556  1.0000
  O   O23       1.0  0.11190  0.44810  0.66556  1.0000
  O   O24       1.0  0.33620  0.88810  0.66556  1.0000
  H   H1        1.0  0.89500  0.65310  0.10610  1.0000
  H   H2        1.0  0.34690  0.24190  0.10610  1.0000
  H   H3        1.0  0.75810  0.10500  0.10610  1.0000
  H   H4        1.0  0.34690  0.10500  0.39390  1.0000
  H   H5        1.0  0.75810  0.65310  0.39390  1.0000
  H   H6        1.0  0.89500  0.24190  0.39390  1.0000
  H   H7        1.0  0.10500  0.34690  0.89390  1.0000
  H   H8        1.0  0.65310  0.75810  0.89390  1.0000
  H   H9        1.0  0.24190  0.89500  0.89390  1.0000
  H   H10       1.0  0.65310  0.89500  0.60610  1.0000
  H   H11       1.0  0.24190  0.34690  0.60610  1.0000
  H   H12       1.0  0.10500  0.75810  0.60610  1.0000
  Mn  Mn1       1.0  0.66670  0.33330  0.25000  1.0000
  Mn  Mn2       1.0  0.33330  0.66670  0.75000  1.0000
