data_image0
_chemical_formula_structural       GaO2C2O2H2Mn2O10C6O2H2O2H2O2H2GaO4C4H4
_chemical_formula_sum              "Ga2 O24 C12 H12 Mn2"
_cell_length_a       8.3337
_cell_length_b       8.5005
_cell_length_c       13.462
_cell_angle_alpha    88.83
_cell_angle_beta     89.26
_cell_angle_gamma    61.632

_space_group_name_H-M_alt    "P 1"
_space_group_IT_number       1

loop_
  _space_group_symop_operation_xyz
  'x, y, z'

loop_
  _atom_site_type_symbol
  _atom_site_label
  _atom_site_symmetry_multiplicity
  _atom_site_fract_x
  _atom_site_fract_y
  _atom_site_fract_z
  _atom_site_occupancy
  Ga  Ga1       1.0  0.00000  0.50000  0.50000  1.0000
  O   O1        1.0  0.18710  0.31120  0.41830  1.0000
  O   O2        1.0  0.81290  0.68880  0.58170  1.0000
  C   C1        1.0  0.33510  0.29980  0.38600  1.0000
  C   C2        1.0  0.66490  0.70020  0.61400  1.0000
  O   O3        1.0  0.45500  0.16860  0.34370  1.0000
  O   O4        1.0  0.54500  0.83140  0.65630  1.0000
  H   H1        1.0  0.35510  0.39740  0.39490  1.0000
  H   H2        1.0  0.64490  0.60260  0.60510  1.0000
  Mn  Mn1       1.0  0.68038  0.15109  0.25529  1.0000
  Mn  Mn2       1.0  0.31962  0.84891  0.74471  1.0000
  O   O5        1.0  0.47580  0.33480  0.15260  1.0000
  O   O6        1.0  0.52420  0.66520  0.84740  1.0000
  O   O7        1.0  0.88850  0.96210  0.35580  1.0000
  O   O8        1.0  0.11150  0.03790  0.64420  1.0000
  O   O9        1.0  0.67780  0.38430  0.32410  1.0000
  O   O10       1.0  0.32220  0.61570  0.67590  1.0000
  O   O11       1.0  0.89400  0.14790  0.15910  1.0000
  O   O12       1.0  0.10600  0.85210  0.84090  1.0000
  O   O13       1.0  0.70170  0.90920  0.18910  1.0000
  O   O14       1.0  0.29830  0.09080  0.81090  1.0000
  C   C3        1.0  0.32830  0.35180  0.12440  1.0000
  C   C4        1.0  0.67170  0.64820  0.87560  1.0000
  C   C5        1.0  0.87940  0.83340  0.39410  1.0000
  C   C6        1.0  0.12060  0.16660  0.60590  1.0000
  C   C7        1.0  0.80130  0.37510  0.37840  1.0000
  C   C8        1.0  0.19870  0.62490  0.62160  1.0000
  O   O15       1.0  0.21880  0.47450  0.06740  1.0000
  O   O16       1.0  0.78120  0.52550  0.93260  1.0000
  H   H3        1.0  0.29490  0.26720  0.14690  1.0000
  H   H4        1.0  0.70510  0.73280  0.85310  1.0000
  O   O17       1.0  0.01670  0.69040  0.42150  1.0000
  O   O18       1.0  0.98330  0.30960  0.57850  1.0000
  H   H5        1.0  0.76460  0.84230  0.40340  1.0000
  H   H6        1.0  0.23540  0.15770  0.59660  1.0000
  O   O19       1.0  0.80720  0.51080  0.41050  1.0000
  O   O20       1.0  0.19280  0.48920  0.58950  1.0000
  H   H7        1.0  0.89420  0.26260  0.39630  1.0000
  H   H8        1.0  0.10580  0.73740  0.60370  1.0000
  Ga  Ga2       1.0  0.00000  0.50000  0.00000  1.0000
  O   O21       1.0  0.01110  0.29460  0.07410  1.0000
  O   O22       1.0  0.98890  0.70540  0.92590  1.0000
  O   O23       1.0  0.83510  0.66030  0.10290  1.0000
  O   O24       1.0  0.16490  0.33970  0.89710  1.0000
  C   C9        1.0  0.87950  0.27720  0.10880  1.0000
  C   C10       1.0  0.12050  0.72280  0.89120  1.0000
  C   C11       1.0  0.82370  0.80580  0.13240  1.0000
  C   C12       1.0  0.17630  0.19420  0.86760  1.0000
  H   H9        1.0  0.76250  0.36860  0.09570  1.0000
  H   H10       1.0  0.23750  0.63140  0.90430  1.0000
  H   H11       1.0  0.91120  0.83710  0.11040  1.0000
  H   H12       1.0  0.08880  0.16290  0.88960  1.0000
