data_image0
_chemical_formula_structural       Mn2Ga2O24C12H12
_chemical_formula_sum              "Mn2 Ga2 O24 C12 H12"
_cell_length_a       8.2687
_cell_length_b       8.2687
_cell_length_c       13.709
_cell_angle_alpha    90
_cell_angle_beta     90
_cell_angle_gamma    120

_space_group_name_H-M_alt    "P 1"
_space_group_IT_number       1

loop_
  _space_group_symop_operation_xyz
  'x, y, z'

loop_
  _atom_site_type_symbol
  _atom_site_label
  _atom_site_symmetry_multiplicity
  _atom_site_fract_x
  _atom_site_fract_y
  _atom_site_fract_z
  _atom_site_occupancy
  Mn  Mn1       1.0  0.66670  0.33330  0.25000  1.0000
  Mn  Mn2       1.0  0.33330  0.66670  0.75000  1.0000
  Ga  Ga1       1.0  0.00000  0.00000  0.00000  1.0000
  Ga  Ga2       1.0  0.00000  0.00000  0.50000  1.0000
  O   O1        1.0  0.01822  0.20502  0.08121  1.0000
  O   O2        1.0  0.79498  0.81320  0.08121  1.0000
  O   O3        1.0  0.18680  0.98178  0.08121  1.0000
  O   O4        1.0  0.79498  0.98178  0.41879  1.0000
  O   O5        1.0  0.18680  0.20502  0.41879  1.0000
  O   O6        1.0  0.01822  0.81320  0.41879  1.0000
  O   O7        1.0  0.98178  0.79498  0.91879  1.0000
  O   O8        1.0  0.20502  0.18680  0.91879  1.0000
  O   O9        1.0  0.81320  0.01822  0.91879  1.0000
  O   O10       1.0  0.20502  0.01822  0.58121  1.0000
  O   O11       1.0  0.81320  0.79498  0.58121  1.0000
  O   O12       1.0  0.98178  0.18680  0.58121  1.0000
  O   O13       1.0  0.89020  0.34083  0.16468  1.0000
  O   O14       1.0  0.65917  0.54937  0.16468  1.0000
  O   O15       1.0  0.45063  0.10980  0.16468  1.0000
  O   O16       1.0  0.65917  0.10980  0.33532  1.0000
  O   O17       1.0  0.45063  0.34083  0.33532  1.0000
  O   O18       1.0  0.89020  0.54937  0.33532  1.0000
  O   O19       1.0  0.10980  0.65917  0.83532  1.0000
  O   O20       1.0  0.34083  0.45063  0.83532  1.0000
  O   O21       1.0  0.54937  0.89020  0.83532  1.0000
  O   O22       1.0  0.34083  0.89020  0.66468  1.0000
  O   O23       1.0  0.54937  0.65917  0.66468  1.0000
  O   O24       1.0  0.10980  0.45063  0.66468  1.0000
  C   C1        1.0  0.87891  0.20977  0.11572  1.0000
  C   C2        1.0  0.79023  0.66914  0.11572  1.0000
  C   C3        1.0  0.33086  0.12109  0.11572  1.0000
  C   C4        1.0  0.79023  0.12109  0.38428  1.0000
  C   C5        1.0  0.33086  0.20977  0.38428  1.0000
  C   C6        1.0  0.87891  0.66914  0.38428  1.0000
  C   C7        1.0  0.12109  0.79023  0.88428  1.0000
  C   C8        1.0  0.20977  0.33086  0.88428  1.0000
  C   C9        1.0  0.66914  0.87891  0.88428  1.0000
  C   C10       1.0  0.20977  0.87891  0.61572  1.0000
  C   C11       1.0  0.66914  0.79023  0.61572  1.0000
  C   C12       1.0  0.12109  0.33086  0.61572  1.0000
  H   H1        1.0  0.76070  0.10860  0.10360  1.0000
  H   H2        1.0  0.89140  0.65210  0.10360  1.0000
  H   H3        1.0  0.34790  0.23930  0.10360  1.0000
  H   H4        1.0  0.89140  0.23930  0.39640  1.0000
  H   H5        1.0  0.34790  0.10860  0.39640  1.0000
  H   H6        1.0  0.76070  0.65210  0.39640  1.0000
  H   H7        1.0  0.23930  0.89140  0.89640  1.0000
  H   H8        1.0  0.10860  0.34790  0.89640  1.0000
  H   H9        1.0  0.65210  0.76070  0.89640  1.0000
  H   H10       1.0  0.10860  0.76070  0.60360  1.0000
  H   H11       1.0  0.65210  0.89140  0.60360  1.0000
  H   H12       1.0  0.23930  0.34790  0.60360  1.0000
