data_image0
_chemical_formula_structural       Mn2Ga2O24C12H12
_chemical_formula_sum              "Mn2 Ga2 O24 C12 H12"
_cell_length_a       8.2856
_cell_length_b       8.2856
_cell_length_c       13.783
_cell_angle_alpha    90
_cell_angle_beta     90
_cell_angle_gamma    120

_space_group_name_H-M_alt    "P 1"
_space_group_IT_number       1

loop_
  _space_group_symop_operation_xyz
  'x, y, z'

loop_
  _atom_site_type_symbol
  _atom_site_label
  _atom_site_symmetry_multiplicity
  _atom_site_fract_x
  _atom_site_fract_y
  _atom_site_fract_z
  _atom_site_occupancy
  Mn  Mn1       1.0  0.66670  0.33330  0.25000  1.0000
  Mn  Mn2       1.0  0.33330  0.66670  0.75000  1.0000
  Ga  Ga1       1.0  0.00000  0.00000  0.00000  1.0000
  Ga  Ga2       1.0  0.00000  0.00000  0.50000  1.0000
  O   O1        1.0  0.66161  0.11108  0.16445  1.0000
  O   O2        1.0  0.88892  0.55053  0.16445  1.0000
  O   O3        1.0  0.44947  0.33839  0.16445  1.0000
  O   O4        1.0  0.88892  0.33839  0.33555  1.0000
  O   O5        1.0  0.44947  0.11108  0.33555  1.0000
  O   O6        1.0  0.66161  0.55053  0.33555  1.0000
  O   O7        1.0  0.33839  0.88892  0.83555  1.0000
  O   O8        1.0  0.11108  0.44947  0.83555  1.0000
  O   O9        1.0  0.55053  0.66161  0.83555  1.0000
  O   O10       1.0  0.11108  0.66161  0.66445  1.0000
  O   O11       1.0  0.55053  0.88892  0.66445  1.0000
  O   O12       1.0  0.33839  0.44947  0.66445  1.0000
  O   O13       1.0  0.79662  0.98450  0.08085  1.0000
  O   O14       1.0  0.01550  0.81212  0.08085  1.0000
  O   O15       1.0  0.18788  0.20338  0.08085  1.0000
  O   O16       1.0  0.01550  0.20338  0.41915  1.0000
  O   O17       1.0  0.18788  0.98450  0.41915  1.0000
  O   O18       1.0  0.79662  0.81212  0.41915  1.0000
  O   O19       1.0  0.20338  0.01550  0.91915  1.0000
  O   O20       1.0  0.98450  0.18788  0.91915  1.0000
  O   O21       1.0  0.81212  0.79662  0.91915  1.0000
  O   O22       1.0  0.98450  0.79662  0.58085  1.0000
  O   O23       1.0  0.81212  0.01550  0.58085  1.0000
  O   O24       1.0  0.20338  0.18788  0.58085  1.0000
  C   C1        1.0  0.79090  0.12130  0.11617  1.0000
  C   C2        1.0  0.87870  0.66960  0.11617  1.0000
  C   C3        1.0  0.33040  0.20910  0.11617  1.0000
  C   C4        1.0  0.87870  0.20910  0.38383  1.0000
  C   C5        1.0  0.33040  0.12130  0.38383  1.0000
  C   C6        1.0  0.79090  0.66960  0.38383  1.0000
  C   C7        1.0  0.20910  0.87870  0.88383  1.0000
  C   C8        1.0  0.12130  0.33040  0.88383  1.0000
  C   C9        1.0  0.66960  0.79090  0.88383  1.0000
  C   C10       1.0  0.12130  0.79090  0.61617  1.0000
  C   C11       1.0  0.66960  0.87870  0.61617  1.0000
  C   C12       1.0  0.20910  0.33040  0.61617  1.0000
  H   H1        1.0  0.89240  0.23930  0.10490  1.0000
  H   H2        1.0  0.76070  0.65310  0.10490  1.0000
  H   H3        1.0  0.34690  0.10760  0.10490  1.0000
  H   H4        1.0  0.76070  0.10760  0.39510  1.0000
  H   H5        1.0  0.34690  0.23930  0.39510  1.0000
  H   H6        1.0  0.89240  0.65310  0.39510  1.0000
  H   H7        1.0  0.10760  0.76070  0.89510  1.0000
  H   H8        1.0  0.23930  0.34690  0.89510  1.0000
  H   H9        1.0  0.65310  0.89240  0.89510  1.0000
  H   H10       1.0  0.23930  0.89240  0.60490  1.0000
  H   H11       1.0  0.65310  0.76070  0.60490  1.0000
  H   H12       1.0  0.10760  0.34690  0.60490  1.0000
