data_image0
_chemical_formula_structural       C24H8C32H8C8H16C16H16C16H16C32H8C32H8C8H16C16H16C16H16C16H8C8H8C16H8C8H8C16H8C8H8C8H8C8H8C8H8C8H8C16H8C8H8N24O184H16O8H16O8H16O8H16O8H16O8H16Zn28
_chemical_formula_sum              "C328 H320 N24 O224 Zn28"
_cell_length_a       36.709
_cell_length_b       14.468
_cell_length_c       22.856
_cell_angle_alpha    90
_cell_angle_beta     90
_cell_angle_gamma    90

_space_group_name_H-M_alt    "P 1"
_space_group_IT_number       1

loop_
  _space_group_symop_operation_xyz
  'x, y, z'

loop_
  _atom_site_type_symbol
  _atom_site_label
  _atom_site_symmetry_multiplicity
  _atom_site_fract_x
  _atom_site_fract_y
  _atom_site_fract_z
  _atom_site_occupancy
  C   C1        1.0  0.04651  0.04330  0.66940  1.0000
  C   C2        1.0  0.45349  0.45670  0.66940  1.0000
  C   C3        1.0  0.95349  0.54330  0.83060  1.0000
  C   C4        1.0  0.54651  0.95670  0.83060  1.0000
  C   C5        1.0  0.95349  0.95670  0.33060  1.0000
  C   C6        1.0  0.54651  0.54330  0.33060  1.0000
  C   C7        1.0  0.04651  0.45670  0.16940  1.0000
  C   C8        1.0  0.45349  0.04330  0.16940  1.0000
  C   C9        1.0  0.00636  0.02890  0.67520  1.0000
  C   C10       1.0  0.49364  0.47110  0.67520  1.0000
  C   C11       1.0  0.99364  0.52890  0.82480  1.0000
  C   C12       1.0  0.50636  0.97110  0.82480  1.0000
  C   C13       1.0  0.99364  0.97110  0.32480  1.0000
  C   C14       1.0  0.50636  0.52890  0.32480  1.0000
  C   C15       1.0  0.00636  0.47110  0.17520  1.0000
  C   C16       1.0  0.49364  0.02890  0.17520  1.0000
  C   C17       1.0  0.98566  0.01650  0.62510  1.0000
  C   C18       1.0  0.51434  0.48350  0.62510  1.0000
  C   C19       1.0  0.01434  0.51650  0.87490  1.0000
  C   C20       1.0  0.48566  0.98350  0.87490  1.0000
  C   C21       1.0  0.01434  0.98350  0.37490  1.0000
  C   C22       1.0  0.48566  0.51650  0.37490  1.0000
  C   C23       1.0  0.98566  0.48350  0.12510  1.0000
  C   C24       1.0  0.51434  0.01650  0.12510  1.0000
  H   H1        1.0  0.99660  0.02000  0.58850  1.0000
  H   H2        1.0  0.50340  0.48000  0.58850  1.0000
  H   H3        1.0  0.00340  0.52000  0.91150  1.0000
  H   H4        1.0  0.49660  0.98000  0.91150  1.0000
  H   H5        1.0  0.00340  0.98000  0.41150  1.0000
  H   H6        1.0  0.49660  0.52000  0.41150  1.0000
  H   H7        1.0  0.99660  0.48000  0.08850  1.0000
  H   H8        1.0  0.50340  0.02000  0.08850  1.0000
  C   C25       1.0  0.94867  0.99880  0.62940  1.0000
  C   C26       1.0  0.55133  0.50120  0.62940  1.0000
  C   C27       1.0  0.05133  0.49880  0.87060  1.0000
  C   C28       1.0  0.44867  0.00120  0.87060  1.0000
  C   C29       1.0  0.05133  0.00120  0.37060  1.0000
  C   C30       1.0  0.44867  0.49880  0.37060  1.0000
  C   C31       1.0  0.94867  0.50120  0.12940  1.0000
  C   C32       1.0  0.55133  0.99880  0.12940  1.0000
  C   C33       1.0  0.93282  0.99310  0.68410  1.0000
  C   C34       1.0  0.56718  0.50690  0.68410  1.0000
  C   C35       1.0  0.06718  0.49310  0.81590  1.0000
  C   C36       1.0  0.43282  0.00690  0.81590  1.0000
  C   C37       1.0  0.06718  0.00690  0.31590  1.0000
  C   C38       1.0  0.43282  0.49310  0.31590  1.0000
  C   C39       1.0  0.93282  0.50690  0.18410  1.0000
  C   C40       1.0  0.56718  0.99310  0.18410  1.0000
  C   C41       1.0  0.95312  0.00730  0.73390  1.0000
  C   C42       1.0  0.54688  0.49270  0.73390  1.0000
  C   C43       1.0  0.04688  0.50730  0.76610  1.0000
  C   C44       1.0  0.45312  0.99270  0.76610  1.0000
  C   C45       1.0  0.04688  0.99270  0.26610  1.0000
  C   C46       1.0  0.45312  0.50730  0.26610  1.0000
  C   C47       1.0  0.95312  0.49270  0.23390  1.0000
  C   C48       1.0  0.54688  0.00730  0.23390  1.0000
  C   C49       1.0  0.99014  0.02450  0.73040  1.0000
  C   C50       1.0  0.50986  0.47550  0.73040  1.0000
  C   C51       1.0  0.00986  0.52450  0.76960  1.0000
  C   C52       1.0  0.49014  0.97550  0.76960  1.0000
  C   C53       1.0  0.00986  0.97550  0.26960  1.0000
  C   C54       1.0  0.49014  0.52450  0.26960  1.0000
  C   C55       1.0  0.99014  0.47550  0.23040  1.0000
  C   C56       1.0  0.50986  0.02450  0.23040  1.0000
  H   H9        1.0  0.00390  0.03290  0.76410  1.0000
  H   H10       1.0  0.49610  0.46710  0.76410  1.0000
  H   H11       1.0  0.99610  0.53290  0.73590  1.0000
  H   H12       1.0  0.50390  0.96710  0.73590  1.0000
  H   H13       1.0  0.99610  0.96710  0.23590  1.0000
  H   H14       1.0  0.50390  0.53290  0.23590  1.0000
  H   H15       1.0  0.00390  0.46710  0.26410  1.0000
  H   H16       1.0  0.49610  0.03290  0.26410  1.0000
  C   C57       1.0  0.94018  0.00720  0.52620  1.0000
  C   C58       1.0  0.55982  0.49280  0.52620  1.0000
  C   C59       1.0  0.05982  0.50720  0.97380  1.0000
  C   C60       1.0  0.44018  0.99280  0.97380  1.0000
  C   C61       1.0  0.05982  0.99280  0.47380  1.0000
  C   C62       1.0  0.44018  0.50720  0.47380  1.0000
  C   C63       1.0  0.94018  0.49280  0.02620  1.0000
  C   C64       1.0  0.55982  0.00720  0.02620  1.0000
  H   H17       1.0  0.92340  0.98620  0.49630  1.0000
  H   H18       1.0  0.57660  0.51380  0.49630  1.0000
  H   H19       1.0  0.07660  0.48620  0.00370  1.0000
  H   H20       1.0  0.42340  0.01380  0.00370  1.0000
  H   H21       1.0  0.07660  0.01380  0.50370  1.0000
  H   H22       1.0  0.42340  0.48620  0.50370  1.0000
  H   H23       1.0  0.92340  0.51380  0.99630  1.0000
  H   H24       1.0  0.57660  0.98620  0.99630  1.0000
  H   H25       1.0  0.96310  0.97510  0.52060  1.0000
  H   H26       1.0  0.53690  0.52490  0.52060  1.0000
  H   H27       1.0  0.03690  0.47510  0.97940  1.0000
  H   H28       1.0  0.46310  0.02490  0.97940  1.0000
  H   H29       1.0  0.03690  0.02490  0.47940  1.0000
  H   H30       1.0  0.46310  0.47510  0.47940  1.0000
  H   H31       1.0  0.96310  0.52490  0.02060  1.0000
  H   H32       1.0  0.53690  0.97510  0.02060  1.0000
  C   C65       1.0  0.94612  0.11020  0.51990  1.0000
  C   C66       1.0  0.55388  0.38980  0.51990  1.0000
  C   C67       1.0  0.05388  0.61020  0.98010  1.0000
  C   C68       1.0  0.44612  0.88980  0.98010  1.0000
  C   C69       1.0  0.05388  0.88980  0.48010  1.0000
  C   C70       1.0  0.44612  0.61020  0.48010  1.0000
  C   C71       1.0  0.94612  0.38980  0.01990  1.0000
  C   C72       1.0  0.55388  0.11020  0.01990  1.0000
  C   C73       1.0  0.88416  0.88450  0.67350  1.0000
  C   C74       1.0  0.61584  0.61550  0.67350  1.0000
  C   C75       1.0  0.11584  0.38450  0.82650  1.0000
  C   C76       1.0  0.38416  0.11550  0.82650  1.0000
  C   C77       1.0  0.11584  0.11550  0.32650  1.0000
  C   C78       1.0  0.38416  0.38450  0.32650  1.0000
  C   C79       1.0  0.88416  0.61550  0.17350  1.0000
  C   C80       1.0  0.61584  0.88450  0.17350  1.0000
  H   H33       1.0  0.90240  0.85730  0.64810  1.0000
  H   H34       1.0  0.59760  0.64270  0.64810  1.0000
  H   H35       1.0  0.09760  0.35730  0.85190  1.0000
  H   H36       1.0  0.40240  0.14270  0.85190  1.0000
  H   H37       1.0  0.09760  0.14270  0.35190  1.0000
  H   H38       1.0  0.40240  0.35730  0.35190  1.0000
  H   H39       1.0  0.90240  0.64270  0.14810  1.0000
  H   H40       1.0  0.59760  0.85730  0.14810  1.0000
  H   H41       1.0  0.86140  0.88750  0.65190  1.0000
  H   H42       1.0  0.63860  0.61250  0.65190  1.0000
  H   H43       1.0  0.13860  0.38750  0.84810  1.0000
  H   H44       1.0  0.36140  0.11250  0.84810  1.0000
  H   H45       1.0  0.13860  0.11250  0.34810  1.0000
  H   H46       1.0  0.36140  0.38750  0.34810  1.0000
  H   H47       1.0  0.86140  0.61250  0.15190  1.0000
  H   H48       1.0  0.63860  0.88750  0.15190  1.0000
  C   C81       1.0  0.87919  0.82390  0.72720  1.0000
  C   C82       1.0  0.62081  0.67610  0.72720  1.0000
  C   C83       1.0  0.12081  0.32390  0.77280  1.0000
  C   C84       1.0  0.37919  0.17610  0.77280  1.0000
  C   C85       1.0  0.12081  0.17610  0.27280  1.0000
  C   C86       1.0  0.37919  0.32390  0.27280  1.0000
  C   C87       1.0  0.87919  0.67610  0.22720  1.0000
  C   C88       1.0  0.62081  0.82390  0.22720  1.0000
  C   C89       1.0  0.95023  0.02800  0.83900  1.0000
  C   C90       1.0  0.54977  0.47200  0.83900  1.0000
  C   C91       1.0  0.04977  0.52800  0.66100  1.0000
  C   C92       1.0  0.45023  0.97200  0.66100  1.0000
  C   C93       1.0  0.04977  0.97200  0.16100  1.0000
  C   C94       1.0  0.45023  0.52800  0.16100  1.0000
  C   C95       1.0  0.95023  0.47200  0.33900  1.0000
  C   C96       1.0  0.54977  0.02800  0.33900  1.0000
  H   H49       1.0  0.95820  0.09180  0.83750  1.0000
  H   H50       1.0  0.54180  0.40820  0.83750  1.0000
  H   H51       1.0  0.04180  0.59180  0.66250  1.0000
  H   H52       1.0  0.45820  0.90820  0.66250  1.0000
  H   H53       1.0  0.04180  0.90820  0.16250  1.0000
  H   H54       1.0  0.45820  0.59180  0.16250  1.0000
  H   H55       1.0  0.95820  0.40820  0.33750  1.0000
  H   H56       1.0  0.54180  0.09180  0.33750  1.0000
  H   H57       1.0  0.97120  0.98920  0.84700  1.0000
  H   H58       1.0  0.52880  0.51080  0.84700  1.0000
  H   H59       1.0  0.02880  0.48920  0.65300  1.0000
  H   H60       1.0  0.47120  0.01080  0.65300  1.0000
  H   H61       1.0  0.02880  0.01080  0.15300  1.0000
  H   H62       1.0  0.47120  0.48920  0.15300  1.0000
  H   H63       1.0  0.97120  0.51080  0.34700  1.0000
  H   H64       1.0  0.52880  0.98920  0.34700  1.0000
  C   C97       1.0  0.92189  0.01580  0.88620  1.0000
  C   C98       1.0  0.57811  0.48420  0.88620  1.0000
  C   C99       1.0  0.07811  0.51580  0.61380  1.0000
  C   C100      1.0  0.42189  0.98420  0.61380  1.0000
  C   C101      1.0  0.07811  0.98420  0.11380  1.0000
  C   C102      1.0  0.42189  0.51580  0.11380  1.0000
  C   C103      1.0  0.92189  0.48420  0.38620  1.0000
  C   C104      1.0  0.57811  0.01580  0.38620  1.0000
  C   C105      1.0  0.29867  0.01570  0.72430  1.0000
  C   C106      1.0  0.20133  0.48430  0.72430  1.0000
  C   C107      1.0  0.70133  0.51570  0.77570  1.0000
  C   C108      1.0  0.79867  0.98430  0.77570  1.0000
  C   C109      1.0  0.70133  0.98430  0.27570  1.0000
  C   C110      1.0  0.79867  0.51570  0.27570  1.0000
  C   C111      1.0  0.29867  0.48430  0.22430  1.0000
  C   C112      1.0  0.20133  0.01570  0.22430  1.0000
  C   C113      1.0  0.25770  0.01020  0.72110  1.0000
  C   C114      1.0  0.24230  0.48980  0.72110  1.0000
  C   C115      1.0  0.74230  0.51020  0.77890  1.0000
  C   C116      1.0  0.75770  0.98980  0.77890  1.0000
  C   C117      1.0  0.74230  0.98980  0.27890  1.0000
  C   C118      1.0  0.75770  0.51020  0.27890  1.0000
  C   C119      1.0  0.25770  0.48980  0.22110  1.0000
  C   C120      1.0  0.24230  0.01020  0.22110  1.0000
  C   C121      1.0  0.23903  0.01220  0.66850  1.0000
  C   C122      1.0  0.26097  0.48780  0.66850  1.0000
  C   C123      1.0  0.76097  0.51220  0.83150  1.0000
  C   C124      1.0  0.73903  0.98780  0.83150  1.0000
  C   C125      1.0  0.76097  0.98780  0.33150  1.0000
  C   C126      1.0  0.73903  0.51220  0.33150  1.0000
  C   C127      1.0  0.23903  0.48780  0.16850  1.0000
  C   C128      1.0  0.26097  0.01220  0.16850  1.0000
  H   H65       1.0  0.25160  0.01730  0.63330  1.0000
  H   H66       1.0  0.24840  0.48270  0.63330  1.0000
  H   H67       1.0  0.74840  0.51730  0.86670  1.0000
  H   H68       1.0  0.75160  0.98270  0.86670  1.0000
  H   H69       1.0  0.74840  0.98270  0.36670  1.0000
  H   H70       1.0  0.75160  0.51730  0.36670  1.0000
  H   H71       1.0  0.25160  0.48270  0.13330  1.0000
  H   H72       1.0  0.24840  0.01730  0.13330  1.0000
  C   C129      1.0  0.20152  0.00650  0.66910  1.0000
  C   C130      1.0  0.29848  0.49350  0.66910  1.0000
  C   C131      1.0  0.79848  0.50650  0.83090  1.0000
  C   C132      1.0  0.70152  0.99350  0.83090  1.0000
  C   C133      1.0  0.79848  0.99350  0.33090  1.0000
  C   C134      1.0  0.70152  0.50650  0.33090  1.0000
  C   C135      1.0  0.20152  0.49350  0.16910  1.0000
  C   C136      1.0  0.29848  0.00650  0.16910  1.0000
  C   C137      1.0  0.18287  0.99360  0.72160  1.0000
  C   C138      1.0  0.31713  0.50640  0.72160  1.0000
  C   C139      1.0  0.81713  0.49360  0.77840  1.0000
  C   C140      1.0  0.68287  0.00640  0.77840  1.0000
  C   C141      1.0  0.81713  0.00640  0.27840  1.0000
  C   C142      1.0  0.68287  0.49360  0.27840  1.0000
  C   C143      1.0  0.18287  0.50640  0.22160  1.0000
  C   C144      1.0  0.31713  0.99360  0.22160  1.0000
  C   C145      1.0  0.20179  0.99390  0.77450  1.0000
  C   C146      1.0  0.29821  0.50610  0.77450  1.0000
  C   C147      1.0  0.79821  0.49390  0.72550  1.0000
  C   C148      1.0  0.70179  0.00610  0.72550  1.0000
  C   C149      1.0  0.79821  0.00610  0.22550  1.0000
  C   C150      1.0  0.70179  0.49390  0.22550  1.0000
  C   C151      1.0  0.20179  0.50610  0.27450  1.0000
  C   C152      1.0  0.29821  0.99390  0.27450  1.0000
  C   C153      1.0  0.23945  0.00180  0.77370  1.0000
  C   C154      1.0  0.26055  0.49820  0.77370  1.0000
  C   C155      1.0  0.76055  0.50180  0.72630  1.0000
  C   C156      1.0  0.73945  0.99820  0.72630  1.0000
  C   C157      1.0  0.76055  0.99820  0.22630  1.0000
  C   C158      1.0  0.73945  0.50180  0.22630  1.0000
  C   C159      1.0  0.23945  0.49820  0.27370  1.0000
  C   C160      1.0  0.26055  0.00180  0.27370  1.0000
  H   H73       1.0  0.25240  0.00140  0.80860  1.0000
  H   H74       1.0  0.24760  0.49860  0.80860  1.0000
  H   H75       1.0  0.74760  0.50140  0.69140  1.0000
  H   H76       1.0  0.75240  0.99860  0.69140  1.0000
  H   H77       1.0  0.74760  0.99860  0.19140  1.0000
  H   H78       1.0  0.75240  0.50140  0.19140  1.0000
  H   H79       1.0  0.25240  0.49860  0.30860  1.0000
  H   H80       1.0  0.24760  0.00140  0.30860  1.0000
  C   C161      1.0  0.19194  0.04240  0.56710  1.0000
  C   C162      1.0  0.30806  0.45760  0.56710  1.0000
  C   C163      1.0  0.80806  0.54240  0.93290  1.0000
  C   C164      1.0  0.69194  0.95760  0.93290  1.0000
  C   C165      1.0  0.80806  0.95760  0.43290  1.0000
  C   C166      1.0  0.69194  0.54240  0.43290  1.0000
  C   C167      1.0  0.19194  0.45760  0.06710  1.0000
  C   C168      1.0  0.30806  0.04240  0.06710  1.0000
  H   H81       1.0  0.20440  0.99380  0.54570  1.0000
  H   H82       1.0  0.29560  0.50620  0.54570  1.0000
  H   H83       1.0  0.79560  0.49380  0.95430  1.0000
  H   H84       1.0  0.70440  0.00620  0.95430  1.0000
  H   H85       1.0  0.79560  0.00620  0.45430  1.0000
  H   H86       1.0  0.70440  0.49380  0.45430  1.0000
  H   H87       1.0  0.20440  0.50620  0.04570  1.0000
  H   H88       1.0  0.29560  0.99380  0.04570  1.0000
  H   H89       1.0  0.20900  0.09270  0.57340  1.0000
  H   H90       1.0  0.29100  0.40730  0.57340  1.0000
  H   H91       1.0  0.79100  0.59270  0.92660  1.0000
  H   H92       1.0  0.70900  0.90730  0.92660  1.0000
  H   H93       1.0  0.79100  0.90730  0.42660  1.0000
  H   H94       1.0  0.70900  0.59270  0.42660  1.0000
  H   H95       1.0  0.20900  0.40730  0.07340  1.0000
  H   H96       1.0  0.29100  0.09270  0.07340  1.0000
  C   C169      1.0  0.15954  0.07620  0.53260  1.0000
  C   C170      1.0  0.34046  0.42380  0.53260  1.0000
  C   C171      1.0  0.84046  0.57620  0.96740  1.0000
  C   C172      1.0  0.65954  0.92380  0.96740  1.0000
  C   C173      1.0  0.84046  0.92380  0.46740  1.0000
  C   C174      1.0  0.65954  0.57620  0.46740  1.0000
  C   C175      1.0  0.15954  0.42380  0.03260  1.0000
  C   C176      1.0  0.34046  0.07620  0.03260  1.0000
  C   C177      1.0  0.13375  0.88880  0.72560  1.0000
  C   C178      1.0  0.36625  0.61120  0.72560  1.0000
  C   C179      1.0  0.86625  0.38880  0.77440  1.0000
  C   C180      1.0  0.63375  0.11120  0.77440  1.0000
  C   C181      1.0  0.86625  0.11120  0.27440  1.0000
  C   C182      1.0  0.63375  0.38880  0.27440  1.0000
  C   C183      1.0  0.13375  0.61120  0.22560  1.0000
  C   C184      1.0  0.36625  0.88880  0.22560  1.0000
  H   H97       1.0  0.11410  0.88470  0.75380  1.0000
  H   H98       1.0  0.38590  0.61530  0.75380  1.0000
  H   H99       1.0  0.88590  0.38470  0.74620  1.0000
  H   H100      1.0  0.61410  0.11530  0.74620  1.0000
  H   H101      1.0  0.88590  0.11530  0.24620  1.0000
  H   H102      1.0  0.61410  0.38470  0.24620  1.0000
  H   H103      1.0  0.11410  0.61530  0.25380  1.0000
  H   H104      1.0  0.38590  0.88470  0.25380  1.0000
  H   H105      1.0  0.15380  0.85160  0.73990  1.0000
  H   H106      1.0  0.34620  0.64840  0.73990  1.0000
  H   H107      1.0  0.84620  0.35160  0.76010  1.0000
  H   H108      1.0  0.65380  0.14840  0.76010  1.0000
  H   H109      1.0  0.84620  0.14840  0.26010  1.0000
  H   H110      1.0  0.65380  0.35160  0.26010  1.0000
  H   H111      1.0  0.15380  0.64840  0.23990  1.0000
  H   H112      1.0  0.34620  0.85160  0.23990  1.0000
  C   C185      1.0  0.12087  0.85050  0.66740  1.0000
  C   C186      1.0  0.37913  0.64950  0.66740  1.0000
  C   C187      1.0  0.87913  0.35050  0.83260  1.0000
  C   C188      1.0  0.62087  0.14950  0.83260  1.0000
  C   C189      1.0  0.87913  0.14950  0.33260  1.0000
  C   C190      1.0  0.62087  0.35050  0.33260  1.0000
  C   C191      1.0  0.12087  0.64950  0.16740  1.0000
  C   C192      1.0  0.37913  0.85050  0.16740  1.0000
  C   C193      1.0  0.19970  0.97030  0.87750  1.0000
  C   C194      1.0  0.30030  0.52970  0.87750  1.0000
  C   C195      1.0  0.80030  0.47030  0.62250  1.0000
  C   C196      1.0  0.69970  0.02970  0.62250  1.0000
  C   C197      1.0  0.80030  0.02970  0.12250  1.0000
  C   C198      1.0  0.69970  0.47030  0.12250  1.0000
  C   C199      1.0  0.19970  0.52970  0.37750  1.0000
  C   C200      1.0  0.30030  0.97030  0.37750  1.0000
  H   H113      1.0  0.21530  0.91670  0.87280  1.0000
  H   H114      1.0  0.28470  0.58330  0.87280  1.0000
  H   H115      1.0  0.78470  0.41670  0.62720  1.0000
  H   H116      1.0  0.71530  0.08330  0.62720  1.0000
  H   H117      1.0  0.78470  0.08330  0.12720  1.0000
  H   H118      1.0  0.71530  0.41670  0.12720  1.0000
  H   H119      1.0  0.21530  0.58330  0.37280  1.0000
  H   H120      1.0  0.28470  0.91670  0.37280  1.0000
  H   H121      1.0  0.18190  0.95550  0.90750  1.0000
  H   H122      1.0  0.31810  0.54450  0.90750  1.0000
  H   H123      1.0  0.81810  0.45550  0.59250  1.0000
  H   H124      1.0  0.68190  0.04450  0.59250  1.0000
  H   H125      1.0  0.81810  0.04450  0.09250  1.0000
  H   H126      1.0  0.68190  0.45550  0.09250  1.0000
  H   H127      1.0  0.18190  0.54450  0.40750  1.0000
  H   H128      1.0  0.31810  0.95550  0.40750  1.0000
  C   C201      1.0  0.22287  0.05080  0.89890  1.0000
  C   C202      1.0  0.27713  0.44920  0.89890  1.0000
  C   C203      1.0  0.77713  0.55080  0.60110  1.0000
  C   C204      1.0  0.72287  0.94920  0.60110  1.0000
  C   C205      1.0  0.77713  0.94920  0.10110  1.0000
  C   C206      1.0  0.72287  0.55080  0.10110  1.0000
  C   C207      1.0  0.22287  0.44920  0.39890  1.0000
  C   C208      1.0  0.27713  0.05080  0.39890  1.0000
  C   C209      1.0  0.03130  0.28160  0.38010  1.0000
  C   C210      1.0  0.46870  0.21840  0.38010  1.0000
  C   C211      1.0  0.96870  0.78160  0.11990  1.0000
  C   C212      1.0  0.53130  0.71840  0.11990  1.0000
  C   C213      1.0  0.96870  0.71840  0.61990  1.0000
  C   C214      1.0  0.53130  0.78160  0.61990  1.0000
  C   C215      1.0  0.03130  0.21840  0.88010  1.0000
  C   C216      1.0  0.46870  0.28160  0.88010  1.0000
  H   H129      1.0  0.05140  0.30730  0.39890  1.0000
  H   H130      1.0  0.44860  0.19270  0.39890  1.0000
  H   H131      1.0  0.94860  0.80730  0.10110  1.0000
  H   H132      1.0  0.55140  0.69270  0.10110  1.0000
  H   H133      1.0  0.94860  0.69270  0.60110  1.0000
  H   H134      1.0  0.55140  0.80730  0.60110  1.0000
  H   H135      1.0  0.05140  0.19270  0.89890  1.0000
  H   H136      1.0  0.44860  0.30730  0.89890  1.0000
  C   C217      1.0  0.03203  0.27530  0.32060  1.0000
  C   C218      1.0  0.46797  0.22470  0.32060  1.0000
  C   C219      1.0  0.96797  0.77530  0.17940  1.0000
  C   C220      1.0  0.53203  0.72470  0.17940  1.0000
  C   C221      1.0  0.96797  0.72470  0.67940  1.0000
  C   C222      1.0  0.53203  0.77530  0.67940  1.0000
  C   C223      1.0  0.03203  0.22470  0.82060  1.0000
  C   C224      1.0  0.46797  0.27530  0.82060  1.0000
  H   H137      1.0  0.05210  0.29680  0.30000  1.0000
  H   H138      1.0  0.44790  0.20320  0.30000  1.0000
  H   H139      1.0  0.94790  0.79680  0.20000  1.0000
  H   H140      1.0  0.55210  0.70320  0.20000  1.0000
  H   H141      1.0  0.94790  0.70320  0.70000  1.0000
  H   H142      1.0  0.55210  0.79680  0.70000  1.0000
  H   H143      1.0  0.05210  0.20320  0.80000  1.0000
  H   H144      1.0  0.44790  0.29680  0.80000  1.0000
  C   C225      1.0  0.00293  0.23710  0.29110  1.0000
  C   C226      1.0  0.49707  0.26290  0.29110  1.0000
  C   C227      1.0  0.99707  0.73710  0.20890  1.0000
  C   C228      1.0  0.50293  0.76290  0.20890  1.0000
  C   C229      1.0  0.99707  0.76290  0.70890  1.0000
  C   C230      1.0  0.50293  0.73710  0.70890  1.0000
  C   C231      1.0  0.00293  0.26290  0.79110  1.0000
  C   C232      1.0  0.49707  0.23710  0.79110  1.0000
  C   C233      1.0  0.97383  0.20650  0.32440  1.0000
  C   C234      1.0  0.52617  0.29350  0.32440  1.0000
  C   C235      1.0  0.02617  0.70650  0.17560  1.0000
  C   C236      1.0  0.47383  0.79350  0.17560  1.0000
  C   C237      1.0  0.02617  0.79350  0.67560  1.0000
  C   C238      1.0  0.47383  0.70650  0.67560  1.0000
  C   C239      1.0  0.97383  0.29350  0.82440  1.0000
  C   C240      1.0  0.52617  0.20650  0.82440  1.0000
  H   H145      1.0  0.95370  0.17970  0.30650  1.0000
  H   H146      1.0  0.54630  0.32030  0.30650  1.0000
  H   H147      1.0  0.04630  0.67970  0.19350  1.0000
  H   H148      1.0  0.45370  0.82030  0.19350  1.0000
  H   H149      1.0  0.04630  0.82030  0.69350  1.0000
  H   H150      1.0  0.45370  0.67970  0.69350  1.0000
  H   H151      1.0  0.95370  0.32030  0.80650  1.0000
  H   H152      1.0  0.54630  0.17970  0.80650  1.0000
  C   C241      1.0  0.97505  0.21610  0.38440  1.0000
  C   C242      1.0  0.52495  0.28390  0.38440  1.0000
  C   C243      1.0  0.02495  0.71610  0.11560  1.0000
  C   C244      1.0  0.47505  0.78390  0.11560  1.0000
  C   C245      1.0  0.02495  0.78390  0.61560  1.0000
  C   C246      1.0  0.47505  0.71610  0.61560  1.0000
  C   C247      1.0  0.97505  0.28390  0.88440  1.0000
  C   C248      1.0  0.52495  0.21610  0.88440  1.0000
  H   H153      1.0  0.95520  0.19590  0.40630  1.0000
  H   H154      1.0  0.54480  0.30410  0.40630  1.0000
  H   H155      1.0  0.04480  0.69590  0.09370  1.0000
  H   H156      1.0  0.45520  0.80410  0.09370  1.0000
  H   H157      1.0  0.04480  0.80410  0.59370  1.0000
  H   H158      1.0  0.45520  0.69590  0.59370  1.0000
  H   H159      1.0  0.95520  0.30410  0.90630  1.0000
  H   H160      1.0  0.54480  0.19590  0.90630  1.0000
  C   C249      1.0  0.00195  0.23140  0.22640  1.0000
  C   C250      1.0  0.49805  0.26860  0.22640  1.0000
  C   C251      1.0  0.99805  0.73140  0.27360  1.0000
  C   C252      1.0  0.50195  0.76860  0.27360  1.0000
  C   C253      1.0  0.99805  0.76860  0.77360  1.0000
  C   C254      1.0  0.50195  0.73140  0.77360  1.0000
  C   C255      1.0  0.00195  0.26860  0.72640  1.0000
  C   C256      1.0  0.49805  0.23140  0.72640  1.0000
  C   C257      1.0  0.03315  0.21680  0.19360  1.0000
  C   C258      1.0  0.46685  0.28320  0.19360  1.0000
  C   C259      1.0  0.96685  0.71680  0.30640  1.0000
  C   C260      1.0  0.53315  0.78320  0.30640  1.0000
  C   C261      1.0  0.96685  0.78320  0.80640  1.0000
  C   C262      1.0  0.53315  0.71680  0.80640  1.0000
  C   C263      1.0  0.03315  0.28320  0.69360  1.0000
  C   C264      1.0  0.46685  0.21680  0.69360  1.0000
  H   H161      1.0  0.05530  0.20780  0.21260  1.0000
  H   H162      1.0  0.44470  0.29220  0.21260  1.0000
  H   H163      1.0  0.94470  0.70780  0.28740  1.0000
  H   H164      1.0  0.55530  0.79220  0.28740  1.0000
  H   H165      1.0  0.94470  0.79220  0.78740  1.0000
  H   H166      1.0  0.55530  0.70780  0.78740  1.0000
  H   H167      1.0  0.05530  0.29220  0.71260  1.0000
  H   H168      1.0  0.44470  0.20780  0.71260  1.0000
  C   C265      1.0  0.03215  0.21510  0.13390  1.0000
  C   C266      1.0  0.46785  0.28490  0.13390  1.0000
  C   C267      1.0  0.96785  0.71510  0.36610  1.0000
  C   C268      1.0  0.53215  0.78490  0.36610  1.0000
  C   C269      1.0  0.96785  0.78490  0.86610  1.0000
  C   C270      1.0  0.53215  0.71510  0.86610  1.0000
  C   C271      1.0  0.03215  0.28490  0.63390  1.0000
  C   C272      1.0  0.46785  0.21510  0.63390  1.0000
  H   H169      1.0  0.05380  0.20530  0.11360  1.0000
  H   H170      1.0  0.44620  0.29470  0.11360  1.0000
  H   H171      1.0  0.94620  0.70530  0.38640  1.0000
  H   H172      1.0  0.55380  0.79470  0.38640  1.0000
  H   H173      1.0  0.94620  0.79470  0.88640  1.0000
  H   H174      1.0  0.55380  0.70530  0.88640  1.0000
  H   H175      1.0  0.05380  0.29470  0.61360  1.0000
  H   H176      1.0  0.44620  0.20530  0.61360  1.0000
  C   C273      1.0  0.97094  0.24050  0.13450  1.0000
  C   C274      1.0  0.52906  0.25950  0.13450  1.0000
  C   C275      1.0  0.02906  0.74050  0.36550  1.0000
  C   C276      1.0  0.47094  0.75950  0.36550  1.0000
  C   C277      1.0  0.02906  0.75950  0.86550  1.0000
  C   C278      1.0  0.47094  0.74050  0.86550  1.0000
  C   C279      1.0  0.97094  0.25950  0.63450  1.0000
  C   C280      1.0  0.52906  0.24050  0.63450  1.0000
  H   H177      1.0  0.94920  0.24870  0.11440  1.0000
  H   H178      1.0  0.55080  0.25130  0.11440  1.0000
  H   H179      1.0  0.05080  0.74870  0.38560  1.0000
  H   H180      1.0  0.44920  0.75130  0.38560  1.0000
  H   H181      1.0  0.05080  0.75130  0.88560  1.0000
  H   H182      1.0  0.44920  0.74870  0.88560  1.0000
  H   H183      1.0  0.94920  0.25130  0.61440  1.0000
  H   H184      1.0  0.55080  0.24870  0.61440  1.0000
  C   C281      1.0  0.96998  0.24280  0.19480  1.0000
  C   C282      1.0  0.53002  0.25720  0.19480  1.0000
  C   C283      1.0  0.03002  0.74280  0.30520  1.0000
  C   C284      1.0  0.46998  0.75720  0.30520  1.0000
  C   C285      1.0  0.03002  0.75720  0.80520  1.0000
  C   C286      1.0  0.46998  0.74280  0.80520  1.0000
  C   C287      1.0  0.96998  0.25720  0.69480  1.0000
  C   C288      1.0  0.53002  0.24280  0.69480  1.0000
  H   H185      1.0  0.94800  0.25190  0.21420  1.0000
  H   H186      1.0  0.55200  0.24810  0.21420  1.0000
  H   H187      1.0  0.05200  0.75190  0.28580  1.0000
  H   H188      1.0  0.44800  0.74810  0.28580  1.0000
  H   H189      1.0  0.05200  0.74810  0.78580  1.0000
  H   H190      1.0  0.44800  0.75190  0.78580  1.0000
  H   H191      1.0  0.94800  0.24810  0.71420  1.0000
  H   H192      1.0  0.55200  0.25190  0.71420  1.0000
  C   C289      1.0  0.21919  0.24270  0.76300  1.0000
  C   C290      1.0  0.28081  0.25730  0.76300  1.0000
  C   C291      1.0  0.78081  0.74270  0.73700  1.0000
  C   C292      1.0  0.71919  0.75730  0.73700  1.0000
  C   C293      1.0  0.78081  0.75730  0.23700  1.0000
  C   C294      1.0  0.71919  0.74270  0.23700  1.0000
  C   C295      1.0  0.21919  0.25730  0.26300  1.0000
  C   C296      1.0  0.28081  0.24270  0.26300  1.0000
  H   H193      1.0  0.19740  0.23670  0.78330  1.0000
  H   H194      1.0  0.30260  0.26330  0.78330  1.0000
  H   H195      1.0  0.80260  0.73670  0.71670  1.0000
  H   H196      1.0  0.69740  0.76330  0.71670  1.0000
  H   H197      1.0  0.80260  0.76330  0.21670  1.0000
  H   H198      1.0  0.69740  0.73670  0.21670  1.0000
  H   H199      1.0  0.19740  0.26330  0.28330  1.0000
  H   H200      1.0  0.30260  0.23670  0.28330  1.0000
  C   C297      1.0  0.21784  0.24340  0.70260  1.0000
  C   C298      1.0  0.28216  0.25660  0.70260  1.0000
  C   C299      1.0  0.78216  0.74340  0.79740  1.0000
  C   C300      1.0  0.71784  0.75660  0.79740  1.0000
  C   C301      1.0  0.78216  0.75660  0.29740  1.0000
  C   C302      1.0  0.71784  0.74340  0.29740  1.0000
  C   C303      1.0  0.21784  0.25660  0.20260  1.0000
  C   C304      1.0  0.28216  0.24340  0.20260  1.0000
  H   H201      1.0  0.19560  0.23950  0.68330  1.0000
  H   H202      1.0  0.30440  0.26050  0.68330  1.0000
  H   H203      1.0  0.80440  0.73950  0.81670  1.0000
  H   H204      1.0  0.69560  0.76050  0.81670  1.0000
  H   H205      1.0  0.80440  0.76050  0.31670  1.0000
  H   H206      1.0  0.69560  0.73950  0.31670  1.0000
  H   H207      1.0  0.19560  0.26050  0.18330  1.0000
  H   H208      1.0  0.30440  0.23950  0.18330  1.0000
  C   C305      1.0  0.25000  0.25000  0.67090  1.0000
  C   C306      1.0  0.75000  0.75000  0.82910  1.0000
  C   C307      1.0  0.75000  0.75000  0.32910  1.0000
  C   C308      1.0  0.25000  0.25000  0.17090  1.0000
  C   C309      1.0  0.25000  0.25000  0.60630  1.0000
  C   C310      1.0  0.75000  0.75000  0.89370  1.0000
  C   C311      1.0  0.75000  0.75000  0.39370  1.0000
  C   C312      1.0  0.25000  0.25000  0.10630  1.0000
  C   C313      1.0  0.22199  0.29000  0.57380  1.0000
  C   C314      1.0  0.27801  0.21000  0.57380  1.0000
  C   C315      1.0  0.77801  0.79000  0.92620  1.0000
  C   C316      1.0  0.72199  0.71000  0.92620  1.0000
  C   C317      1.0  0.77801  0.71000  0.42620  1.0000
  C   C318      1.0  0.72199  0.79000  0.42620  1.0000
  C   C319      1.0  0.22199  0.21000  0.07380  1.0000
  C   C320      1.0  0.27801  0.29000  0.07380  1.0000
  H   H209      1.0  0.20230  0.31720  0.59290  1.0000
  H   H210      1.0  0.29770  0.18280  0.59290  1.0000
  H   H211      1.0  0.79770  0.81720  0.90710  1.0000
  H   H212      1.0  0.70230  0.68280  0.90710  1.0000
  H   H213      1.0  0.79770  0.68280  0.40710  1.0000
  H   H214      1.0  0.70230  0.81720  0.40710  1.0000
  H   H215      1.0  0.20230  0.18280  0.09290  1.0000
  H   H216      1.0  0.29770  0.31720  0.09290  1.0000
  C   C321      1.0  0.22333  0.28950  0.51340  1.0000
  C   C322      1.0  0.27667  0.21050  0.51340  1.0000
  C   C323      1.0  0.77667  0.78950  0.98660  1.0000
  C   C324      1.0  0.72333  0.71050  0.98660  1.0000
  C   C325      1.0  0.77667  0.71050  0.48660  1.0000
  C   C326      1.0  0.72333  0.78950  0.48660  1.0000
  C   C327      1.0  0.22333  0.21050  0.01340  1.0000
  C   C328      1.0  0.27667  0.28950  0.01340  1.0000
  H   H217      1.0  0.20450  0.31840  0.49310  1.0000
  H   H218      1.0  0.29550  0.18160  0.49310  1.0000
  H   H219      1.0  0.79550  0.81840  0.00690  1.0000
  H   H220      1.0  0.70450  0.68160  0.00690  1.0000
  H   H221      1.0  0.79550  0.68160  0.50690  1.0000
  H   H222      1.0  0.70450  0.81840  0.50690  1.0000
  H   H223      1.0  0.20450  0.18160  0.99310  1.0000
  H   H224      1.0  0.29550  0.31840  0.99310  1.0000
  N   N1        1.0  0.00359  0.25310  0.41290  1.0000
  N   N2        1.0  0.49641  0.24690  0.41290  1.0000
  N   N3        1.0  0.99641  0.75310  0.08710  1.0000
  N   N4        1.0  0.50359  0.74690  0.08710  1.0000
  N   N5        1.0  0.99641  0.74690  0.58710  1.0000
  N   N6        1.0  0.50359  0.75310  0.58710  1.0000
  N   N7        1.0  0.00359  0.24690  0.91290  1.0000
  N   N8        1.0  0.49641  0.25310  0.91290  1.0000
  N   N9        1.0  0.00132  0.22720  0.10325  1.0000
  N   N10       1.0  0.49868  0.27280  0.10325  1.0000
  N   N11       1.0  0.99868  0.72720  0.39675  1.0000
  N   N12       1.0  0.50132  0.77280  0.39675  1.0000
  N   N13       1.0  0.99868  0.77280  0.89675  1.0000
  N   N14       1.0  0.50132  0.72720  0.89675  1.0000
  N   N15       1.0  0.00132  0.27280  0.60325  1.0000
  N   N16       1.0  0.49868  0.22720  0.60325  1.0000
  N   N17       1.0  0.25000  0.25000  0.79410  1.0000
  N   N18       1.0  0.75000  0.75000  0.70590  1.0000
  N   N19       1.0  0.75000  0.75000  0.20590  1.0000
  N   N20       1.0  0.25000  0.25000  0.29410  1.0000
  N   N21       1.0  0.25000  0.25000  0.48210  1.0000
  N   N22       1.0  0.75000  0.75000  0.01790  1.0000
  N   N23       1.0  0.75000  0.75000  0.51790  1.0000
  N   N24       1.0  0.25000  0.25000  0.98210  1.0000
  O   O1        1.0  0.05961  0.06270  0.61959  1.0000
  O   O2        1.0  0.44039  0.43730  0.61959  1.0000
  O   O3        1.0  0.94039  0.56270  0.88041  1.0000
  O   O4        1.0  0.55961  0.93730  0.88041  1.0000
  O   O5        1.0  0.94039  0.93730  0.38041  1.0000
  O   O6        1.0  0.55961  0.56270  0.38041  1.0000
  O   O7        1.0  0.05961  0.43730  0.11959  1.0000
  O   O8        1.0  0.44039  0.06270  0.11959  1.0000
  O   O9        1.0  0.06671  0.03280  0.71280  1.0000
  O   O10       1.0  0.43329  0.46720  0.71280  1.0000
  O   O11       1.0  0.93329  0.53280  0.78720  1.0000
  O   O12       1.0  0.56671  0.96720  0.78720  1.0000
  O   O13       1.0  0.93329  0.96720  0.28720  1.0000
  O   O14       1.0  0.56671  0.53280  0.28720  1.0000
  O   O15       1.0  0.06671  0.46720  0.21280  1.0000
  O   O16       1.0  0.43329  0.03280  0.21280  1.0000
  O   O17       1.0  0.92576  0.98520  0.58306  1.0000
  O   O18       1.0  0.57424  0.51480  0.58306  1.0000
  O   O19       1.0  0.07424  0.48520  0.91694  1.0000
  O   O20       1.0  0.42576  0.01480  0.91694  1.0000
  O   O21       1.0  0.07424  0.01480  0.41694  1.0000
  O   O22       1.0  0.42576  0.48520  0.41694  1.0000
  O   O23       1.0  0.92576  0.51480  0.08306  1.0000
  O   O24       1.0  0.57424  0.98520  0.08306  1.0000
  O   O25       1.0  0.91979  0.16320  0.52790  1.0000
  O   O26       1.0  0.58021  0.33680  0.52790  1.0000
  O   O27       1.0  0.08021  0.66320  0.97210  1.0000
  O   O28       1.0  0.41979  0.83680  0.97210  1.0000
  O   O29       1.0  0.08021  0.83680  0.47210  1.0000
  O   O30       1.0  0.41979  0.66320  0.47210  1.0000
  O   O31       1.0  0.91979  0.33680  0.02790  1.0000
  O   O32       1.0  0.58021  0.16320  0.02790  1.0000
  O   O33       1.0  0.97796  0.13520  0.50762  1.0000
  O   O34       1.0  0.52204  0.36480  0.50762  1.0000
  O   O35       1.0  0.02204  0.63520  0.99238  1.0000
  O   O36       1.0  0.47796  0.86480  0.99238  1.0000
  O   O37       1.0  0.02204  0.86480  0.49238  1.0000
  O   O38       1.0  0.47796  0.63520  0.49238  1.0000
  O   O39       1.0  0.97796  0.36480  0.00762  1.0000
  O   O40       1.0  0.52204  0.13520  0.00762  1.0000
  O   O41       1.0  0.89533  0.97690  0.68978  1.0000
  O   O42       1.0  0.60467  0.52310  0.68978  1.0000
  O   O43       1.0  0.10467  0.47690  0.81022  1.0000
  O   O44       1.0  0.39533  0.02310  0.81022  1.0000
  O   O45       1.0  0.10467  0.02310  0.31022  1.0000
  O   O46       1.0  0.39533  0.47690  0.31022  1.0000
  O   O47       1.0  0.89533  0.52310  0.18978  1.0000
  O   O48       1.0  0.60467  0.97690  0.18978  1.0000
  O   O49       1.0  0.87761  0.73900  0.71977  1.0000
  O   O50       1.0  0.62239  0.76100  0.71977  1.0000
  O   O51       1.0  0.12239  0.23900  0.78023  1.0000
  O   O52       1.0  0.37761  0.26100  0.78023  1.0000
  O   O53       1.0  0.12239  0.26100  0.28023  1.0000
  O   O54       1.0  0.37761  0.23900  0.28023  1.0000
  O   O55       1.0  0.87761  0.76100  0.21977  1.0000
  O   O56       1.0  0.62239  0.73900  0.21977  1.0000
  O   O57       1.0  0.87675  0.86180  0.77655  1.0000
  O   O58       1.0  0.62325  0.63820  0.77655  1.0000
  O   O59       1.0  0.12325  0.36180  0.72345  1.0000
  O   O60       1.0  0.37675  0.13820  0.72345  1.0000
  O   O61       1.0  0.12325  0.13820  0.22345  1.0000
  O   O62       1.0  0.37675  0.36180  0.22345  1.0000
  O   O63       1.0  0.87675  0.63820  0.27655  1.0000
  O   O64       1.0  0.62325  0.86180  0.27655  1.0000
  O   O65       1.0  0.93387  0.00220  0.78511  1.0000
  O   O66       1.0  0.56613  0.49780  0.78511  1.0000
  O   O67       1.0  0.06613  0.50220  0.71489  1.0000
  O   O68       1.0  0.43387  0.99780  0.71489  1.0000
  O   O69       1.0  0.06613  0.99780  0.21489  1.0000
  O   O70       1.0  0.43387  0.50220  0.21489  1.0000
  O   O71       1.0  0.93387  0.49780  0.28511  1.0000
  O   O72       1.0  0.56613  0.00220  0.28511  1.0000
  O   O73       1.0  0.93277  0.01920  0.93771  1.0000
  O   O74       1.0  0.56723  0.48080  0.93771  1.0000
  O   O75       1.0  0.06723  0.51920  0.56229  1.0000
  O   O76       1.0  0.43277  0.98080  0.56229  1.0000
  O   O77       1.0  0.06723  0.98080  0.06229  1.0000
  O   O78       1.0  0.43277  0.51920  0.06229  1.0000
  O   O79       1.0  0.93277  0.48080  0.43771  1.0000
  O   O80       1.0  0.56723  0.01920  0.43771  1.0000
  O   O81       1.0  0.88920  0.00340  0.87142  1.0000
  O   O82       1.0  0.61080  0.49660  0.87142  1.0000
  O   O83       1.0  0.11080  0.50340  0.62858  1.0000
  O   O84       1.0  0.38920  0.99660  0.62858  1.0000
  O   O85       1.0  0.11080  0.99660  0.12858  1.0000
  O   O86       1.0  0.38920  0.50340  0.12858  1.0000
  O   O87       1.0  0.88920  0.49660  0.37142  1.0000
  O   O88       1.0  0.61080  0.00340  0.37142  1.0000
  O   O89       1.0  0.31689  0.01040  0.67710  1.0000
  O   O90       1.0  0.18311  0.48960  0.67710  1.0000
  O   O91       1.0  0.68311  0.51040  0.82290  1.0000
  O   O92       1.0  0.81689  0.98960  0.82290  1.0000
  O   O93       1.0  0.68311  0.98960  0.32290  1.0000
  O   O94       1.0  0.81689  0.51040  0.32290  1.0000
  O   O95       1.0  0.31689  0.48960  0.17710  1.0000
  O   O96       1.0  0.18311  0.01040  0.17710  1.0000
  O   O97       1.0  0.31396  0.02340  0.77250  1.0000
  O   O98       1.0  0.18604  0.47660  0.77250  1.0000
  O   O99       1.0  0.68604  0.52340  0.72750  1.0000
  O   O100      1.0  0.81396  0.97660  0.72750  1.0000
  O   O101      1.0  0.68604  0.97660  0.22750  1.0000
  O   O102      1.0  0.81396  0.52340  0.22750  1.0000
  O   O103      1.0  0.31396  0.47660  0.27250  1.0000
  O   O104      1.0  0.18604  0.02340  0.27250  1.0000
  O   O105      1.0  0.17921  0.00810  0.62151  1.0000
  O   O106      1.0  0.32079  0.49190  0.62151  1.0000
  O   O107      1.0  0.82079  0.50810  0.87849  1.0000
  O   O108      1.0  0.67921  0.99190  0.87849  1.0000
  O   O109      1.0  0.82079  0.99190  0.37849  1.0000
  O   O110      1.0  0.67921  0.50810  0.37849  1.0000
  O   O111      1.0  0.17921  0.49190  0.12151  1.0000
  O   O112      1.0  0.32079  0.00810  0.12151  1.0000
  O   O113      1.0  0.16598  0.09960  0.48090  1.0000
  O   O114      1.0  0.33402  0.40040  0.48090  1.0000
  O   O115      1.0  0.83402  0.59960  0.01910  1.0000
  O   O116      1.0  0.66598  0.90040  0.01910  1.0000
  O   O117      1.0  0.83402  0.90040  0.51910  1.0000
  O   O118      1.0  0.66598  0.59960  0.51910  1.0000
  O   O119      1.0  0.16598  0.40040  0.98090  1.0000
  O   O120      1.0  0.33402  0.09960  0.98090  1.0000
  O   O121      1.0  0.12894  0.08020  0.55552  1.0000
  O   O122      1.0  0.37106  0.41980  0.55552  1.0000
  O   O123      1.0  0.87106  0.58020  0.94448  1.0000
  O   O124      1.0  0.62894  0.91980  0.94448  1.0000
  O   O125      1.0  0.87106  0.91980  0.44448  1.0000
  O   O126      1.0  0.62894  0.58020  0.44448  1.0000
  O   O127      1.0  0.12894  0.41980  0.05552  1.0000
  O   O128      1.0  0.37106  0.08020  0.05552  1.0000
  O   O129      1.0  0.14543  0.98410  0.72081  1.0000
  O   O130      1.0  0.35457  0.51590  0.72081  1.0000
  O   O131      1.0  0.85457  0.48410  0.77919  1.0000
  O   O132      1.0  0.64543  0.01590  0.77919  1.0000
  O   O133      1.0  0.85457  0.01590  0.27919  1.0000
  O   O134      1.0  0.64543  0.48410  0.27919  1.0000
  O   O135      1.0  0.14543  0.51590  0.22081  1.0000
  O   O136      1.0  0.35457  0.98410  0.22081  1.0000
  O   O137      1.0  0.11172  0.90570  0.62782  1.0000
  O   O138      1.0  0.38828  0.59430  0.62782  1.0000
  O   O139      1.0  0.88828  0.40570  0.87218  1.0000
  O   O140      1.0  0.61172  0.09430  0.87218  1.0000
  O   O141      1.0  0.88828  0.09430  0.37218  1.0000
  O   O142      1.0  0.61172  0.40570  0.37218  1.0000
  O   O143      1.0  0.11172  0.59430  0.12782  1.0000
  O   O144      1.0  0.38828  0.90570  0.12782  1.0000
  O   O145      1.0  0.11898  0.76480  0.66310  1.0000
  O   O146      1.0  0.38102  0.73520  0.66310  1.0000
  O   O147      1.0  0.88102  0.26480  0.83690  1.0000
  O   O148      1.0  0.61898  0.23520  0.83690  1.0000
  O   O149      1.0  0.88102  0.23520  0.33690  1.0000
  O   O150      1.0  0.61898  0.26480  0.33690  1.0000
  O   O151      1.0  0.11898  0.73520  0.16310  1.0000
  O   O152      1.0  0.38102  0.76480  0.16310  1.0000
  O   O153      1.0  0.18089  0.98590  0.82377  1.0000
  O   O154      1.0  0.31911  0.51410  0.82377  1.0000
  O   O155      1.0  0.81911  0.48590  0.67623  1.0000
  O   O156      1.0  0.68089  0.01410  0.67623  1.0000
  O   O157      1.0  0.81911  0.01410  0.17623  1.0000
  O   O158      1.0  0.68089  0.48590  0.17623  1.0000
  O   O159      1.0  0.18089  0.51410  0.32377  1.0000
  O   O160      1.0  0.31911  0.98590  0.32377  1.0000
  O   O161      1.0  0.21405  0.13220  0.88398  1.0000
  O   O162      1.0  0.28595  0.36780  0.88398  1.0000
  O   O163      1.0  0.78595  0.63220  0.61602  1.0000
  O   O164      1.0  0.71405  0.86780  0.61602  1.0000
  O   O165      1.0  0.78595  0.86780  0.11602  1.0000
  O   O166      1.0  0.71405  0.63220  0.11602  1.0000
  O   O167      1.0  0.21405  0.36780  0.38398  1.0000
  O   O168      1.0  0.28595  0.13220  0.38398  1.0000
  O   O169      1.0  0.24903  0.03060  0.93120  1.0000
  O   O170      1.0  0.25097  0.46940  0.93120  1.0000
  O   O171      1.0  0.75097  0.53060  0.56880  1.0000
  O   O172      1.0  0.74903  0.96940  0.56880  1.0000
  O   O173      1.0  0.75097  0.96940  0.06880  1.0000
  O   O174      1.0  0.74903  0.53060  0.06880  1.0000
  O   O175      1.0  0.24903  0.46940  0.43120  1.0000
  O   O176      1.0  0.25097  0.03060  0.43120  1.0000
  O   O177      1.0  0.13057  0.16520  0.66991  1.0000
  O   O178      1.0  0.36943  0.33480  0.66991  1.0000
  O   O179      1.0  0.86943  0.66520  0.83009  1.0000
  O   O180      1.0  0.63057  0.83480  0.83009  1.0000
  O   O181      1.0  0.86943  0.83480  0.33009  1.0000
  O   O182      1.0  0.63057  0.66520  0.33009  1.0000
  O   O183      1.0  0.13057  0.33480  0.16991  1.0000
  O   O184      1.0  0.36943  0.16520  0.16991  1.0000
  H   H225      1.0  0.12720  0.20830  0.64660  1.0000
  H   H226      1.0  0.37280  0.29170  0.64660  1.0000
  H   H227      1.0  0.87280  0.70830  0.85340  1.0000
  H   H228      1.0  0.62720  0.79170  0.85340  1.0000
  H   H229      1.0  0.87280  0.79170  0.35340  1.0000
  H   H230      1.0  0.62720  0.70830  0.35340  1.0000
  H   H231      1.0  0.12720  0.29170  0.14660  1.0000
  H   H232      1.0  0.37280  0.20830  0.14660  1.0000
  H   H233      1.0  0.12780  0.18250  0.70420  1.0000
  H   H234      1.0  0.37220  0.31750  0.70420  1.0000
  H   H235      1.0  0.87220  0.68250  0.79580  1.0000
  H   H236      1.0  0.62780  0.81750  0.79580  1.0000
  H   H237      1.0  0.87220  0.81750  0.29580  1.0000
  H   H238      1.0  0.62780  0.68250  0.29580  1.0000
  H   H239      1.0  0.12780  0.31750  0.20420  1.0000
  H   H240      1.0  0.37220  0.18250  0.20420  1.0000
  O   O185      1.0  0.05254  0.19770  0.51743  1.0000
  O   O186      1.0  0.44746  0.30230  0.51743  1.0000
  O   O187      1.0  0.94746  0.69770  0.98257  1.0000
  O   O188      1.0  0.55254  0.80230  0.98257  1.0000
  O   O189      1.0  0.94746  0.80230  0.48257  1.0000
  O   O190      1.0  0.55254  0.69770  0.48257  1.0000
  O   O191      1.0  0.05254  0.30230  0.01743  1.0000
  O   O192      1.0  0.44746  0.19770  0.01743  1.0000
  H   H241      1.0  0.05510  0.16260  0.54600  1.0000
  H   H242      1.0  0.44490  0.33740  0.54600  1.0000
  H   H243      1.0  0.94490  0.66260  0.95400  1.0000
  H   H244      1.0  0.55510  0.83740  0.95400  1.0000
  H   H245      1.0  0.94490  0.83740  0.45400  1.0000
  H   H246      1.0  0.55510  0.66260  0.45400  1.0000
  H   H247      1.0  0.05510  0.33740  0.04600  1.0000
  H   H248      1.0  0.44490  0.16260  0.04600  1.0000
  H   H249      1.0  0.07270  0.21910  0.50710  1.0000
  H   H250      1.0  0.42730  0.28090  0.50710  1.0000
  H   H251      1.0  0.92730  0.71910  0.99290  1.0000
  H   H252      1.0  0.57270  0.78090  0.99290  1.0000
  H   H253      1.0  0.92730  0.78090  0.49290  1.0000
  H   H254      1.0  0.57270  0.71910  0.49290  1.0000
  H   H255      1.0  0.07270  0.28090  0.00710  1.0000
  H   H256      1.0  0.42730  0.21910  0.00710  1.0000
  O   O193      1.0  0.02691  0.39190  0.49915  1.0000
  O   O194      1.0  0.47309  0.10810  0.49915  1.0000
  O   O195      1.0  0.97309  0.89190  0.00085  1.0000
  O   O196      1.0  0.52691  0.60810  0.00085  1.0000
  O   O197      1.0  0.97309  0.60810  0.50085  1.0000
  O   O198      1.0  0.52691  0.89190  0.50085  1.0000
  O   O199      1.0  0.02691  0.10810  0.99915  1.0000
  O   O200      1.0  0.47309  0.39190  0.99915  1.0000
  H   H257      1.0  0.02430  0.42860  0.47120  1.0000
  H   H258      1.0  0.47570  0.07140  0.47120  1.0000
  H   H259      1.0  0.97570  0.92860  0.02880  1.0000
  H   H260      1.0  0.52430  0.57140  0.02880  1.0000
  H   H261      1.0  0.97570  0.57140  0.52880  1.0000
  H   H262      1.0  0.52430  0.92860  0.52880  1.0000
  H   H263      1.0  0.02430  0.07140  0.97120  1.0000
  H   H264      1.0  0.47570  0.42860  0.97120  1.0000
  H   H265      1.0  0.03400  0.42140  0.52890  1.0000
  H   H266      1.0  0.46600  0.07860  0.52890  1.0000
  H   H267      1.0  0.96600  0.92140  0.97110  1.0000
  H   H268      1.0  0.53400  0.57860  0.97110  1.0000
  H   H269      1.0  0.96600  0.57860  0.47110  1.0000
  H   H270      1.0  0.53400  0.92140  0.47110  1.0000
  H   H271      1.0  0.03400  0.07860  0.02890  1.0000
  H   H272      1.0  0.46600  0.42140  0.02890  1.0000
  O   O201      1.0  0.95051  0.33240  0.50850  1.0000
  O   O202      1.0  0.54949  0.16760  0.50850  1.0000
  O   O203      1.0  0.04949  0.83240  0.99150  1.0000
  O   O204      1.0  0.45051  0.66760  0.99150  1.0000
  O   O205      1.0  0.04949  0.66760  0.49150  1.0000
  O   O206      1.0  0.45051  0.83240  0.49150  1.0000
  O   O207      1.0  0.95051  0.16760  0.00850  1.0000
  O   O208      1.0  0.54949  0.33240  0.00850  1.0000
  H   H273      1.0  0.94660  0.36660  0.48010  1.0000
  H   H274      1.0  0.55340  0.13340  0.48010  1.0000
  H   H275      1.0  0.05340  0.86660  0.01990  1.0000
  H   H276      1.0  0.44660  0.63340  0.01990  1.0000
  H   H277      1.0  0.05340  0.63340  0.51990  1.0000
  H   H278      1.0  0.44660  0.86660  0.51990  1.0000
  H   H279      1.0  0.94660  0.13340  0.98010  1.0000
  H   H280      1.0  0.55340  0.36660  0.98010  1.0000
  H   H281      1.0  0.93640  0.28770  0.50930  1.0000
  H   H282      1.0  0.56360  0.21230  0.50930  1.0000
  H   H283      1.0  0.06360  0.78770  0.99070  1.0000
  H   H284      1.0  0.43640  0.71230  0.99070  1.0000
  H   H285      1.0  0.06360  0.71230  0.49070  1.0000
  H   H286      1.0  0.43640  0.78770  0.49070  1.0000
  H   H287      1.0  0.93640  0.21230  0.00930  1.0000
  H   H288      1.0  0.56360  0.28770  0.00930  1.0000
  O   O209      1.0  0.86989  0.12980  0.76540  1.0000
  O   O210      1.0  0.63011  0.37020  0.76540  1.0000
  O   O211      1.0  0.13011  0.62980  0.73460  1.0000
  O   O212      1.0  0.36989  0.87020  0.73460  1.0000
  O   O213      1.0  0.13011  0.87020  0.23460  1.0000
  O   O214      1.0  0.36989  0.62980  0.23460  1.0000
  O   O215      1.0  0.86989  0.37020  0.26540  1.0000
  O   O216      1.0  0.63011  0.12980  0.26540  1.0000
  H   H289      1.0  0.86310  0.12600  0.72960  1.0000
  H   H290      1.0  0.63690  0.37400  0.72960  1.0000
  H   H291      1.0  0.13690  0.62600  0.77040  1.0000
  H   H292      1.0  0.36310  0.87400  0.77040  1.0000
  H   H293      1.0  0.13690  0.87400  0.27040  1.0000
  H   H294      1.0  0.36310  0.62600  0.27040  1.0000
  H   H295      1.0  0.86310  0.37400  0.22960  1.0000
  H   H296      1.0  0.63690  0.12600  0.22960  1.0000
  H   H297      1.0  0.89250  0.13310  0.76700  1.0000
  H   H298      1.0  0.60750  0.36690  0.76700  1.0000
  H   H299      1.0  0.10750  0.63310  0.73300  1.0000
  H   H300      1.0  0.39250  0.86690  0.73300  1.0000
  H   H301      1.0  0.10750  0.86690  0.23300  1.0000
  H   H302      1.0  0.39250  0.63310  0.23300  1.0000
  H   H303      1.0  0.89250  0.36690  0.26700  1.0000
  H   H304      1.0  0.60750  0.13310  0.26700  1.0000
  O   O217      1.0  0.20239  0.33590  0.88374  1.0000
  O   O218      1.0  0.29761  0.16410  0.88374  1.0000
  O   O219      1.0  0.79761  0.83590  0.61626  1.0000
  O   O220      1.0  0.70239  0.66410  0.61626  1.0000
  O   O221      1.0  0.79761  0.66410  0.11626  1.0000
  O   O222      1.0  0.70239  0.83590  0.11626  1.0000
  O   O223      1.0  0.20239  0.16410  0.38374  1.0000
  O   O224      1.0  0.29761  0.33590  0.38374  1.0000
  H   H305      1.0  0.22170  0.37030  0.88170  1.0000
  H   H306      1.0  0.27830  0.12970  0.88170  1.0000
  H   H307      1.0  0.77830  0.87030  0.61830  1.0000
  H   H308      1.0  0.72170  0.62970  0.61830  1.0000
  H   H309      1.0  0.77830  0.62970  0.11830  1.0000
  H   H310      1.0  0.72170  0.87030  0.11830  1.0000
  H   H311      1.0  0.22170  0.12970  0.38170  1.0000
  H   H312      1.0  0.27830  0.37030  0.38170  1.0000
  H   H313      1.0  0.19140  0.34580  0.91510  1.0000
  H   H314      1.0  0.30860  0.15420  0.91510  1.0000
  H   H315      1.0  0.80860  0.84580  0.58490  1.0000
  H   H316      1.0  0.69140  0.65420  0.58490  1.0000
  H   H317      1.0  0.80860  0.65420  0.08490  1.0000
  H   H318      1.0  0.69140  0.84580  0.08490  1.0000
  H   H319      1.0  0.19140  0.15420  0.41510  1.0000
  H   H320      1.0  0.30860  0.34580  0.41510  1.0000
  Zn  Zn1       1.0  0.11457  0.04344  0.63745  1.0000
  Zn  Zn2       1.0  0.38543  0.45656  0.63745  1.0000
  Zn  Zn3       1.0  0.88543  0.54344  0.86255  1.0000
  Zn  Zn4       1.0  0.61457  0.95656  0.86255  1.0000
  Zn  Zn5       1.0  0.88543  0.95656  0.36255  1.0000
  Zn  Zn6       1.0  0.61457  0.54344  0.36255  1.0000
  Zn  Zn7       1.0  0.11457  0.45656  0.13745  1.0000
  Zn  Zn8       1.0  0.38543  0.04344  0.13745  1.0000
  Zn  Zn9       1.0  0.00212  0.26243  0.50779  1.0000
  Zn  Zn10      1.0  0.49788  0.23757  0.50779  1.0000
  Zn  Zn11      1.0  0.99788  0.76243  0.99221  1.0000
  Zn  Zn12      1.0  0.50212  0.73757  0.99221  1.0000
  Zn  Zn13      1.0  0.99788  0.73757  0.49221  1.0000
  Zn  Zn14      1.0  0.50212  0.76243  0.49221  1.0000
  Zn  Zn15      1.0  0.00212  0.23757  0.00779  1.0000
  Zn  Zn16      1.0  0.49788  0.26243  0.00779  1.0000
  Zn  Zn17      1.0  0.86902  0.99634  0.78771  1.0000
  Zn  Zn18      1.0  0.63098  0.50366  0.78771  1.0000
  Zn  Zn19      1.0  0.13098  0.49634  0.71229  1.0000
  Zn  Zn20      1.0  0.36902  0.00366  0.71229  1.0000
  Zn  Zn21      1.0  0.13098  0.00366  0.21229  1.0000
  Zn  Zn22      1.0  0.36902  0.49634  0.21229  1.0000
  Zn  Zn23      1.0  0.86902  0.50366  0.28771  1.0000
  Zn  Zn24      1.0  0.63098  0.99634  0.28771  1.0000
  Zn  Zn25      1.0  0.25000  0.25000  0.88784  1.0000
  Zn  Zn26      1.0  0.75000  0.75000  0.61216  1.0000
  Zn  Zn27      1.0  0.75000  0.75000  0.11216  1.0000
  Zn  Zn28      1.0  0.25000  0.25000  0.38784  1.0000
