data_image0
_chemical_formula_structural       U2O10C2O2C2H2O2C2H2C6O4C2H2C2H2O2C2H2C6H2C2H2C2H2C8H2C2H2C4H2
_chemical_formula_sum              "U2 O20 C42 H22"
_cell_length_a       11.217
_cell_length_b       10.2614
_cell_length_c       14.346
_cell_angle_alpha    90
_cell_angle_beta     97.541
_cell_angle_gamma    90

_space_group_name_H-M_alt    "P 1"
_space_group_IT_number       1

loop_
  _space_group_symop_operation_xyz
  'x, y, z'

loop_
  _atom_site_type_symbol
  _atom_site_label
  _atom_site_symmetry_multiplicity
  _atom_site_fract_x
  _atom_site_fract_y
  _atom_site_fract_z
  _atom_site_occupancy
  U   U1        1.0  0.16932  0.07498  0.19987  1.0000
  U   U2        1.0  0.83068  0.57498  0.80013  1.0000
  O   O1        1.0  0.97600  0.57900  0.68520  1.0000
  O   O2        1.0  0.02400  0.07900  0.31480  1.0000
  O   O3        1.0  0.71500  0.56900  0.93450  1.0000
  O   O4        1.0  0.28500  0.06900  0.06550  1.0000
  O   O5        1.0  0.74750  0.41810  0.36840  1.0000
  O   O6        1.0  0.25250  0.91810  0.63160  1.0000
  O   O7        1.0  0.23040  0.92590  0.24560  1.0000
  O   O8        1.0  0.76960  0.42590  0.75440  1.0000
  O   O9        1.0  0.50780  0.43890  0.61280  1.0000
  O   O10       1.0  0.49220  0.93890  0.38720  1.0000
  C   C1        1.0  0.44260  0.28990  0.37740  1.0000
  C   C2        1.0  0.55740  0.78990  0.62260  1.0000
  O   O11       1.0  0.25160  0.18150  0.34880  1.0000
  O   O12       1.0  0.74840  0.68150  0.65120  1.0000
  C   C3        1.0  0.20330  0.55700  0.62520  1.0000
  C   C4        1.0  0.79670  0.05700  0.37480  1.0000
  H   H1        1.0  0.14550  0.61290  0.59170  1.0000
  H   H2        1.0  0.85450  0.11290  0.40830  1.0000
  O   O13       1.0  0.10740  0.22420  0.15570  1.0000
  O   O14       1.0  0.89260  0.72420  0.84430  1.0000
  C   C5        1.0  0.69390  0.54960  0.12910  1.0000
  C   C6        1.0  0.30610  0.04960  0.87090  1.0000
  H   H3        1.0  0.64370  0.61110  0.09340  1.0000
  H   H4        1.0  0.35630  0.11110  0.90660  1.0000
  C   C7        1.0  0.34720  0.21290  0.31850  1.0000
  C   C8        1.0  0.65280  0.71290  0.68150  1.0000
  C   C9        1.0  0.05730  0.51500  0.73730  1.0000
  C   C10       1.0  0.94270  0.01500  0.26270  1.0000
  C   C11       1.0  0.79440  0.50990  0.98840  1.0000
  C   C12       1.0  0.20560  0.00990  0.01160  1.0000
  O   O15       1.0  0.36420  0.18250  0.23580  1.0000
  O   O16       1.0  0.63580  0.68250  0.76420  1.0000
  O   O17       1.0  0.88680  0.46810  0.95340  1.0000
  O   O18       1.0  0.11320  0.96810  0.04660  1.0000
  C   C13       1.0  0.26000  0.41280  0.75210  1.0000
  C   C14       1.0  0.74000  0.91280  0.24790  1.0000
  H   H5        1.0  0.24210  0.36880  0.80690  1.0000
  H   H6        1.0  0.75790  0.86880  0.19310  1.0000
  C   C15       1.0  0.31270  0.54010  0.59350  1.0000
  C   C16       1.0  0.68730  0.04010  0.40650  1.0000
  H   H7        1.0  0.33100  0.58580  0.53960  1.0000
  H   H8        1.0  0.66900  0.08580  0.46040  1.0000
  O   O19       1.0  0.03420  0.47550  0.81620  1.0000
  O   O20       1.0  0.96580  0.97550  0.18380  1.0000
  C   C17       1.0  0.54930  0.32170  0.34220  1.0000
  C   C18       1.0  0.45070  0.82170  0.65780  1.0000
  H   H9        1.0  0.56200  0.29560  0.28070  1.0000
  H   H10       1.0  0.43800  0.79560  0.71930  1.0000
  C   C19       1.0  0.17560  0.49420  0.70370  1.0000
  C   C20       1.0  0.82440  0.99420  0.29630  1.0000
  C   C21       1.0  0.78020  0.48210  0.08740  1.0000
  C   C22       1.0  0.21980  0.98210  0.91260  1.0000
  C   C23       1.0  0.85530  0.39340  0.14020  1.0000
  C   C24       1.0  0.14470  0.89340  0.85980  1.0000
  H   H11       1.0  0.91690  0.34990  0.11290  1.0000
  H   H12       1.0  0.08310  0.84990  0.88710  1.0000
  C   C25       1.0  0.62120  0.43320  0.48690  1.0000
  C   C26       1.0  0.37880  0.93320  0.51310  1.0000
  H   H13       1.0  0.68200  0.48310  0.52300  1.0000
  H   H14       1.0  0.31800  0.98310  0.47700  1.0000
  C   C27       1.0  0.68070  0.52740  0.22290  1.0000
  C   C28       1.0  0.31930  0.02740  0.77710  1.0000
  H   H15       1.0  0.62190  0.57430  0.25120  1.0000
  H   H16       1.0  0.37810  0.07430  0.74880  1.0000
  C   C29       1.0  0.39460  0.45720  0.64030  1.0000
  C   C30       1.0  0.60540  0.95720  0.35970  1.0000
  C   C31       1.0  0.75170  0.43900  0.27390  1.0000
  C   C32       1.0  0.24830  0.93900  0.72610  1.0000
  C   C33       1.0  0.63510  0.39150  0.39820  1.0000
  C   C34       1.0  0.36490  0.89150  0.60180  1.0000
  C   C35       1.0  0.83920  0.36920  0.23320  1.0000
  C   C36       1.0  0.16080  0.86920  0.76680  1.0000
  H   H17       1.0  0.88720  0.30580  0.26890  1.0000
  H   H18       1.0  0.11280  0.80580  0.73110  1.0000
  C   C37       1.0  0.37170  0.39470  0.72090  1.0000
  C   C38       1.0  0.62830  0.89470  0.27910  1.0000
  H   H19       1.0  0.43080  0.34020  0.75480  1.0000
  H   H20       1.0  0.56920  0.84020  0.24520  1.0000
  C   C39       1.0  0.51560  0.40060  0.52270  1.0000
  C   C40       1.0  0.48440  0.90060  0.47730  1.0000
  C   C41       1.0  0.42730  0.32670  0.46920  1.0000
  C   C42       1.0  0.57270  0.82670  0.53080  1.0000
  H   H21       1.0  0.35690  0.30130  0.49490  1.0000
  H   H22       1.0  0.64310  0.80130  0.50510  1.0000
