data_image0
_chemical_formula_structural       U2O8C4H2C6H2O4C2H2O2C2H2O2C4H2C10H2C2H2O2C2H2C2H2C2H2C2O2C2H2C2
_chemical_formula_sum              "U2 O20 C42 H22"
_cell_length_a       11.4098
_cell_length_b       9.3291
_cell_length_c       14.383
_cell_angle_alpha    90
_cell_angle_beta     96.391
_cell_angle_gamma    90

_space_group_name_H-M_alt    "P 1"
_space_group_IT_number       1

loop_
  _space_group_symop_operation_xyz
  'x, y, z'

loop_
  _atom_site_type_symbol
  _atom_site_label
  _atom_site_symmetry_multiplicity
  _atom_site_fract_x
  _atom_site_fract_y
  _atom_site_fract_z
  _atom_site_occupancy
  U   U1        1.0  0.83361  0.66226  0.80681  1.0000
  U   U2        1.0  0.16639  0.16226  0.19319  1.0000
  O   O1        1.0  0.63280  0.56770  0.76910  1.0000
  O   O2        1.0  0.36720  0.06770  0.23090  1.0000
  O   O3        1.0  0.28240  0.16300  0.05940  1.0000
  O   O4        1.0  0.71760  0.66300  0.94060  1.0000
  O   O5        1.0  0.02730  0.16900  0.31140  1.0000
  O   O6        1.0  0.97270  0.66900  0.68860  1.0000
  O   O7        1.0  0.50380  0.31700  0.38440  1.0000
  O   O8        1.0  0.49620  0.81700  0.61560  1.0000
  C   C1        1.0  0.94460  0.21430  0.25760  1.0000
  C   C2        1.0  0.05540  0.71430  0.74240  1.0000
  C   C3        1.0  0.57750  0.42970  0.53110  1.0000
  C   C4        1.0  0.42250  0.92970  0.46890  1.0000
  H   H1        1.0  0.64740  0.46060  0.50690  1.0000
  H   H2        1.0  0.35260  0.96060  0.49310  1.0000
  C   C5        1.0  0.25080  0.28790  0.71980  1.0000
  C   C6        1.0  0.74920  0.78790  0.28020  1.0000
  C   C7        1.0  0.19930  0.21560  0.00250  1.0000
  C   C8        1.0  0.80070  0.71560  0.99750  1.0000
  C   C9        1.0  0.70150  0.21560  0.41260  1.0000
  C   C10       1.0  0.29850  0.71560  0.58740  1.0000
  H   H3        1.0  0.68760  0.18000  0.47230  1.0000
  H   H4        1.0  0.31240  0.68000  0.52770  1.0000
  O   O9        1.0  0.96130  0.24300  0.17470  1.0000
  O   O10       1.0  0.03870  0.74300  0.82530  1.0000
  O   O11       1.0  0.26000  0.31150  0.62600  1.0000
  O   O12       1.0  0.74000  0.81150  0.37400  1.0000
  C   C11       1.0  0.31530  0.18100  0.86990  1.0000
  C   C12       1.0  0.68470  0.68100  0.13010  1.0000
  H   H5        1.0  0.36890  0.12190  0.90750  1.0000
  H   H6        1.0  0.63110  0.62190  0.09250  1.0000
  O   O13       1.0  0.78790  0.83840  0.77700  1.0000
  O   O14       1.0  0.21210  0.33840  0.22300  1.0000
  C   C13       1.0  0.80630  0.19350  0.37980  1.0000
  C   C14       1.0  0.19370  0.69350  0.62020  1.0000
  H   H7        1.0  0.86740  0.14600  0.41830  1.0000
  H   H8        1.0  0.13260  0.64600  0.58170  1.0000
  O   O15       1.0  0.74400  0.57790  0.65410  1.0000
  O   O16       1.0  0.25600  0.07790  0.34590  1.0000
  C   C15       1.0  0.49160  0.34990  0.47530  1.0000
  C   C16       1.0  0.50840  0.84990  0.52470  1.0000
  C   C17       1.0  0.38790  0.30990  0.50830  1.0000
  C   C18       1.0  0.61210  0.80990  0.49170  1.0000
  H   H9        1.0  0.33020  0.25680  0.46990  1.0000
  H   H10       1.0  0.66980  0.75680  0.53010  1.0000
  C   C19       1.0  0.36860  0.34880  0.59990  1.0000
  C   C20       1.0  0.63140  0.84880  0.40010  1.0000
  C   C21       1.0  0.64740  0.53890  0.68310  1.0000
  C   C22       1.0  0.35260  0.03890  0.31690  1.0000
  C   C23       1.0  0.82710  0.23830  0.29170  1.0000
  C   C24       1.0  0.17290  0.73830  0.70830  1.0000
  C   C25       1.0  0.55720  0.46270  0.62390  1.0000
  C   C26       1.0  0.44280  0.96270  0.37610  1.0000
  C   C27       1.0  0.62940  0.33180  0.27020  1.0000
  C   C28       1.0  0.37060  0.83180  0.72980  1.0000
  H   H11       1.0  0.56650  0.37370  0.23050  1.0000
  H   H12       1.0  0.43350  0.87370  0.76950  1.0000
  C   C29       1.0  0.15410  0.34700  0.75560  1.0000
  C   C30       1.0  0.84590  0.84700  0.24440  1.0000
  H   H13       1.0  0.10080  0.40590  0.71740  1.0000
  H   H14       1.0  0.89920  0.90590  0.28260  1.0000
  O   O17       1.0  0.10180  0.24230  0.03230  1.0000
  O   O18       1.0  0.89820  0.74230  0.96770  1.0000
  C   C31       1.0  0.33190  0.20900  0.77610  1.0000
  C   C32       1.0  0.66810  0.70900  0.22390  1.0000
  H   H15       1.0  0.39980  0.17270  0.75140  1.0000
  H   H16       1.0  0.60020  0.67270  0.24860  1.0000
  C   C33       1.0  0.13560  0.31900  0.84600  1.0000
  C   C34       1.0  0.86440  0.81900  0.15400  1.0000
  H   H17       1.0  0.06490  0.35250  0.86780  1.0000
  H   H18       1.0  0.93510  0.85250  0.13220  1.0000
  C   C35       1.0  0.45220  0.42690  0.65750  1.0000
  C   C36       1.0  0.54780  0.92690  0.34250  1.0000
  H   H19       1.0  0.43710  0.45490  0.71850  1.0000
  H   H20       1.0  0.56290  0.95490  0.28150  1.0000
  C   C37       1.0  0.21710  0.24430  0.90770  1.0000
  C   C38       1.0  0.78290  0.74430  0.09230  1.0000
  O   O19       1.0  0.87950  0.48430  0.83820  1.0000
  O   O20       1.0  0.12050  0.98430  0.16180  1.0000
  C   C39       1.0  0.73490  0.31300  0.23720  1.0000
  C   C40       1.0  0.26510  0.81300  0.76280  1.0000
  H   H21       1.0  0.74730  0.34970  0.17750  1.0000
  H   H22       1.0  0.25270  0.84970  0.82250  1.0000
  C   C41       1.0  0.61100  0.29380  0.35590  1.0000
  C   C42       1.0  0.38900  0.79380  0.64410  1.0000
