data_image0
_chemical_formula_structural       O8Cd16C8H8C48H8C8H8C8H8C16H8C16H8C16H8C24H8C8H8C24O48C8O32C8H24C8N8C8H24C8H24
_chemical_formula_sum              "O88 Cd16 C216 H144 N8"
_cell_length_a       31.84
_cell_length_b       13.478
_cell_length_c       19.854
_cell_angle_alpha    90
_cell_angle_beta     91.365
_cell_angle_gamma    90

_space_group_name_H-M_alt    "P 1"
_space_group_IT_number       1

loop_
  _space_group_symop_operation_xyz
  'x, y, z'

loop_
  _atom_site_type_symbol
  _atom_site_label
  _atom_site_symmetry_multiplicity
  _atom_site_fract_x
  _atom_site_fract_y
  _atom_site_fract_z
  _atom_site_occupancy
  O   O1        1.0  0.14116  0.47120  0.36100  1.0000
  O   O2        1.0  0.85884  0.47120  0.13900  1.0000
  O   O3        1.0  0.64116  0.97120  0.36100  1.0000
  O   O4        1.0  0.35884  0.97120  0.13900  1.0000
  O   O5        1.0  0.85884  0.52880  0.63900  1.0000
  O   O6        1.0  0.14116  0.52880  0.86100  1.0000
  O   O7        1.0  0.35884  0.02880  0.63900  1.0000
  O   O8        1.0  0.64116  0.02880  0.86100  1.0000
  Cd  Cd1       1.0  0.17482  0.61987  0.35994  1.0000
  Cd  Cd2       1.0  0.82518  0.61987  0.14006  1.0000
  Cd  Cd3       1.0  0.67482  0.11987  0.35994  1.0000
  Cd  Cd4       1.0  0.32518  0.11987  0.14006  1.0000
  Cd  Cd5       1.0  0.82518  0.38013  0.64006  1.0000
  Cd  Cd6       1.0  0.17482  0.38013  0.85994  1.0000
  Cd  Cd7       1.0  0.32518  0.88013  0.64006  1.0000
  Cd  Cd8       1.0  0.67482  0.88013  0.85994  1.0000
  Cd  Cd9       1.0  0.10359  0.66437  0.48999  1.0000
  Cd  Cd10      1.0  0.89641  0.66437  0.01001  1.0000
  Cd  Cd11      1.0  0.60359  0.16437  0.48999  1.0000
  Cd  Cd12      1.0  0.39641  0.16437  0.01001  1.0000
  Cd  Cd13      1.0  0.89641  0.33563  0.51001  1.0000
  Cd  Cd14      1.0  0.10359  0.33563  0.98999  1.0000
  Cd  Cd15      1.0  0.39641  0.83563  0.51001  1.0000
  Cd  Cd16      1.0  0.60359  0.83563  0.98999  1.0000
  C   C1        1.0  0.09886  0.29630  0.39330  1.0000
  C   C2        1.0  0.90114  0.29630  0.10670  1.0000
  C   C3        1.0  0.59886  0.79630  0.39330  1.0000
  C   C4        1.0  0.40114  0.79630  0.10670  1.0000
  C   C5        1.0  0.90114  0.70370  0.60670  1.0000
  C   C6        1.0  0.09886  0.70370  0.89330  1.0000
  C   C7        1.0  0.40114  0.20370  0.60670  1.0000
  C   C8        1.0  0.59886  0.20370  0.89330  1.0000
  H   H1        1.0  0.12610  0.29260  0.37780  1.0000
  H   H2        1.0  0.87390  0.29260  0.12220  1.0000
  H   H3        1.0  0.62610  0.79260  0.37780  1.0000
  H   H4        1.0  0.37390  0.79260  0.12220  1.0000
  H   H5        1.0  0.87390  0.70740  0.62220  1.0000
  H   H6        1.0  0.12610  0.70740  0.87780  1.0000
  H   H7        1.0  0.37390  0.20740  0.62220  1.0000
  H   H8        1.0  0.62610  0.20740  0.87780  1.0000
  C   C9        1.0  0.13829  0.92070  0.39370  1.0000
  C   C10       1.0  0.86171  0.92070  0.10630  1.0000
  C   C11       1.0  0.63829  0.42070  0.39370  1.0000
  C   C12       1.0  0.36171  0.42070  0.10630  1.0000
  C   C13       1.0  0.86171  0.07930  0.60630  1.0000
  C   C14       1.0  0.13829  0.07930  0.89370  1.0000
  C   C15       1.0  0.36171  0.57930  0.60630  1.0000
  C   C16       1.0  0.63829  0.57930  0.89370  1.0000
  C   C17       1.0  0.08068  0.38860  0.39920  1.0000
  C   C18       1.0  0.91932  0.38860  0.10080  1.0000
  C   C19       1.0  0.58068  0.88860  0.39920  1.0000
  C   C20       1.0  0.41932  0.88860  0.10080  1.0000
  C   C21       1.0  0.91932  0.61140  0.60080  1.0000
  C   C22       1.0  0.08068  0.61140  0.89920  1.0000
  C   C23       1.0  0.41932  0.11140  0.60080  1.0000
  C   C24       1.0  0.58068  0.11140  0.89920  1.0000
  C   C25       1.0  0.09862  0.10770  0.40390  1.0000
  C   C26       1.0  0.90138  0.10770  0.09610  1.0000
  C   C27       1.0  0.59862  0.60770  0.40390  1.0000
  C   C28       1.0  0.40138  0.60770  0.09610  1.0000
  C   C29       1.0  0.90138  0.89230  0.59610  1.0000
  C   C30       1.0  0.09862  0.89230  0.90390  1.0000
  C   C31       1.0  0.40138  0.39230  0.59610  1.0000
  C   C32       1.0  0.59862  0.39230  0.90390  1.0000
  C   C33       1.0  0.15660  0.82050  0.38370  1.0000
  C   C34       1.0  0.84340  0.82050  0.11630  1.0000
  C   C35       1.0  0.65660  0.32050  0.38370  1.0000
  C   C36       1.0  0.34340  0.32050  0.11630  1.0000
  C   C37       1.0  0.84340  0.17950  0.61630  1.0000
  C   C38       1.0  0.15660  0.17950  0.88370  1.0000
  C   C39       1.0  0.34340  0.67950  0.61630  1.0000
  C   C40       1.0  0.65660  0.67950  0.88370  1.0000
  C   C41       1.0  0.07855  0.20850  0.40940  1.0000
  C   C42       1.0  0.92145  0.20850  0.09060  1.0000
  C   C43       1.0  0.57855  0.70850  0.40940  1.0000
  C   C44       1.0  0.42145  0.70850  0.09060  1.0000
  C   C45       1.0  0.92145  0.79150  0.59060  1.0000
  C   C46       1.0  0.07855  0.79150  0.90940  1.0000
  C   C47       1.0  0.42145  0.29150  0.59060  1.0000
  C   C48       1.0  0.57855  0.29150  0.90940  1.0000
  C   C49       1.0  0.07620  0.02210  0.40480  1.0000
  C   C50       1.0  0.92380  0.02210  0.09520  1.0000
  C   C51       1.0  0.57620  0.52210  0.40480  1.0000
  C   C52       1.0  0.42380  0.52210  0.09520  1.0000
  C   C53       1.0  0.92380  0.97790  0.59520  1.0000
  C   C54       1.0  0.07620  0.97790  0.90480  1.0000
  C   C55       1.0  0.42380  0.47790  0.59520  1.0000
  C   C56       1.0  0.57620  0.47790  0.90480  1.0000
  H   H9        1.0  0.04710  0.02550  0.40700  1.0000
  H   H10       1.0  0.95290  0.02550  0.09300  1.0000
  H   H11       1.0  0.54710  0.52550  0.40700  1.0000
  H   H12       1.0  0.45290  0.52550  0.09300  1.0000
  H   H13       1.0  0.95290  0.97450  0.59300  1.0000
  H   H14       1.0  0.04710  0.97450  0.90700  1.0000
  H   H15       1.0  0.45290  0.47450  0.59300  1.0000
  H   H16       1.0  0.54710  0.47450  0.90700  1.0000
  C   C57       1.0  0.14244  0.10000  0.39770  1.0000
  C   C58       1.0  0.85756  0.10000  0.10230  1.0000
  C   C59       1.0  0.64244  0.60000  0.39770  1.0000
  C   C60       1.0  0.35756  0.60000  0.10230  1.0000
  C   C61       1.0  0.85756  0.90000  0.60230  1.0000
  C   C62       1.0  0.14244  0.90000  0.89770  1.0000
  C   C63       1.0  0.35756  0.40000  0.60230  1.0000
  C   C64       1.0  0.64244  0.40000  0.89770  1.0000
  H   H17       1.0  0.15850  0.15770  0.39790  1.0000
  H   H18       1.0  0.84150  0.15770  0.10210  1.0000
  H   H19       1.0  0.65850  0.65770  0.39790  1.0000
  H   H20       1.0  0.34150  0.65770  0.10210  1.0000
  H   H21       1.0  0.84150  0.84230  0.60210  1.0000
  H   H22       1.0  0.15850  0.84230  0.89790  1.0000
  H   H23       1.0  0.34150  0.34230  0.60210  1.0000
  H   H24       1.0  0.65850  0.34230  0.89790  1.0000
  C   C65       1.0  0.03781  0.21760  0.43450  1.0000
  C   C66       1.0  0.96219  0.21760  0.06550  1.0000
  C   C67       1.0  0.53781  0.71760  0.43450  1.0000
  C   C68       1.0  0.46219  0.71760  0.06550  1.0000
  C   C69       1.0  0.96219  0.78240  0.56550  1.0000
  C   C70       1.0  0.03781  0.78240  0.93450  1.0000
  C   C71       1.0  0.46219  0.28240  0.56550  1.0000
  C   C72       1.0  0.53781  0.28240  0.93450  1.0000
  H   H25       1.0  0.02350  0.16090  0.44750  1.0000
  H   H26       1.0  0.97650  0.16090  0.05250  1.0000
  H   H27       1.0  0.52350  0.66090  0.44750  1.0000
  H   H28       1.0  0.47650  0.66090  0.05250  1.0000
  H   H29       1.0  0.97650  0.83910  0.55250  1.0000
  H   H30       1.0  0.02350  0.83910  0.94750  1.0000
  H   H31       1.0  0.47650  0.33910  0.55250  1.0000
  H   H32       1.0  0.52350  0.33910  0.94750  1.0000
  C   C73       1.0  0.16231  0.00960  0.39120  1.0000
  C   C74       1.0  0.83769  0.00960  0.10880  1.0000
  C   C75       1.0  0.66231  0.50960  0.39120  1.0000
  C   C76       1.0  0.33769  0.50960  0.10880  1.0000
  C   C77       1.0  0.83769  0.99040  0.60880  1.0000
  C   C78       1.0  0.16231  0.99040  0.89120  1.0000
  C   C79       1.0  0.33769  0.49040  0.60880  1.0000
  C   C80       1.0  0.66231  0.49040  0.89120  1.0000
  C   C81       1.0  0.04070  0.39590  0.42360  1.0000
  C   C82       1.0  0.95930  0.39590  0.07640  1.0000
  C   C83       1.0  0.54070  0.89590  0.42360  1.0000
  C   C84       1.0  0.45930  0.89590  0.07640  1.0000
  C   C85       1.0  0.95930  0.60410  0.57640  1.0000
  C   C86       1.0  0.04070  0.60410  0.92360  1.0000
  C   C87       1.0  0.45930  0.10410  0.57640  1.0000
  C   C88       1.0  0.54070  0.10410  0.92360  1.0000
  H   H33       1.0  0.02850  0.45790  0.42910  1.0000
  H   H34       1.0  0.97150  0.45790  0.07090  1.0000
  H   H35       1.0  0.52850  0.95790  0.42910  1.0000
  H   H36       1.0  0.47150  0.95790  0.07090  1.0000
  H   H37       1.0  0.97150  0.54210  0.57090  1.0000
  H   H38       1.0  0.02850  0.54210  0.92910  1.0000
  H   H39       1.0  0.47150  0.04210  0.57090  1.0000
  H   H40       1.0  0.52850  0.04210  0.92910  1.0000
  C   C89       1.0  0.01840  0.31030  0.44020  1.0000
  C   C90       1.0  0.98160  0.31030  0.05980  1.0000
  C   C91       1.0  0.51840  0.81030  0.44020  1.0000
  C   C92       1.0  0.48160  0.81030  0.05980  1.0000
  C   C93       1.0  0.98160  0.68970  0.55980  1.0000
  C   C94       1.0  0.01840  0.68970  0.94020  1.0000
  C   C95       1.0  0.48160  0.18970  0.55980  1.0000
  C   C96       1.0  0.51840  0.18970  0.94020  1.0000
  C   C97       1.0  0.09560  0.92870  0.40260  1.0000
  C   C98       1.0  0.90440  0.92870  0.09740  1.0000
  C   C99       1.0  0.59560  0.42870  0.40260  1.0000
  C   C100      1.0  0.40440  0.42870  0.09740  1.0000
  C   C101      1.0  0.90440  0.07130  0.59740  1.0000
  C   C102      1.0  0.09560  0.07130  0.90260  1.0000
  C   C103      1.0  0.40440  0.57130  0.59740  1.0000
  C   C104      1.0  0.59560  0.57130  0.90260  1.0000
  H   H41       1.0  0.07940  0.87160  0.40710  1.0000
  H   H42       1.0  0.92060  0.87160  0.09290  1.0000
  H   H43       1.0  0.57940  0.37160  0.40710  1.0000
  H   H44       1.0  0.42060  0.37160  0.09290  1.0000
  H   H45       1.0  0.92060  0.12840  0.59290  1.0000
  H   H46       1.0  0.07940  0.12840  0.90710  1.0000
  H   H47       1.0  0.42060  0.62840  0.59290  1.0000
  H   H48       1.0  0.57940  0.62840  0.90710  1.0000
  C   C105      1.0  0.27899  0.98450  0.43730  1.0000
  C   C106      1.0  0.72101  0.98450  0.06270  1.0000
  C   C107      1.0  0.77899  0.48450  0.43730  1.0000
  C   C108      1.0  0.22101  0.48450  0.06270  1.0000
  C   C109      1.0  0.72101  0.01550  0.56270  1.0000
  C   C110      1.0  0.27899  0.01550  0.93730  1.0000
  C   C111      1.0  0.22101  0.51550  0.56270  1.0000
  C   C112      1.0  0.77899  0.51550  0.93730  1.0000
  C   C113      1.0  0.29642  0.02170  0.37800  1.0000
  C   C114      1.0  0.70358  0.02170  0.12200  1.0000
  C   C115      1.0  0.79642  0.52170  0.37800  1.0000
  C   C116      1.0  0.20358  0.52170  0.12200  1.0000
  C   C117      1.0  0.70358  0.97830  0.62200  1.0000
  C   C118      1.0  0.29642  0.97830  0.87800  1.0000
  C   C119      1.0  0.20358  0.47830  0.62200  1.0000
  C   C120      1.0  0.79642  0.47830  0.87800  1.0000
  H   H49       1.0  0.32540  0.02630  0.37470  1.0000
  H   H50       1.0  0.67460  0.02630  0.12530  1.0000
  H   H51       1.0  0.82540  0.52630  0.37470  1.0000
  H   H52       1.0  0.17460  0.52630  0.12530  1.0000
  H   H53       1.0  0.67460  0.97370  0.62530  1.0000
  H   H54       1.0  0.32540  0.97370  0.87470  1.0000
  H   H55       1.0  0.17460  0.47370  0.62530  1.0000
  H   H56       1.0  0.82540  0.47370  0.87470  1.0000
  C   C121      1.0  0.27067  0.05190  0.32400  1.0000
  C   C122      1.0  0.72933  0.05190  0.17600  1.0000
  C   C123      1.0  0.77067  0.55190  0.32400  1.0000
  C   C124      1.0  0.22933  0.55190  0.17600  1.0000
  C   C125      1.0  0.72933  0.94810  0.67600  1.0000
  C   C126      1.0  0.27067  0.94810  0.82400  1.0000
  C   C127      1.0  0.22933  0.44810  0.67600  1.0000
  C   C128      1.0  0.77067  0.44810  0.82400  1.0000
  C   C129      1.0  0.20933  0.00950  0.38810  1.0000
  C   C130      1.0  0.79067  0.00950  0.11190  1.0000
  C   C131      1.0  0.70933  0.50950  0.38810  1.0000
  C   C132      1.0  0.29067  0.50950  0.11190  1.0000
  C   C133      1.0  0.79067  0.99050  0.61190  1.0000
  C   C134      1.0  0.20933  0.99050  0.88810  1.0000
  C   C135      1.0  0.29067  0.49050  0.61190  1.0000
  C   C136      1.0  0.70933  0.49050  0.88810  1.0000
  C   C137      1.0  0.23520  0.97880  0.43950  1.0000
  C   C138      1.0  0.76480  0.97880  0.06050  1.0000
  C   C139      1.0  0.73520  0.47880  0.43950  1.0000
  C   C140      1.0  0.26480  0.47880  0.06050  1.0000
  C   C141      1.0  0.76480  0.02120  0.56050  1.0000
  C   C142      1.0  0.23520  0.02120  0.93950  1.0000
  C   C143      1.0  0.26480  0.52120  0.56050  1.0000
  C   C144      1.0  0.73520  0.52120  0.93950  1.0000
  H   H57       1.0  0.22320  0.95280  0.47800  1.0000
  H   H58       1.0  0.77680  0.95280  0.02200  1.0000
  H   H59       1.0  0.72320  0.45280  0.47800  1.0000
  H   H60       1.0  0.27680  0.45280  0.02200  1.0000
  H   H61       1.0  0.77680  0.04720  0.52200  1.0000
  H   H62       1.0  0.22320  0.04720  0.97800  1.0000
  H   H63       1.0  0.27680  0.54720  0.52200  1.0000
  H   H64       1.0  0.72320  0.54720  0.97800  1.0000
  C   C145      1.0  0.22771  0.04570  0.32960  1.0000
  C   C146      1.0  0.77229  0.04570  0.17040  1.0000
  C   C147      1.0  0.72771  0.54570  0.32960  1.0000
  C   C148      1.0  0.27229  0.54570  0.17040  1.0000
  C   C149      1.0  0.77229  0.95430  0.67040  1.0000
  C   C150      1.0  0.22771  0.95430  0.82960  1.0000
  C   C151      1.0  0.27229  0.45430  0.67040  1.0000
  C   C152      1.0  0.72771  0.45430  0.82960  1.0000
  H   H65       1.0  0.21050  0.06610  0.29370  1.0000
  H   H66       1.0  0.78950  0.06610  0.20630  1.0000
  H   H67       1.0  0.71050  0.56610  0.29370  1.0000
  H   H68       1.0  0.28950  0.56610  0.20630  1.0000
  H   H69       1.0  0.78950  0.93390  0.70630  1.0000
  H   H70       1.0  0.21050  0.93390  0.79370  1.0000
  H   H71       1.0  0.28950  0.43390  0.70630  1.0000
  H   H72       1.0  0.71050  0.43390  0.79370  1.0000
  C   C153      1.0  0.30670  0.94460  0.49170  1.0000
  C   C154      1.0  0.69330  0.94460  0.00830  1.0000
  C   C155      1.0  0.80670  0.44460  0.49170  1.0000
  C   C156      1.0  0.19330  0.44460  0.00830  1.0000
  C   C157      1.0  0.69330  0.05540  0.50830  1.0000
  C   C158      1.0  0.30670  0.05540  0.99170  1.0000
  C   C159      1.0  0.19330  0.55540  0.50830  1.0000
  C   C160      1.0  0.80670  0.55540  0.99170  1.0000
  C   C161      1.0  0.29050  0.08330  0.25930  1.0000
  C   C162      1.0  0.70950  0.08330  0.24070  1.0000
  C   C163      1.0  0.79050  0.58330  0.25930  1.0000
  C   C164      1.0  0.20950  0.58330  0.24070  1.0000
  C   C165      1.0  0.70950  0.91670  0.74070  1.0000
  C   C166      1.0  0.29050  0.91670  0.75930  1.0000
  C   C167      1.0  0.20950  0.41670  0.74070  1.0000
  C   C168      1.0  0.79050  0.41670  0.75930  1.0000
  C   C169      1.0  0.97430  0.31810  0.46480  1.0000
  C   C170      1.0  0.02570  0.31810  0.03520  1.0000
  C   C171      1.0  0.47430  0.81810  0.46480  1.0000
  C   C172      1.0  0.52570  0.81810  0.03520  1.0000
  C   C173      1.0  0.02570  0.68190  0.53520  1.0000
  C   C174      1.0  0.97430  0.68190  0.96480  1.0000
  C   C175      1.0  0.52570  0.18190  0.53520  1.0000
  C   C176      1.0  0.47430  0.18190  0.96480  1.0000
  O   O9        1.0  0.26833  0.08140  0.20640  1.0000
  O   O10       1.0  0.73167  0.08140  0.29360  1.0000
  O   O11       1.0  0.76833  0.58140  0.20640  1.0000
  O   O12       1.0  0.23167  0.58140  0.29360  1.0000
  O   O13       1.0  0.73167  0.91860  0.79360  1.0000
  O   O14       1.0  0.26833  0.91860  0.70640  1.0000
  O   O15       1.0  0.23167  0.41860  0.79360  1.0000
  O   O16       1.0  0.76833  0.41860  0.70640  1.0000
  O   O17       1.0  0.95270  0.39460  0.45110  1.0000
  O   O18       1.0  0.04730  0.39460  0.04890  1.0000
  O   O19       1.0  0.45270  0.89460  0.45110  1.0000
  O   O20       1.0  0.54730  0.89460  0.04890  1.0000
  O   O21       1.0  0.04730  0.60540  0.54890  1.0000
  O   O22       1.0  0.95270  0.60540  0.95110  1.0000
  O   O23       1.0  0.54730  0.10540  0.54890  1.0000
  O   O24       1.0  0.45270  0.10540  0.95110  1.0000
  O   O25       1.0  0.32867  0.10870  0.26030  1.0000
  O   O26       1.0  0.67133  0.10870  0.23970  1.0000
  O   O27       1.0  0.82867  0.60870  0.26030  1.0000
  O   O28       1.0  0.17133  0.60870  0.23970  1.0000
  O   O29       1.0  0.67133  0.89130  0.73970  1.0000
  O   O30       1.0  0.32867  0.89130  0.76030  1.0000
  O   O31       1.0  0.17133  0.39130  0.73970  1.0000
  O   O32       1.0  0.82867  0.39130  0.76030  1.0000
  O   O33       1.0  0.28906  0.91690  0.54580  1.0000
  O   O34       1.0  0.71094  0.91690  0.95420  1.0000
  O   O35       1.0  0.78906  0.41690  0.54580  1.0000
  O   O36       1.0  0.21094  0.41690  0.95420  1.0000
  O   O37       1.0  0.71094  0.08310  0.45420  1.0000
  O   O38       1.0  0.28906  0.08310  0.04580  1.0000
  O   O39       1.0  0.21094  0.58310  0.45420  1.0000
  O   O40       1.0  0.78906  0.58310  0.04580  1.0000
  O   O41       1.0  0.34560  0.94490  0.48370  1.0000
  O   O42       1.0  0.65440  0.94490  0.01630  1.0000
  O   O43       1.0  0.84560  0.44490  0.48370  1.0000
  O   O44       1.0  0.15440  0.44490  0.01630  1.0000
  O   O45       1.0  0.65440  0.05510  0.51630  1.0000
  O   O46       1.0  0.34560  0.05510  0.98370  1.0000
  O   O47       1.0  0.15440  0.55510  0.51630  1.0000
  O   O48       1.0  0.84560  0.55510  0.98370  1.0000
  O   O49       1.0  0.95981  0.25010  0.50080  1.0000
  O   O50       1.0  0.04019  0.25010  0.99920  1.0000
  O   O51       1.0  0.45981  0.75010  0.50080  1.0000
  O   O52       1.0  0.54019  0.75010  0.99920  1.0000
  O   O53       1.0  0.04019  0.74990  0.49920  1.0000
  O   O54       1.0  0.95981  0.74990  0.00080  1.0000
  O   O55       1.0  0.54019  0.24990  0.49920  1.0000
  O   O56       1.0  0.45981  0.24990  0.00080  1.0000
  C   C177      1.0  0.10530  0.48060  0.38470  1.0000
  C   C178      1.0  0.89470  0.48060  0.11530  1.0000
  C   C179      1.0  0.60530  0.98060  0.38470  1.0000
  C   C180      1.0  0.39470  0.98060  0.11530  1.0000
  C   C181      1.0  0.89470  0.51940  0.61530  1.0000
  C   C182      1.0  0.10530  0.51940  0.88470  1.0000
  C   C183      1.0  0.39470  0.01940  0.61530  1.0000
  C   C184      1.0  0.60530  0.01940  0.88470  1.0000
  O   O57       1.0  0.08822  0.56360  0.39720  1.0000
  O   O58       1.0  0.91178  0.56360  0.10280  1.0000
  O   O59       1.0  0.58822  0.06360  0.39720  1.0000
  O   O60       1.0  0.41178  0.06360  0.10280  1.0000
  O   O61       1.0  0.91178  0.43640  0.60280  1.0000
  O   O62       1.0  0.08822  0.43640  0.89720  1.0000
  O   O63       1.0  0.41178  0.93640  0.60280  1.0000
  O   O64       1.0  0.58822  0.93640  0.89720  1.0000
  O   O65       1.0  0.18918  0.80600  0.35380  1.0000
  O   O66       1.0  0.81082  0.80600  0.14620  1.0000
  O   O67       1.0  0.68918  0.30600  0.35380  1.0000
  O   O68       1.0  0.31082  0.30600  0.14620  1.0000
  O   O69       1.0  0.81082  0.19400  0.64620  1.0000
  O   O70       1.0  0.18918  0.19400  0.85380  1.0000
  O   O71       1.0  0.31082  0.69400  0.64620  1.0000
  O   O72       1.0  0.68918  0.69400  0.85380  1.0000
  O   O73       1.0  0.13569  0.74410  0.40600  1.0000
  O   O74       1.0  0.86431  0.74410  0.09400  1.0000
  O   O75       1.0  0.63569  0.24410  0.40600  1.0000
  O   O76       1.0  0.36431  0.24410  0.09400  1.0000
  O   O77       1.0  0.86431  0.25590  0.59400  1.0000
  O   O78       1.0  0.13569  0.25590  0.90600  1.0000
  O   O79       1.0  0.36431  0.75590  0.59400  1.0000
  O   O80       1.0  0.63569  0.75590  0.90600  1.0000
  O   O81       1.0  0.13150  0.75230  0.57800  1.0000
  O   O82       1.0  0.86850  0.75230  0.92200  1.0000
  O   O83       1.0  0.63150  0.25230  0.57800  1.0000
  O   O84       1.0  0.36850  0.25230  0.92200  1.0000
  O   O85       1.0  0.86850  0.24770  0.42200  1.0000
  O   O86       1.0  0.13150  0.24770  0.07800  1.0000
  O   O87       1.0  0.36850  0.74770  0.42200  1.0000
  O   O88       1.0  0.63150  0.74770  0.07800  1.0000
  C   C185      1.0  0.20850  0.78540  0.58930  1.0000
  C   C186      1.0  0.79150  0.78540  0.91070  1.0000
  C   C187      1.0  0.70850  0.28540  0.58930  1.0000
  C   C188      1.0  0.29150  0.28540  0.91070  1.0000
  C   C189      1.0  0.79150  0.21460  0.41070  1.0000
  C   C190      1.0  0.20850  0.21460  0.08930  1.0000
  C   C191      1.0  0.29150  0.71460  0.41070  1.0000
  C   C192      1.0  0.70850  0.71460  0.08930  1.0000
  H   H73       1.0  0.21350  0.84910  0.60980  1.0000
  H   H74       1.0  0.78650  0.84910  0.89020  1.0000
  H   H75       1.0  0.71350  0.34910  0.60980  1.0000
  H   H76       1.0  0.28650  0.34910  0.89020  1.0000
  H   H77       1.0  0.78650  0.15090  0.39020  1.0000
  H   H78       1.0  0.21350  0.15090  0.10980  1.0000
  H   H79       1.0  0.28650  0.65090  0.39020  1.0000
  H   H80       1.0  0.71350  0.65090  0.10980  1.0000
  H   H81       1.0  0.20600  0.79300  0.54130  1.0000
  H   H82       1.0  0.79400  0.79300  0.95870  1.0000
  H   H83       1.0  0.70600  0.29300  0.54130  1.0000
  H   H84       1.0  0.29400  0.29300  0.95870  1.0000
  H   H85       1.0  0.79400  0.20700  0.45870  1.0000
  H   H86       1.0  0.20600  0.20700  0.04130  1.0000
  H   H87       1.0  0.29400  0.70700  0.45870  1.0000
  H   H88       1.0  0.70600  0.70700  0.04130  1.0000
  H   H89       1.0  0.23160  0.74200  0.60020  1.0000
  H   H90       1.0  0.76840  0.74200  0.89980  1.0000
  H   H91       1.0  0.73160  0.24200  0.60020  1.0000
  H   H92       1.0  0.26840  0.24200  0.89980  1.0000
  H   H93       1.0  0.76840  0.25800  0.39980  1.0000
  H   H94       1.0  0.23160  0.25800  0.10020  1.0000
  H   H95       1.0  0.26840  0.75800  0.39980  1.0000
  H   H96       1.0  0.73160  0.75800  0.10020  1.0000
  C   C193      1.0  0.16940  0.74290  0.61500  1.0000
  C   C194      1.0  0.83060  0.74290  0.88500  1.0000
  C   C195      1.0  0.66940  0.24290  0.61500  1.0000
  C   C196      1.0  0.33060  0.24290  0.88500  1.0000
  C   C197      1.0  0.83060  0.25710  0.38500  1.0000
  C   C198      1.0  0.16940  0.25710  0.11500  1.0000
  C   C199      1.0  0.33060  0.75710  0.38500  1.0000
  C   C200      1.0  0.66940  0.75710  0.11500  1.0000
  N   N1        1.0  0.16700  0.70760  0.67170  1.0000
  N   N2        1.0  0.83300  0.70760  0.82830  1.0000
  N   N3        1.0  0.66700  0.20760  0.67170  1.0000
  N   N4        1.0  0.33300  0.20760  0.82830  1.0000
  N   N5        1.0  0.83300  0.29240  0.32830  1.0000
  N   N6        1.0  0.16700  0.29240  0.17170  1.0000
  N   N7        1.0  0.33300  0.79240  0.32830  1.0000
  N   N8        1.0  0.66700  0.79240  0.17170  1.0000
  C   C201      1.0  0.12300  0.66310  0.69280  1.0000
  C   C202      1.0  0.87700  0.66310  0.80720  1.0000
  C   C203      1.0  0.62300  0.16310  0.69280  1.0000
  C   C204      1.0  0.37700  0.16310  0.80720  1.0000
  C   C205      1.0  0.87700  0.33690  0.30720  1.0000
  C   C206      1.0  0.12300  0.33690  0.19280  1.0000
  C   C207      1.0  0.37700  0.83690  0.30720  1.0000
  C   C208      1.0  0.62300  0.83690  0.19280  1.0000
  H   H97       1.0  0.10200  0.67970  0.65920  1.0000
  H   H98       1.0  0.89800  0.67970  0.84080  1.0000
  H   H99       1.0  0.60200  0.17970  0.65920  1.0000
  H   H100      1.0  0.39800  0.17970  0.84080  1.0000
  H   H101      1.0  0.89800  0.32030  0.34080  1.0000
  H   H102      1.0  0.10200  0.32030  0.15920  1.0000
  H   H103      1.0  0.39800  0.82030  0.34080  1.0000
  H   H104      1.0  0.60200  0.82030  0.15920  1.0000
  H   H105      1.0  0.11520  0.69040  0.73540  1.0000
  H   H106      1.0  0.88480  0.69040  0.76460  1.0000
  H   H107      1.0  0.61520  0.19040  0.73540  1.0000
  H   H108      1.0  0.38480  0.19040  0.76460  1.0000
  H   H109      1.0  0.88480  0.30960  0.26460  1.0000
  H   H110      1.0  0.11520  0.30960  0.23540  1.0000
  H   H111      1.0  0.38480  0.80960  0.26460  1.0000
  H   H112      1.0  0.61520  0.80960  0.23540  1.0000
  H   H113      1.0  0.12510  0.59220  0.69650  1.0000
  H   H114      1.0  0.87490  0.59220  0.80350  1.0000
  H   H115      1.0  0.62510  0.09220  0.69650  1.0000
  H   H116      1.0  0.37490  0.09220  0.80350  1.0000
  H   H117      1.0  0.87490  0.40780  0.30350  1.0000
  H   H118      1.0  0.12510  0.40780  0.19650  1.0000
  H   H119      1.0  0.37490  0.90780  0.30350  1.0000
  H   H120      1.0  0.62510  0.90780  0.19650  1.0000
  C   C209      1.0  0.20560  0.70250  0.71640  1.0000
  C   C210      1.0  0.79440  0.70250  0.78360  1.0000
  C   C211      1.0  0.70560  0.20250  0.71640  1.0000
  C   C212      1.0  0.29440  0.20250  0.78360  1.0000
  C   C213      1.0  0.79440  0.29750  0.28360  1.0000
  C   C214      1.0  0.20560  0.29750  0.21640  1.0000
  C   C215      1.0  0.29440  0.79750  0.28360  1.0000
  C   C216      1.0  0.70560  0.79750  0.21640  1.0000
  H   H121      1.0  0.22530  0.65690  0.69760  1.0000
  H   H122      1.0  0.77470  0.65690  0.80240  1.0000
  H   H123      1.0  0.72530  0.15690  0.69760  1.0000
  H   H124      1.0  0.27470  0.15690  0.80240  1.0000
  H   H125      1.0  0.77470  0.34310  0.30240  1.0000
  H   H126      1.0  0.22530  0.34310  0.19760  1.0000
  H   H127      1.0  0.27470  0.84310  0.30240  1.0000
  H   H128      1.0  0.72530  0.84310  0.19760  1.0000
  H   H129      1.0  0.19800  0.68020  0.76040  1.0000
  H   H130      1.0  0.80200  0.68020  0.73960  1.0000
  H   H131      1.0  0.69800  0.18020  0.76040  1.0000
  H   H132      1.0  0.30200  0.18020  0.73960  1.0000
  H   H133      1.0  0.80200  0.31980  0.23960  1.0000
  H   H134      1.0  0.19800  0.31980  0.26040  1.0000
  H   H135      1.0  0.30200  0.81980  0.23960  1.0000
  H   H136      1.0  0.69800  0.81980  0.26040  1.0000
  H   H137      1.0  0.21810  0.76710  0.71980  1.0000
  H   H138      1.0  0.78190  0.76710  0.78020  1.0000
  H   H139      1.0  0.71810  0.26710  0.71980  1.0000
  H   H140      1.0  0.28190  0.26710  0.78020  1.0000
  H   H141      1.0  0.78190  0.23290  0.28020  1.0000
  H   H142      1.0  0.21810  0.23290  0.21980  1.0000
  H   H143      1.0  0.28190  0.73290  0.28020  1.0000
  H   H144      1.0  0.71810  0.73290  0.21980  1.0000
