data_image0
_chemical_formula_structural       O4Cd4O8C8H4C12H4C4H4C20H4C4H4C4H4C8H4C12H4C8H4C4O12C4O8C4O8
_chemical_formula_sum              "O40 Cd4 C92 H36"
_cell_length_a       16.495
_cell_length_b       10.1203
_cell_length_c       20.613
_cell_angle_alpha    90
_cell_angle_beta     95.377
_cell_angle_gamma    90

_space_group_name_H-M_alt    "P 1"
_space_group_IT_number       1

loop_
  _space_group_symop_operation_xyz
  'x, y, z'

loop_
  _atom_site_type_symbol
  _atom_site_label
  _atom_site_symmetry_multiplicity
  _atom_site_fract_x
  _atom_site_fract_y
  _atom_site_fract_z
  _atom_site_occupancy
  O   O1        1.0  0.05640  0.36370  0.35770  1.0000
  O   O2        1.0  0.44360  0.86370  0.14230  1.0000
  O   O3        1.0  0.94360  0.63630  0.64230  1.0000
  O   O4        1.0  0.55640  0.13630  0.85770  1.0000
  Cd  Cd1       1.0  0.96293  0.21027  0.31805  1.0000
  Cd  Cd2       1.0  0.53707  0.71027  0.18195  1.0000
  Cd  Cd3       1.0  0.03707  0.78973  0.68195  1.0000
  Cd  Cd4       1.0  0.46293  0.28973  0.81805  1.0000
  O   O5        1.0  0.95960  0.97150  0.32400  1.0000
  O   O6        1.0  0.54040  0.47150  0.17600  1.0000
  O   O7        1.0  0.04040  0.02850  0.67600  1.0000
  O   O8        1.0  0.45960  0.52850  0.82400  1.0000
  O   O9        1.0  0.06710  0.06960  0.37050  1.0000
  O   O10       1.0  0.43290  0.56960  0.12950  1.0000
  O   O11       1.0  0.93290  0.93040  0.62950  1.0000
  O   O12       1.0  0.56710  0.43040  0.87050  1.0000
  C   C1        1.0  0.16350  0.70610  0.43590  1.0000
  C   C2        1.0  0.33650  0.20610  0.06410  1.0000
  C   C3        1.0  0.83650  0.29390  0.56410  1.0000
  C   C4        1.0  0.66350  0.79390  0.93590  1.0000
  C   C5        1.0  0.13310  0.59160  0.40490  1.0000
  C   C6        1.0  0.36690  0.09160  0.09510  1.0000
  C   C7        1.0  0.86690  0.40840  0.59510  1.0000
  C   C8        1.0  0.63310  0.90840  0.90490  1.0000
  H   H1        1.0  0.15710  0.51040  0.41580  1.0000
  H   H2        1.0  0.34290  0.01040  0.08420  1.0000
  H   H3        1.0  0.84290  0.48960  0.58420  1.0000
  H   H4        1.0  0.65710  0.98960  0.91580  1.0000
  C   C9        1.0  0.06870  0.59760  0.35900  1.0000
  C   C10       1.0  0.43130  0.09760  0.14100  1.0000
  C   C11       1.0  0.93130  0.40240  0.64100  1.0000
  C   C12       1.0  0.56870  0.90240  0.85900  1.0000
  C   C13       1.0  0.23480  0.69760  0.48870  1.0000
  C   C14       1.0  0.26520  0.19760  0.01130  1.0000
  C   C15       1.0  0.76520  0.30240  0.51130  1.0000
  C   C16       1.0  0.73480  0.80240  0.98870  1.0000
  C   C17       1.0  0.03390  0.71750  0.34120  1.0000
  C   C18       1.0  0.46610  0.21750  0.15880  1.0000
  C   C19       1.0  0.96610  0.28250  0.65880  1.0000
  C   C20       1.0  0.53390  0.78250  0.84120  1.0000
  H   H5        1.0  0.98960  0.72160  0.30990  1.0000
  H   H6        1.0  0.51040  0.22160  0.19010  1.0000
  H   H7        1.0  0.01040  0.27840  0.69010  1.0000
  H   H8        1.0  0.48960  0.77840  0.80990  1.0000
  C   C21       1.0  0.12960  0.82750  0.41480  1.0000
  C   C22       1.0  0.37040  0.32750  0.08520  1.0000
  C   C23       1.0  0.87040  0.17250  0.58520  1.0000
  C   C24       1.0  0.62960  0.67250  0.91480  1.0000
  H   H9        1.0  0.15300  0.90470  0.43250  1.0000
  H   H10       1.0  0.34700  0.40470  0.06750  1.0000
  H   H11       1.0  0.84700  0.09530  0.56750  1.0000
  H   H12       1.0  0.65300  0.59530  0.93250  1.0000
  C   C25       1.0  0.06700  0.83730  0.37170  1.0000
  C   C26       1.0  0.43300  0.33730  0.12830  1.0000
  C   C27       1.0  0.93300  0.16270  0.62830  1.0000
  C   C28       1.0  0.56700  0.66270  0.87170  1.0000
  C   C29       1.0  0.38440  0.67380  0.50790  1.0000
  C   C30       1.0  0.11560  0.17380  0.99210  1.0000
  C   C31       1.0  0.61560  0.32620  0.49210  1.0000
  C   C32       1.0  0.88440  0.82620  0.00790  1.0000
  C   C33       1.0  0.22820  0.71070  0.55420  1.0000
  C   C34       1.0  0.27180  0.21070  0.94580  1.0000
  C   C35       1.0  0.77180  0.28930  0.44580  1.0000
  C   C36       1.0  0.72820  0.78930  0.05420  1.0000
  C   C37       1.0  0.02770  0.96600  0.35170  1.0000
  C   C38       1.0  0.47230  0.46600  0.14830  1.0000
  C   C39       1.0  0.97230  0.03400  0.64830  1.0000
  C   C40       1.0  0.52770  0.53400  0.85170  1.0000
  C   C41       1.0  0.29910  0.69640  0.59490  1.0000
  C   C42       1.0  0.20090  0.19640  0.90510  1.0000
  C   C43       1.0  0.70090  0.30360  0.40510  1.0000
  C   C44       1.0  0.79910  0.80360  0.09490  1.0000
  H   H13       1.0  0.29620  0.69760  0.63970  1.0000
  H   H14       1.0  0.20380  0.19760  0.86030  1.0000
  H   H15       1.0  0.70380  0.30240  0.36030  1.0000
  H   H16       1.0  0.79620  0.80240  0.13970  1.0000
  C   C45       1.0  0.31040  0.67940  0.46680  1.0000
  C   C46       1.0  0.18960  0.17940  0.03320  1.0000
  C   C47       1.0  0.68960  0.32060  0.53320  1.0000
  C   C48       1.0  0.81040  0.82060  0.96680  1.0000
  H   H17       1.0  0.31320  0.67030  0.42220  1.0000
  H   H18       1.0  0.18680  0.17030  0.07780  1.0000
  H   H19       1.0  0.68680  0.32970  0.57780  1.0000
  H   H20       1.0  0.81320  0.82970  0.92220  1.0000
  C   C49       1.0  0.53370  0.66290  0.51650  1.0000
  C   C50       1.0  0.96630  0.16290  0.98350  1.0000
  C   C51       1.0  0.46630  0.33710  0.48350  1.0000
  C   C52       1.0  0.03370  0.83710  0.01650  1.0000
  H   H21       1.0  0.53180  0.65760  0.56140  1.0000
  H   H22       1.0  0.96820  0.15760  0.93860  1.0000
  H   H23       1.0  0.46820  0.34240  0.43860  1.0000
  H   H24       1.0  0.03180  0.84240  0.06140  1.0000
  C   C53       1.0  0.46540  0.66790  0.48150  1.0000
  C   C54       1.0  0.03460  0.16790  0.01850  1.0000
  C   C55       1.0  0.53460  0.33210  0.51850  1.0000
  C   C56       1.0  0.96540  0.83210  0.98150  1.0000
  C   C57       1.0  0.61590  0.67230  0.42770  1.0000
  C   C58       1.0  0.88410  0.17230  0.07230  1.0000
  C   C59       1.0  0.38410  0.32770  0.57230  1.0000
  C   C60       1.0  0.11590  0.82770  0.92770  1.0000
  H   H25       1.0  0.66610  0.67560  0.41060  1.0000
  H   H26       1.0  0.83390  0.17560  0.08940  1.0000
  H   H27       1.0  0.33390  0.32440  0.58940  1.0000
  H   H28       1.0  0.16610  0.82440  0.91060  1.0000
  C   C61       1.0  0.60980  0.66470  0.49400  1.0000
  C   C62       1.0  0.89020  0.16470  0.00600  1.0000
  C   C63       1.0  0.39020  0.33530  0.50600  1.0000
  C   C64       1.0  0.10980  0.83530  0.99400  1.0000
  C   C65       1.0  0.54370  0.67480  0.38800  1.0000
  C   C66       1.0  0.95630  0.17480  0.11200  1.0000
  C   C67       1.0  0.45630  0.32520  0.61200  1.0000
  C   C68       1.0  0.04370  0.82520  0.88800  1.0000
  C   C69       1.0  0.46810  0.67110  0.41250  1.0000
  C   C70       1.0  0.03190  0.17110  0.08750  1.0000
  C   C71       1.0  0.53190  0.32890  0.58750  1.0000
  C   C72       1.0  0.96810  0.82890  0.91250  1.0000
  H   H29       1.0  0.42030  0.67070  0.38460  1.0000
  H   H30       1.0  0.07970  0.17070  0.11540  1.0000
  H   H31       1.0  0.57970  0.32930  0.61540  1.0000
  H   H32       1.0  0.92030  0.82930  0.88460  1.0000
  C   C73       1.0  0.14830  0.73560  0.58260  1.0000
  C   C74       1.0  0.35170  0.23560  0.91740  1.0000
  C   C75       1.0  0.85170  0.26440  0.41740  1.0000
  C   C76       1.0  0.64830  0.76440  0.08260  1.0000
  C   C77       1.0  0.37490  0.68030  0.57090  1.0000
  C   C78       1.0  0.12510  0.18030  0.92910  1.0000
  C   C79       1.0  0.62510  0.31970  0.42910  1.0000
  C   C80       1.0  0.87490  0.81970  0.07090  1.0000
  H   H33       1.0  0.42080  0.67380  0.60060  1.0000
  H   H34       1.0  0.07920  0.17380  0.89940  1.0000
  H   H35       1.0  0.57920  0.32620  0.39940  1.0000
  H   H36       1.0  0.92080  0.82620  0.10060  1.0000
  C   C81       1.0  0.68770  0.67050  0.53960  1.0000
  C   C82       1.0  0.81230  0.17050  0.96040  1.0000
  C   C83       1.0  0.31230  0.32950  0.46040  1.0000
  C   C84       1.0  0.18770  0.82950  0.03960  1.0000
  O   O13       1.0  0.75130  0.69750  0.51670  1.0000
  O   O14       1.0  0.74870  0.19750  0.98330  1.0000
  O   O15       1.0  0.24870  0.30250  0.48330  1.0000
  O   O16       1.0  0.25130  0.80250  0.01670  1.0000
  O   O17       1.0  0.68230  0.64160  0.60130  1.0000
  O   O18       1.0  0.81770  0.14160  0.89870  1.0000
  O   O19       1.0  0.31770  0.35840  0.39870  1.0000
  O   O20       1.0  0.18230  0.85840  0.10130  1.0000
  O   O21       1.0  0.08550  0.74120  0.55330  1.0000
  O   O22       1.0  0.41450  0.24120  0.94670  1.0000
  O   O23       1.0  0.91450  0.25880  0.44670  1.0000
  O   O24       1.0  0.58550  0.75880  0.05330  1.0000
  C   C85       1.0  0.54550  0.68390  0.31420  1.0000
  C   C86       1.0  0.95450  0.18390  0.18580  1.0000
  C   C87       1.0  0.45450  0.31610  0.68580  1.0000
  C   C88       1.0  0.04550  0.81610  0.81420  1.0000
  O   O25       1.0  0.60940  0.71000  0.29050  1.0000
  O   O26       1.0  0.89060  0.21000  0.20950  1.0000
  O   O27       1.0  0.39060  0.29000  0.70950  1.0000
  O   O28       1.0  0.10940  0.79000  0.79050  1.0000
  O   O29       1.0  0.47930  0.67100  0.28060  1.0000
  O   O30       1.0  0.02070  0.17100  0.21940  1.0000
  O   O31       1.0  0.52070  0.32900  0.71940  1.0000
  O   O32       1.0  0.97930  0.82900  0.78060  1.0000
  C   C89       1.0  0.02770  0.47010  0.33250  1.0000
  C   C90       1.0  0.47230  0.97010  0.16750  1.0000
  C   C91       1.0  0.97230  0.52990  0.66750  1.0000
  C   C92       1.0  0.52770  0.02990  0.83250  1.0000
  O   O33       1.0  0.97130  0.47470  0.29100  1.0000
  O   O34       1.0  0.52870  0.97470  0.20900  1.0000
  O   O35       1.0  0.02870  0.52530  0.70900  1.0000
  O   O36       1.0  0.47130  0.02530  0.79100  1.0000
  O   O37       1.0  0.15480  0.74780  0.64430  1.0000
  O   O38       1.0  0.34520  0.24780  0.85570  1.0000
  O   O39       1.0  0.84520  0.25220  0.35570  1.0000
  O   O40       1.0  0.65480  0.75220  0.14430  1.0000
