data_image0
_chemical_formula_structural       Pb8Br12O32C16H8C8H8C16H8C8H8C16
_chemical_formula_sum              "Pb8 Br12 O32 C64 H32"
_cell_length_a       13.8256
_cell_length_b       13.8256
_cell_length_c       16.3926
_cell_angle_alpha    90
_cell_angle_beta     90
_cell_angle_gamma    90

_space_group_name_H-M_alt    "P 1"
_space_group_IT_number       1

loop_
  _space_group_symop_operation_xyz
  'x, y, z'

loop_
  _atom_site_type_symbol
  _atom_site_label
  _atom_site_symmetry_multiplicity
  _atom_site_fract_x
  _atom_site_fract_y
  _atom_site_fract_z
  _atom_site_occupancy
  Pb  Pb1       1.0  0.57871  0.63007  0.32622  1.0000
  Pb  Pb2       1.0  0.42129  0.36993  0.82622  1.0000
  Pb  Pb3       1.0  0.86993  0.07871  0.07622  1.0000
  Pb  Pb4       1.0  0.13007  0.92129  0.57622  1.0000
  Pb  Pb5       1.0  0.92129  0.13007  0.42378  1.0000
  Pb  Pb6       1.0  0.07871  0.86993  0.92378  1.0000
  Pb  Pb7       1.0  0.63007  0.57871  0.67378  1.0000
  Pb  Pb8       1.0  0.36993  0.42129  0.17378  1.0000
  Br  Br1       1.0  0.51785  0.62336  0.15670  1.0000
  Br  Br2       1.0  0.48215  0.37664  0.65670  1.0000
  Br  Br3       1.0  0.87664  0.01785  0.90670  1.0000
  Br  Br4       1.0  0.12336  0.98215  0.40670  1.0000
  Br  Br5       1.0  0.98215  0.12336  0.59330  1.0000
  Br  Br6       1.0  0.01785  0.87664  0.09330  1.0000
  Br  Br7       1.0  0.62336  0.51785  0.84330  1.0000
  Br  Br8       1.0  0.37664  0.48215  0.34330  1.0000
  Br  Br9       1.0  0.67074  0.67074  0.50000  1.0000
  Br  Br10      1.0  0.32926  0.32926  0.00000  1.0000
  Br  Br11      1.0  0.82926  0.17074  0.25000  1.0000
  Br  Br12      1.0  0.17074  0.82926  0.75000  1.0000
  O   O1        1.0  0.74460  0.64710  0.27620  1.0000
  O   O2        1.0  0.25540  0.35290  0.77620  1.0000
  O   O3        1.0  0.85290  0.24460  0.02620  1.0000
  O   O4        1.0  0.14710  0.75540  0.52620  1.0000
  O   O5        1.0  0.75540  0.14710  0.47380  1.0000
  O   O6        1.0  0.24460  0.85290  0.97380  1.0000
  O   O7        1.0  0.64710  0.74460  0.72380  1.0000
  O   O8        1.0  0.35290  0.25540  0.22380  1.0000
  O   O9        1.0  0.72420  0.49480  0.31140  1.0000
  O   O10       1.0  0.27580  0.50520  0.81140  1.0000
  O   O11       1.0  0.00520  0.22420  0.06140  1.0000
  O   O12       1.0  0.99480  0.77580  0.56140  1.0000
  O   O13       1.0  0.77580  0.99480  0.43860  1.0000
  O   O14       1.0  0.22420  0.00520  0.93860  1.0000
  O   O15       1.0  0.49480  0.72420  0.68860  1.0000
  O   O16       1.0  0.50520  0.27580  0.18860  1.0000
  O   O17       1.0  0.22330  0.55110  0.16930  1.0000
  O   O18       1.0  0.77670  0.44890  0.66930  1.0000
  O   O19       1.0  0.94890  0.72330  0.91930  1.0000
  O   O20       1.0  0.05110  0.27670  0.41930  1.0000
  O   O21       1.0  0.27670  0.05110  0.58070  1.0000
  O   O22       1.0  0.72330  0.94890  0.08070  1.0000
  O   O23       1.0  0.55110  0.22330  0.83070  1.0000
  O   O24       1.0  0.44890  0.77670  0.33070  1.0000
  O   O25       1.0  0.19930  0.39620  0.19390  1.0000
  O   O26       1.0  0.80070  0.60380  0.69390  1.0000
  O   O27       1.0  0.10380  0.69930  0.94390  1.0000
  O   O28       1.0  0.89620  0.30070  0.44390  1.0000
  O   O29       1.0  0.30070  0.89620  0.55610  1.0000
  O   O30       1.0  0.69930  0.10380  0.05610  1.0000
  O   O31       1.0  0.39620  0.19930  0.80610  1.0000
  O   O32       1.0  0.60380  0.80070  0.30610  1.0000
  C   C1        1.0  0.87670  0.53920  0.25500  1.0000
  C   C2        1.0  0.12330  0.46080  0.75500  1.0000
  C   C3        1.0  0.96080  0.37670  0.00500  1.0000
  C   C4        1.0  0.03920  0.62330  0.50500  1.0000
  C   C5        1.0  0.62330  0.03920  0.49500  1.0000
  C   C6        1.0  0.37670  0.96080  0.99500  1.0000
  C   C7        1.0  0.53920  0.87670  0.74500  1.0000
  C   C8        1.0  0.46080  0.12330  0.24500  1.0000
  C   C9        1.0  0.93220  0.61110  0.22000  1.0000
  C   C10       1.0  0.06780  0.38890  0.72000  1.0000
  C   C11       1.0  0.88890  0.43220  0.97000  1.0000
  C   C12       1.0  0.11110  0.56780  0.47000  1.0000
  C   C13       1.0  0.56780  0.11110  0.53000  1.0000
  C   C14       1.0  0.43220  0.88890  0.03000  1.0000
  C   C15       1.0  0.61110  0.93220  0.78000  1.0000
  C   C16       1.0  0.38890  0.06780  0.28000  1.0000
  H   H1        1.0  0.90590  0.67230  0.21230  1.0000
  H   H2        1.0  0.09410  0.32770  0.71230  1.0000
  H   H3        1.0  0.82770  0.40590  0.96230  1.0000
  H   H4        1.0  0.17230  0.59410  0.46230  1.0000
  H   H5        1.0  0.59410  0.17230  0.53770  1.0000
  H   H6        1.0  0.40590  0.82770  0.03770  1.0000
  H   H7        1.0  0.67230  0.90590  0.78770  1.0000
  H   H8        1.0  0.32770  0.09410  0.28770  1.0000
  C   C17       1.0  0.02670  0.59310  0.19610  1.0000
  C   C18       1.0  0.97330  0.40690  0.69610  1.0000
  C   C19       1.0  0.90690  0.52670  0.94610  1.0000
  C   C20       1.0  0.09310  0.47330  0.44610  1.0000
  C   C21       1.0  0.47330  0.09310  0.55390  1.0000
  C   C22       1.0  0.52670  0.90690  0.05390  1.0000
  C   C23       1.0  0.59310  0.02670  0.80390  1.0000
  C   C24       1.0  0.40690  0.97330  0.30390  1.0000
  H   H9        1.0  0.06350  0.64160  0.17190  1.0000
  H   H10       1.0  0.93650  0.35840  0.67190  1.0000
  H   H11       1.0  0.85840  0.56350  0.92190  1.0000
  H   H12       1.0  0.14160  0.43650  0.42190  1.0000
  H   H13       1.0  0.43650  0.14160  0.57810  1.0000
  H   H14       1.0  0.56350  0.85840  0.07810  1.0000
  H   H15       1.0  0.64160  0.06350  0.82810  1.0000
  H   H16       1.0  0.35840  0.93650  0.32810  1.0000
  C   C25       1.0  0.06580  0.50130  0.20890  1.0000
  C   C26       1.0  0.93420  0.49870  0.70890  1.0000
  C   C27       1.0  0.99870  0.56580  0.95890  1.0000
  C   C28       1.0  0.00130  0.43420  0.45890  1.0000
  C   C29       1.0  0.43420  0.00130  0.54110  1.0000
  C   C30       1.0  0.56580  0.99870  0.04110  1.0000
  C   C31       1.0  0.50130  0.06580  0.79110  1.0000
  C   C32       1.0  0.49870  0.93420  0.29110  1.0000
  C   C33       1.0  0.00800  0.42900  0.24110  1.0000
  C   C34       1.0  0.99200  0.57100  0.74110  1.0000
  C   C35       1.0  0.07100  0.50800  0.99110  1.0000
  C   C36       1.0  0.92900  0.49200  0.49110  1.0000
  C   C37       1.0  0.49200  0.92900  0.50890  1.0000
  C   C38       1.0  0.50800  0.07100  0.00890  1.0000
  C   C39       1.0  0.42900  0.00800  0.75890  1.0000
  C   C40       1.0  0.57100  0.99200  0.25890  1.0000
  H   H17       1.0  0.03250  0.36680  0.24710  1.0000
  H   H18       1.0  0.96750  0.63320  0.74710  1.0000
  H   H19       1.0  0.13320  0.53250  0.99710  1.0000
  H   H20       1.0  0.86680  0.46750  0.49710  1.0000
  H   H21       1.0  0.46750  0.86680  0.50290  1.0000
  H   H22       1.0  0.53250  0.13320  0.00290  1.0000
  H   H23       1.0  0.36680  0.03250  0.75290  1.0000
  H   H24       1.0  0.63320  0.96750  0.25290  1.0000
  C   C41       1.0  0.91440  0.44870  0.26420  1.0000
  C   C42       1.0  0.08560  0.55130  0.76420  1.0000
  C   C43       1.0  0.05130  0.41440  0.01420  1.0000
  C   C44       1.0  0.94870  0.58560  0.51420  1.0000
  C   C45       1.0  0.58560  0.94870  0.48580  1.0000
  C   C46       1.0  0.41440  0.05130  0.98580  1.0000
  C   C47       1.0  0.44870  0.91440  0.73580  1.0000
  C   C48       1.0  0.55130  0.08560  0.23580  1.0000
  H   H25       1.0  0.87640  0.39970  0.28620  1.0000
  H   H26       1.0  0.12360  0.60030  0.78620  1.0000
  H   H27       1.0  0.10030  0.37640  0.03620  1.0000
  H   H28       1.0  0.89970  0.62360  0.53620  1.0000
  H   H29       1.0  0.62360  0.89970  0.46380  1.0000
  H   H30       1.0  0.37640  0.10030  0.96380  1.0000
  H   H31       1.0  0.39970  0.87640  0.71380  1.0000
  H   H32       1.0  0.60030  0.12360  0.21380  1.0000
  C   C49       1.0  0.17120  0.48230  0.19000  1.0000
  C   C50       1.0  0.82880  0.51770  0.69000  1.0000
  C   C51       1.0  0.01770  0.67120  0.94000  1.0000
  C   C52       1.0  0.98230  0.32880  0.44000  1.0000
  C   C53       1.0  0.32880  0.98230  0.56000  1.0000
  C   C54       1.0  0.67120  0.01770  0.06000  1.0000
  C   C55       1.0  0.48230  0.17120  0.81000  1.0000
  C   C56       1.0  0.51770  0.82880  0.31000  1.0000
  C   C57       1.0  0.77450  0.56260  0.28340  1.0000
  C   C58       1.0  0.22550  0.43740  0.78340  1.0000
  C   C59       1.0  0.93740  0.27450  0.03340  1.0000
  C   C60       1.0  0.06260  0.72550  0.53340  1.0000
  C   C61       1.0  0.72550  0.06260  0.46660  1.0000
  C   C62       1.0  0.27450  0.93740  0.96660  1.0000
  C   C63       1.0  0.56260  0.77450  0.71660  1.0000
  C   C64       1.0  0.43740  0.22550  0.21660  1.0000
