data_image0
_chemical_formula_structural       Pb8I12O32C24H8C8H8C16H8C8H8C8
_chemical_formula_sum              "Pb8 I12 O32 C64 H32"
_cell_length_a       13.9257
_cell_length_b       13.9257
_cell_length_c       17.035
_cell_angle_alpha    90
_cell_angle_beta     90
_cell_angle_gamma    90

_space_group_name_H-M_alt    "P 1"
_space_group_IT_number       1

loop_
  _space_group_symop_operation_xyz
  'x, y, z'

loop_
  _atom_site_type_symbol
  _atom_site_label
  _atom_site_symmetry_multiplicity
  _atom_site_fract_x
  _atom_site_fract_y
  _atom_site_fract_z
  _atom_site_occupancy
  Pb  Pb1       1.0  0.86948  0.08309  0.07251  1.0000
  Pb  Pb2       1.0  0.13052  0.91691  0.57251  1.0000
  Pb  Pb3       1.0  0.41691  0.36948  0.82251  1.0000
  Pb  Pb4       1.0  0.58309  0.63052  0.32251  1.0000
  Pb  Pb5       1.0  0.63052  0.58309  0.67749  1.0000
  Pb  Pb6       1.0  0.36948  0.41691  0.17749  1.0000
  Pb  Pb7       1.0  0.08309  0.86948  0.92749  1.0000
  Pb  Pb8       1.0  0.91691  0.13052  0.42749  1.0000
  I   I1        1.0  0.82955  0.17045  0.25000  1.0000
  I   I2        1.0  0.17045  0.82955  0.75000  1.0000
  I   I3        1.0  0.32955  0.32955  0.00000  1.0000
  I   I4        1.0  0.67045  0.67045  0.50000  1.0000
  I   I5        1.0  0.87673  0.02048  0.89657  1.0000
  I   I6        1.0  0.12327  0.97952  0.39657  1.0000
  I   I7        1.0  0.47952  0.37673  0.64657  1.0000
  I   I8        1.0  0.52048  0.62327  0.14657  1.0000
  I   I9        1.0  0.62327  0.52048  0.85343  1.0000
  I   I10       1.0  0.37673  0.47952  0.35343  1.0000
  I   I11       1.0  0.02048  0.87673  0.10343  1.0000
  I   I12       1.0  0.97952  0.12327  0.60343  1.0000
  O   O1        1.0  0.00440  0.22760  0.06080  1.0000
  O   O2        1.0  0.99560  0.77240  0.56080  1.0000
  O   O3        1.0  0.27240  0.50440  0.81080  1.0000
  O   O4        1.0  0.72760  0.49560  0.31080  1.0000
  O   O5        1.0  0.49560  0.72760  0.68920  1.0000
  O   O6        1.0  0.50440  0.27240  0.18920  1.0000
  O   O7        1.0  0.22760  0.00440  0.93920  1.0000
  O   O8        1.0  0.77240  0.99560  0.43920  1.0000
  O   O9        1.0  0.85240  0.24960  0.02820  1.0000
  O   O10       1.0  0.14760  0.75040  0.52820  1.0000
  O   O11       1.0  0.25040  0.35240  0.77820  1.0000
  O   O12       1.0  0.74960  0.64760  0.27820  1.0000
  O   O13       1.0  0.64760  0.74960  0.72180  1.0000
  O   O14       1.0  0.35240  0.25040  0.22180  1.0000
  O   O15       1.0  0.24960  0.85240  0.97180  1.0000
  O   O16       1.0  0.75040  0.14760  0.47180  1.0000
  O   O17       1.0  0.10630  0.69890  0.94520  1.0000
  O   O18       1.0  0.89370  0.30110  0.44520  1.0000
  O   O19       1.0  0.80110  0.60630  0.69520  1.0000
  O   O20       1.0  0.19890  0.39370  0.19520  1.0000
  O   O21       1.0  0.39370  0.19890  0.80480  1.0000
  O   O22       1.0  0.60630  0.80110  0.30480  1.0000
  O   O23       1.0  0.69890  0.10630  0.05480  1.0000
  O   O24       1.0  0.30110  0.89370  0.55480  1.0000
  O   O25       1.0  0.95340  0.72500  0.92280  1.0000
  O   O26       1.0  0.04660  0.27500  0.42280  1.0000
  O   O27       1.0  0.77500  0.45340  0.67280  1.0000
  O   O28       1.0  0.22500  0.54660  0.17280  1.0000
  O   O29       1.0  0.54660  0.22500  0.82720  1.0000
  O   O30       1.0  0.45340  0.77500  0.32720  1.0000
  O   O31       1.0  0.72500  0.95340  0.07720  1.0000
  O   O32       1.0  0.27500  0.04660  0.57720  1.0000
  C   C1        1.0  0.93790  0.27830  0.03520  1.0000
  C   C2        1.0  0.06210  0.72170  0.53520  1.0000
  C   C3        1.0  0.22170  0.43790  0.78520  1.0000
  C   C4        1.0  0.77830  0.56210  0.28520  1.0000
  C   C5        1.0  0.56210  0.77830  0.71480  1.0000
  C   C6        1.0  0.43790  0.22170  0.21480  1.0000
  C   C7        1.0  0.27830  0.93790  0.96480  1.0000
  C   C8        1.0  0.72170  0.06210  0.46480  1.0000
  C   C9        1.0  0.95990  0.38060  0.00790  1.0000
  C   C10       1.0  0.04010  0.61940  0.50790  1.0000
  C   C11       1.0  0.11940  0.45990  0.75790  1.0000
  C   C12       1.0  0.88060  0.54010  0.25790  1.0000
  C   C13       1.0  0.54010  0.88060  0.74210  1.0000
  C   C14       1.0  0.45990  0.11940  0.24210  1.0000
  C   C15       1.0  0.38060  0.95990  0.99210  1.0000
  C   C16       1.0  0.61940  0.04010  0.49210  1.0000
  C   C17       1.0  0.04960  0.41850  0.02020  1.0000
  C   C18       1.0  0.95040  0.58150  0.52020  1.0000
  C   C19       1.0  0.08150  0.54960  0.77020  1.0000
  C   C20       1.0  0.91850  0.45040  0.27020  1.0000
  C   C21       1.0  0.45040  0.91850  0.72980  1.0000
  C   C22       1.0  0.54960  0.08150  0.22980  1.0000
  C   C23       1.0  0.41850  0.04960  0.97980  1.0000
  C   C24       1.0  0.58150  0.95040  0.47980  1.0000
  H   H1        1.0  0.09700  0.38150  0.04380  1.0000
  H   H2        1.0  0.90300  0.61850  0.54380  1.0000
  H   H3        1.0  0.11850  0.59700  0.79380  1.0000
  H   H4        1.0  0.88150  0.40300  0.29380  1.0000
  H   H5        1.0  0.40300  0.88150  0.70620  1.0000
  H   H6        1.0  0.59700  0.11850  0.20620  1.0000
  H   H7        1.0  0.38150  0.09700  0.95620  1.0000
  H   H8        1.0  0.61850  0.90300  0.45620  1.0000
  C   C25       1.0  0.06950  0.51210  0.99740  1.0000
  C   C26       1.0  0.93050  0.48790  0.49740  1.0000
  C   C27       1.0  0.98790  0.56950  0.74740  1.0000
  C   C28       1.0  0.01210  0.43050  0.24740  1.0000
  C   C29       1.0  0.43050  0.01210  0.75260  1.0000
  C   C30       1.0  0.56950  0.98790  0.25260  1.0000
  C   C31       1.0  0.51210  0.06950  0.00260  1.0000
  C   C32       1.0  0.48790  0.93050  0.50260  1.0000
  H   H9        1.0  0.13060  0.53720  0.00550  1.0000
  H   H10       1.0  0.86940  0.46280  0.50550  1.0000
  H   H11       1.0  0.96280  0.63060  0.75550  1.0000
  H   H12       1.0  0.03720  0.36940  0.25550  1.0000
  H   H13       1.0  0.36940  0.03720  0.74450  1.0000
  H   H14       1.0  0.63060  0.96280  0.24450  1.0000
  H   H15       1.0  0.53720  0.13060  0.99450  1.0000
  H   H16       1.0  0.46280  0.86940  0.49450  1.0000
  C   C33       1.0  0.00010  0.56800  0.96290  1.0000
  C   C34       1.0  0.99990  0.43200  0.46290  1.0000
  C   C35       1.0  0.93200  0.50010  0.71290  1.0000
  C   C36       1.0  0.06800  0.49990  0.21290  1.0000
  C   C37       1.0  0.49990  0.06800  0.78710  1.0000
  C   C38       1.0  0.50010  0.93200  0.28710  1.0000
  C   C39       1.0  0.56800  0.00010  0.03710  1.0000
  C   C40       1.0  0.43200  0.99990  0.53710  1.0000
  C   C41       1.0  0.90990  0.52820  0.94830  1.0000
  C   C42       1.0  0.09010  0.47180  0.44830  1.0000
  C   C43       1.0  0.97180  0.40990  0.69830  1.0000
  C   C44       1.0  0.02820  0.59010  0.19830  1.0000
  C   C45       1.0  0.59010  0.02820  0.80170  1.0000
  C   C46       1.0  0.40990  0.97180  0.30170  1.0000
  C   C47       1.0  0.52820  0.90990  0.05170  1.0000
  C   C48       1.0  0.47180  0.09010  0.55170  1.0000
  H   H17       1.0  0.86290  0.56420  0.92310  1.0000
  H   H18       1.0  0.13710  0.43580  0.42310  1.0000
  H   H19       1.0  0.93580  0.36290  0.67310  1.0000
  H   H20       1.0  0.06420  0.63710  0.17310  1.0000
  H   H21       1.0  0.63710  0.06420  0.82690  1.0000
  H   H22       1.0  0.36290  0.93580  0.32690  1.0000
  H   H23       1.0  0.56420  0.86290  0.07690  1.0000
  H   H24       1.0  0.43580  0.13710  0.57690  1.0000
  C   C49       1.0  0.89080  0.43600  0.97140  1.0000
  C   C50       1.0  0.10920  0.56400  0.47140  1.0000
  C   C51       1.0  0.06400  0.39080  0.72140  1.0000
  C   C52       1.0  0.93600  0.60920  0.22140  1.0000
  C   C53       1.0  0.60920  0.93600  0.77860  1.0000
  C   C54       1.0  0.39080  0.06400  0.27860  1.0000
  C   C55       1.0  0.43600  0.89080  0.02860  1.0000
  C   C56       1.0  0.56400  0.10920  0.52860  1.0000
  H   H25       1.0  0.83030  0.41010  0.96230  1.0000
  H   H26       1.0  0.16970  0.58990  0.46230  1.0000
  H   H27       1.0  0.08990  0.33030  0.71230  1.0000
  H   H28       1.0  0.91010  0.66970  0.21230  1.0000
  H   H29       1.0  0.66970  0.91010  0.78770  1.0000
  H   H30       1.0  0.33030  0.08990  0.28770  1.0000
  H   H31       1.0  0.41010  0.83030  0.03770  1.0000
  H   H32       1.0  0.58990  0.16970  0.53770  1.0000
  C   C57       1.0  0.02060  0.66960  0.94210  1.0000
  C   C58       1.0  0.97940  0.33040  0.44210  1.0000
  C   C59       1.0  0.83040  0.52060  0.69210  1.0000
  C   C60       1.0  0.16960  0.47940  0.19210  1.0000
  C   C61       1.0  0.47940  0.16960  0.80790  1.0000
  C   C62       1.0  0.52060  0.83040  0.30790  1.0000
  C   C63       1.0  0.66960  0.02060  0.05790  1.0000
  C   C64       1.0  0.33040  0.97940  0.55790  1.0000
