data_image0
_chemical_formula_structural       Pb8I12O32C24H8C8H8C24H8C8H8
_chemical_formula_sum              "Pb8 I12 O32 C64 H32"
_cell_length_a       13.919
_cell_length_b       13.919
_cell_length_c       17.003
_cell_angle_alpha    90
_cell_angle_beta     90
_cell_angle_gamma    90

_space_group_name_H-M_alt    "P 1"
_space_group_IT_number       1

loop_
  _space_group_symop_operation_xyz
  'x, y, z'

loop_
  _atom_site_type_symbol
  _atom_site_label
  _atom_site_symmetry_multiplicity
  _atom_site_fract_x
  _atom_site_fract_y
  _atom_site_fract_z
  _atom_site_occupancy
  Pb  Pb1       1.0  0.63055  0.58305  0.32248  1.0000
  Pb  Pb2       1.0  0.36945  0.41695  0.82248  1.0000
  Pb  Pb3       1.0  0.91695  0.13055  0.57248  1.0000
  Pb  Pb4       1.0  0.08305  0.86945  0.07248  1.0000
  Pb  Pb5       1.0  0.86945  0.08305  0.92752  1.0000
  Pb  Pb6       1.0  0.13055  0.91695  0.42752  1.0000
  Pb  Pb7       1.0  0.41695  0.36945  0.17752  1.0000
  Pb  Pb8       1.0  0.58305  0.63055  0.67752  1.0000
  I   I1        1.0  0.62326  0.52048  0.14659  1.0000
  I   I2        1.0  0.37674  0.47952  0.64659  1.0000
  I   I3        1.0  0.97952  0.12326  0.39659  1.0000
  I   I4        1.0  0.02048  0.87674  0.89659  1.0000
  I   I5        1.0  0.87674  0.02048  0.10341  1.0000
  I   I6        1.0  0.12326  0.97952  0.60341  1.0000
  I   I7        1.0  0.47952  0.37674  0.35341  1.0000
  I   I8        1.0  0.52048  0.62326  0.85341  1.0000
  I   I9        1.0  0.67039  0.67039  0.50000  1.0000
  I   I10       1.0  0.32961  0.32961  0.00000  1.0000
  I   I11       1.0  0.82961  0.17039  0.75000  1.0000
  I   I12       1.0  0.17039  0.82961  0.25000  1.0000
  O   O1        1.0  0.49590  0.72760  0.31060  1.0000
  O   O2        1.0  0.50410  0.27240  0.81060  1.0000
  O   O3        1.0  0.77240  0.99590  0.56060  1.0000
  O   O4        1.0  0.22760  0.00410  0.06060  1.0000
  O   O5        1.0  0.00410  0.22760  0.93940  1.0000
  O   O6        1.0  0.99590  0.77240  0.43940  1.0000
  O   O7        1.0  0.27240  0.50410  0.18940  1.0000
  O   O8        1.0  0.72760  0.49590  0.68940  1.0000
  O   O9        1.0  0.64780  0.74940  0.27810  1.0000
  O   O10       1.0  0.35220  0.25060  0.77810  1.0000
  O   O11       1.0  0.75060  0.14780  0.52810  1.0000
  O   O12       1.0  0.24940  0.85220  0.02810  1.0000
  O   O13       1.0  0.85220  0.24940  0.97190  1.0000
  O   O14       1.0  0.14780  0.75060  0.47190  1.0000
  O   O15       1.0  0.25060  0.35220  0.22190  1.0000
  O   O16       1.0  0.74940  0.64780  0.72190  1.0000
  O   O17       1.0  0.54700  0.22500  0.17260  1.0000
  O   O18       1.0  0.45300  0.77500  0.67260  1.0000
  O   O19       1.0  0.27500  0.04700  0.42260  1.0000
  O   O20       1.0  0.72500  0.95300  0.92260  1.0000
  O   O21       1.0  0.95300  0.72500  0.07740  1.0000
  O   O22       1.0  0.04700  0.27500  0.57740  1.0000
  O   O23       1.0  0.77500  0.45300  0.32740  1.0000
  O   O24       1.0  0.22500  0.54700  0.82740  1.0000
  O   O25       1.0  0.39370  0.19900  0.19530  1.0000
  O   O26       1.0  0.60630  0.80100  0.69530  1.0000
  O   O27       1.0  0.30100  0.89370  0.44530  1.0000
  O   O28       1.0  0.69900  0.10630  0.94530  1.0000
  O   O29       1.0  0.10630  0.69900  0.05470  1.0000
  O   O30       1.0  0.89370  0.30100  0.55470  1.0000
  O   O31       1.0  0.80100  0.60630  0.30470  1.0000
  O   O32       1.0  0.19900  0.39370  0.80470  1.0000
  C   C1        1.0  0.56190  0.77880  0.28490  1.0000
  C   C2        1.0  0.43810  0.22120  0.78490  1.0000
  C   C3        1.0  0.72120  0.06190  0.53490  1.0000
  C   C4        1.0  0.27880  0.93810  0.03490  1.0000
  C   C5        1.0  0.93810  0.27880  0.96510  1.0000
  C   C6        1.0  0.06190  0.72120  0.46510  1.0000
  C   C7        1.0  0.22120  0.43810  0.21510  1.0000
  C   C8        1.0  0.77880  0.56190  0.71510  1.0000
  C   C9        1.0  0.54010  0.88060  0.25810  1.0000
  C   C10       1.0  0.45990  0.11940  0.75810  1.0000
  C   C11       1.0  0.61940  0.04010  0.50810  1.0000
  C   C12       1.0  0.38060  0.95990  0.00810  1.0000
  C   C13       1.0  0.95990  0.38060  0.99190  1.0000
  C   C14       1.0  0.04010  0.61940  0.49190  1.0000
  C   C15       1.0  0.11940  0.45990  0.24190  1.0000
  C   C16       1.0  0.88060  0.54010  0.74190  1.0000
  C   C17       1.0  0.45080  0.91850  0.27000  1.0000
  C   C18       1.0  0.54920  0.08150  0.77000  1.0000
  C   C19       1.0  0.58150  0.95080  0.52000  1.0000
  C   C20       1.0  0.41850  0.04920  0.02000  1.0000
  C   C21       1.0  0.04920  0.41850  0.98000  1.0000
  C   C22       1.0  0.95080  0.58150  0.48000  1.0000
  C   C23       1.0  0.08150  0.54920  0.23000  1.0000
  C   C24       1.0  0.91850  0.45080  0.73000  1.0000
  H   H1        1.0  0.40314  0.88112  0.29318  1.0000
  H   H2        1.0  0.59686  0.11888  0.79318  1.0000
  H   H3        1.0  0.61888  0.90314  0.54318  1.0000
  H   H4        1.0  0.38112  0.09686  0.04318  1.0000
  H   H5        1.0  0.09686  0.38112  0.95682  1.0000
  H   H6        1.0  0.90314  0.61888  0.45682  1.0000
  H   H7        1.0  0.11888  0.59686  0.20682  1.0000
  H   H8        1.0  0.88112  0.40314  0.70682  1.0000
  C   C25       1.0  0.43040  0.01240  0.24770  1.0000
  C   C26       1.0  0.56960  0.98760  0.74770  1.0000
  C   C27       1.0  0.48760  0.93040  0.49770  1.0000
  C   C28       1.0  0.51240  0.06960  0.99770  1.0000
  C   C29       1.0  0.06960  0.51240  0.00230  1.0000
  C   C30       1.0  0.93040  0.48760  0.50230  1.0000
  C   C31       1.0  0.98760  0.56960  0.25230  1.0000
  C   C32       1.0  0.01240  0.43040  0.75230  1.0000
  H   H9        1.0  0.36952  0.03762  0.25652  1.0000
  H   H10       1.0  0.63048  0.96238  0.75652  1.0000
  H   H11       1.0  0.46238  0.86952  0.50652  1.0000
  H   H12       1.0  0.53762  0.13048  0.00652  1.0000
  H   H13       1.0  0.13048  0.53762  0.99348  1.0000
  H   H14       1.0  0.86952  0.46238  0.49348  1.0000
  H   H15       1.0  0.96238  0.63048  0.24348  1.0000
  H   H16       1.0  0.03762  0.36952  0.74348  1.0000
  C   C33       1.0  0.49960  0.06790  0.21270  1.0000
  C   C34       1.0  0.50040  0.93210  0.71270  1.0000
  C   C35       1.0  0.43210  0.99960  0.46270  1.0000
  C   C36       1.0  0.56790  0.00040  0.96270  1.0000
  C   C37       1.0  0.00040  0.56790  0.03730  1.0000
  C   C38       1.0  0.99960  0.43210  0.53730  1.0000
  C   C39       1.0  0.93210  0.50040  0.28730  1.0000
  C   C40       1.0  0.06790  0.49960  0.78730  1.0000
  C   C41       1.0  0.47970  0.17040  0.19170  1.0000
  C   C42       1.0  0.52030  0.82960  0.69170  1.0000
  C   C43       1.0  0.32960  0.97970  0.44170  1.0000
  C   C44       1.0  0.67040  0.02030  0.94170  1.0000
  C   C45       1.0  0.02030  0.67040  0.05830  1.0000
  C   C46       1.0  0.97970  0.32960  0.55830  1.0000
  C   C47       1.0  0.82960  0.52030  0.30830  1.0000
  C   C48       1.0  0.17040  0.47970  0.80830  1.0000
  C   C49       1.0  0.59000  0.02850  0.19820  1.0000
  C   C50       1.0  0.41000  0.97150  0.69820  1.0000
  C   C51       1.0  0.47150  0.09000  0.44820  1.0000
  C   C52       1.0  0.52850  0.91000  0.94820  1.0000
  C   C53       1.0  0.91000  0.52850  0.05180  1.0000
  C   C54       1.0  0.09000  0.47150  0.55180  1.0000
  C   C55       1.0  0.97150  0.41000  0.30180  1.0000
  C   C56       1.0  0.02850  0.59000  0.80180  1.0000
  H   H17       1.0  0.63697  0.06485  0.17305  1.0000
  H   H18       1.0  0.36303  0.93515  0.67305  1.0000
  H   H19       1.0  0.43515  0.13697  0.42305  1.0000
  H   H20       1.0  0.56485  0.86303  0.92305  1.0000
  H   H21       1.0  0.86303  0.56485  0.07695  1.0000
  H   H22       1.0  0.13697  0.43515  0.57695  1.0000
  H   H23       1.0  0.93515  0.36303  0.32695  1.0000
  H   H24       1.0  0.06485  0.63697  0.82695  1.0000
  C   C57       1.0  0.60960  0.93530  0.22130  1.0000
  C   C58       1.0  0.39040  0.06470  0.72130  1.0000
  C   C59       1.0  0.56470  0.10960  0.47130  1.0000
  C   C60       1.0  0.43530  0.89040  0.97130  1.0000
  C   C61       1.0  0.89040  0.43530  0.02870  1.0000
  C   C62       1.0  0.10960  0.56470  0.52870  1.0000
  C   C63       1.0  0.06470  0.39040  0.27870  1.0000
  C   C64       1.0  0.93530  0.60960  0.77870  1.0000
  H   H25       1.0  0.67000  0.90918  0.21192  1.0000
  H   H26       1.0  0.33000  0.09082  0.71192  1.0000
  H   H27       1.0  0.59082  0.17000  0.46192  1.0000
  H   H28       1.0  0.40918  0.83000  0.96192  1.0000
  H   H29       1.0  0.83000  0.40918  0.03808  1.0000
  H   H30       1.0  0.17000  0.59082  0.53808  1.0000
  H   H31       1.0  0.09082  0.33000  0.28808  1.0000
  H   H32       1.0  0.90918  0.67000  0.78808  1.0000
