data_image0
_chemical_formula_structural       Pb8Br12O32C24H8C8H8C8H8C8H8C16
_chemical_formula_sum              "Pb8 Br12 O32 C64 H32"
_cell_length_a       13.8177
_cell_length_b       13.8177
_cell_length_c       16.3601
_cell_angle_alpha    90
_cell_angle_beta     90
_cell_angle_gamma    90

_space_group_name_H-M_alt    "P 1"
_space_group_IT_number       1

loop_
  _space_group_symop_operation_xyz
  'x, y, z'

loop_
  _atom_site_type_symbol
  _atom_site_label
  _atom_site_symmetry_multiplicity
  _atom_site_fract_x
  _atom_site_fract_y
  _atom_site_fract_z
  _atom_site_occupancy
  Pb  Pb1       1.0  0.12932  0.92154  0.42366  1.0000
  Pb  Pb2       1.0  0.87068  0.07846  0.92366  1.0000
  Pb  Pb3       1.0  0.57846  0.62932  0.67366  1.0000
  Pb  Pb4       1.0  0.42154  0.37068  0.17366  1.0000
  Pb  Pb5       1.0  0.37068  0.42154  0.82634  1.0000
  Pb  Pb6       1.0  0.62932  0.57846  0.32634  1.0000
  Pb  Pb7       1.0  0.07846  0.87068  0.07634  1.0000
  Pb  Pb8       1.0  0.92154  0.12932  0.57634  1.0000
  Br  Br1       1.0  0.17007  0.82993  0.25000  1.0000
  Br  Br2       1.0  0.82993  0.17007  0.75000  1.0000
  Br  Br3       1.0  0.67007  0.67007  0.50000  1.0000
  Br  Br4       1.0  0.32993  0.32993  0.00000  1.0000
  Br  Br5       1.0  0.12325  0.98172  0.59320  1.0000
  Br  Br6       1.0  0.87675  0.01828  0.09320  1.0000
  Br  Br7       1.0  0.51828  0.62325  0.84320  1.0000
  Br  Br8       1.0  0.48172  0.37675  0.34320  1.0000
  Br  Br9       1.0  0.37675  0.48172  0.65680  1.0000
  Br  Br10      1.0  0.62325  0.51828  0.15680  1.0000
  Br  Br11      1.0  0.01828  0.87675  0.90680  1.0000
  Br  Br12      1.0  0.98172  0.12325  0.40680  1.0000
  O   O1        1.0  0.27560  0.05110  0.41870  1.0000
  O   O2        1.0  0.72440  0.94890  0.91870  1.0000
  O   O3        1.0  0.44890  0.77560  0.66870  1.0000
  O   O4        1.0  0.55110  0.22440  0.16870  1.0000
  O   O5        1.0  0.22440  0.55110  0.83130  1.0000
  O   O6        1.0  0.77560  0.44890  0.33130  1.0000
  O   O7        1.0  0.94890  0.72440  0.08130  1.0000
  O   O8        1.0  0.05110  0.27560  0.58130  1.0000
  O   O9        1.0  0.30020  0.89710  0.44380  1.0000
  O   O10       1.0  0.69980  0.10290  0.94380  1.0000
  O   O11       1.0  0.60290  0.80020  0.69380  1.0000
  O   O12       1.0  0.39710  0.19980  0.19380  1.0000
  O   O13       1.0  0.19980  0.39710  0.80620  1.0000
  O   O14       1.0  0.80020  0.60290  0.30620  1.0000
  O   O15       1.0  0.10290  0.69980  0.05620  1.0000
  O   O16       1.0  0.89710  0.30020  0.55620  1.0000
  O   O17       1.0  0.75420  0.14600  0.52650  1.0000
  O   O18       1.0  0.24580  0.85400  0.02650  1.0000
  O   O19       1.0  0.35400  0.25420  0.77650  1.0000
  O   O20       1.0  0.64600  0.74580  0.27650  1.0000
  O   O21       1.0  0.74580  0.64600  0.72350  1.0000
  O   O22       1.0  0.25420  0.35400  0.22350  1.0000
  O   O23       1.0  0.85400  0.24580  0.97350  1.0000
  O   O24       1.0  0.14600  0.75420  0.47350  1.0000
  O   O25       1.0  0.77500  0.99470  0.56130  1.0000
  O   O26       1.0  0.22500  0.00530  0.06130  1.0000
  O   O27       1.0  0.50530  0.27500  0.81130  1.0000
  O   O28       1.0  0.49470  0.72500  0.31130  1.0000
  O   O29       1.0  0.72500  0.49470  0.68870  1.0000
  O   O30       1.0  0.27500  0.50530  0.18870  1.0000
  O   O31       1.0  0.00530  0.22500  0.93870  1.0000
  O   O32       1.0  0.99470  0.77500  0.43870  1.0000
  C   C1        1.0  0.32830  0.98180  0.43910  1.0000
  C   C2        1.0  0.67170  0.01820  0.93910  1.0000
  C   C3        1.0  0.51820  0.82830  0.68910  1.0000
  C   C4        1.0  0.48180  0.17170  0.18910  1.0000
  C   C5        1.0  0.17170  0.48180  0.81090  1.0000
  C   C6        1.0  0.82830  0.51820  0.31090  1.0000
  C   C7        1.0  0.01820  0.67170  0.06090  1.0000
  C   C8        1.0  0.98180  0.32830  0.56090  1.0000
  C   C9        1.0  0.43430  0.00120  0.45850  1.0000
  C   C10       1.0  0.56570  0.99880  0.95850  1.0000
  C   C11       1.0  0.49880  0.93430  0.70850  1.0000
  C   C12       1.0  0.50120  0.06570  0.20850  1.0000
  C   C13       1.0  0.06570  0.50120  0.79150  1.0000
  C   C14       1.0  0.93430  0.49880  0.29150  1.0000
  C   C15       1.0  0.99880  0.56570  0.04150  1.0000
  C   C16       1.0  0.00120  0.43430  0.54150  1.0000
  C   C17       1.0  0.47340  0.09230  0.44610  1.0000
  C   C18       1.0  0.52660  0.90770  0.94610  1.0000
  C   C19       1.0  0.40770  0.97340  0.69610  1.0000
  C   C20       1.0  0.59230  0.02660  0.19610  1.0000
  C   C21       1.0  0.02660  0.59230  0.80390  1.0000
  C   C22       1.0  0.97340  0.40770  0.30390  1.0000
  C   C23       1.0  0.90770  0.52660  0.05390  1.0000
  C   C24       1.0  0.09230  0.47340  0.55390  1.0000
  H   H1        1.0  0.43660  0.14067  0.42179  1.0000
  H   H2        1.0  0.56340  0.85933  0.92179  1.0000
  H   H3        1.0  0.35933  0.93660  0.67179  1.0000
  H   H4        1.0  0.64067  0.06340  0.17179  1.0000
  H   H5        1.0  0.06340  0.64067  0.82821  1.0000
  H   H6        1.0  0.93660  0.35933  0.32821  1.0000
  H   H7        1.0  0.85933  0.56340  0.07821  1.0000
  H   H8        1.0  0.14067  0.43660  0.57821  1.0000
  C   C25       1.0  0.56660  0.11080  0.46990  1.0000
  C   C26       1.0  0.43340  0.88920  0.96990  1.0000
  C   C27       1.0  0.38920  0.06660  0.71990  1.0000
  C   C28       1.0  0.61080  0.93340  0.21990  1.0000
  C   C29       1.0  0.93340  0.61080  0.78010  1.0000
  C   C30       1.0  0.06660  0.38920  0.28010  1.0000
  C   C31       1.0  0.88920  0.43340  0.03010  1.0000
  C   C32       1.0  0.11080  0.56660  0.53010  1.0000
  H   H9        1.0  0.59234  0.17227  0.46213  1.0000
  H   H10       1.0  0.40766  0.82773  0.96213  1.0000
  H   H11       1.0  0.32773  0.09234  0.71213  1.0000
  H   H12       1.0  0.67227  0.90766  0.21213  1.0000
  H   H13       1.0  0.90766  0.67227  0.78787  1.0000
  H   H14       1.0  0.09234  0.32773  0.28787  1.0000
  H   H15       1.0  0.82773  0.40766  0.03787  1.0000
  H   H16       1.0  0.17227  0.59234  0.53787  1.0000
  C   C33       1.0  0.49130  0.92900  0.49090  1.0000
  C   C34       1.0  0.50870  0.07100  0.99090  1.0000
  C   C35       1.0  0.57100  0.99130  0.74090  1.0000
  C   C36       1.0  0.42900  0.00870  0.24090  1.0000
  C   C37       1.0  0.00870  0.42900  0.75910  1.0000
  C   C38       1.0  0.99130  0.57100  0.25910  1.0000
  C   C39       1.0  0.07100  0.50870  0.00910  1.0000
  C   C40       1.0  0.92900  0.49130  0.50910  1.0000
  H   H17       1.0  0.46677  0.86668  0.49655  1.0000
  H   H18       1.0  0.53323  0.13332  0.99655  1.0000
  H   H19       1.0  0.63332  0.96677  0.74655  1.0000
  H   H20       1.0  0.36668  0.03323  0.24655  1.0000
  H   H21       1.0  0.03323  0.36668  0.75345  1.0000
  H   H22       1.0  0.96677  0.63332  0.25345  1.0000
  H   H23       1.0  0.13332  0.53323  0.00345  1.0000
  H   H24       1.0  0.86668  0.46677  0.50345  1.0000
  C   C41       1.0  0.58440  0.94890  0.51500  1.0000
  C   C42       1.0  0.41560  0.05110  0.01500  1.0000
  C   C43       1.0  0.55110  0.08440  0.76500  1.0000
  C   C44       1.0  0.44890  0.91560  0.26500  1.0000
  C   C45       1.0  0.91560  0.44890  0.73500  1.0000
  C   C46       1.0  0.08440  0.55110  0.23500  1.0000
  C   C47       1.0  0.05110  0.41560  0.98500  1.0000
  C   C48       1.0  0.94890  0.58440  0.48500  1.0000
  H   H25       1.0  0.62208  0.90038  0.53823  1.0000
  H   H26       1.0  0.37792  0.09962  0.03823  1.0000
  H   H27       1.0  0.59962  0.12208  0.78823  1.0000
  H   H28       1.0  0.40038  0.87792  0.28823  1.0000
  H   H29       1.0  0.87792  0.40038  0.71177  1.0000
  H   H30       1.0  0.12208  0.59962  0.21177  1.0000
  H   H31       1.0  0.09962  0.37792  0.96177  1.0000
  H   H32       1.0  0.90038  0.62208  0.46177  1.0000
  C   C49       1.0  0.72590  0.06240  0.53390  1.0000
  C   C50       1.0  0.27410  0.93760  0.03390  1.0000
  C   C51       1.0  0.43760  0.22590  0.78390  1.0000
  C   C52       1.0  0.56240  0.77410  0.28390  1.0000
  C   C53       1.0  0.77410  0.56240  0.71610  1.0000
  C   C54       1.0  0.22590  0.43760  0.21610  1.0000
  C   C55       1.0  0.93760  0.27410  0.96610  1.0000
  C   C56       1.0  0.06240  0.72590  0.46610  1.0000
  C   C57       1.0  0.62250  0.04030  0.50480  1.0000
  C   C58       1.0  0.37750  0.95970  0.00480  1.0000
  C   C59       1.0  0.45970  0.12250  0.75480  1.0000
  C   C60       1.0  0.54030  0.87750  0.25480  1.0000
  C   C61       1.0  0.87750  0.54030  0.74520  1.0000
  C   C62       1.0  0.12250  0.45970  0.24520  1.0000
  C   C63       1.0  0.95970  0.37750  0.99520  1.0000
  C   C64       1.0  0.04030  0.62250  0.49520  1.0000
