data_image0
_chemical_formula_structural       Mn8C16H8C16H8C16H8C24O48
_chemical_formula_sum              "Mn8 C72 H24 O48"
_cell_length_a       12.6991
_cell_length_b       15.5711
_cell_length_c       16.3313
_cell_angle_alpha    90
_cell_angle_beta     90
_cell_angle_gamma    90

_space_group_name_H-M_alt    "P 1"
_space_group_IT_number       1

loop_
  _space_group_symop_operation_xyz
  'x, y, z'

loop_
  _atom_site_type_symbol
  _atom_site_label
  _atom_site_symmetry_multiplicity
  _atom_site_fract_x
  _atom_site_fract_y
  _atom_site_fract_z
  _atom_site_occupancy
  Mn  Mn1       1.0  0.60058  0.00472  0.58878  1.0000
  Mn  Mn2       1.0  0.89942  0.99528  0.08878  1.0000
  Mn  Mn3       1.0  0.39942  0.50472  0.91122  1.0000
  Mn  Mn4       1.0  0.10058  0.49528  0.41122  1.0000
  Mn  Mn5       1.0  0.39942  0.99528  0.41122  1.0000
  Mn  Mn6       1.0  0.10058  0.00472  0.91122  1.0000
  Mn  Mn7       1.0  0.60058  0.49528  0.08878  1.0000
  Mn  Mn8       1.0  0.89942  0.50472  0.58878  1.0000
  C   C1        1.0  0.70445  0.36659  0.45226  1.0000
  C   C2        1.0  0.79555  0.63341  0.95226  1.0000
  C   C3        1.0  0.29555  0.86659  0.04774  1.0000
  C   C4        1.0  0.20445  0.13341  0.54774  1.0000
  C   C5        1.0  0.29555  0.63341  0.54774  1.0000
  C   C6        1.0  0.20445  0.36659  0.04774  1.0000
  C   C7        1.0  0.70445  0.13341  0.95226  1.0000
  C   C8        1.0  0.79555  0.86659  0.45226  1.0000
  C   C9        1.0  0.69328  0.41351  0.37558  1.0000
  C   C10       1.0  0.80672  0.58649  0.87558  1.0000
  C   C11       1.0  0.30672  0.91351  0.12442  1.0000
  C   C12       1.0  0.19328  0.08649  0.62442  1.0000
  C   C13       1.0  0.30672  0.58649  0.62442  1.0000
  C   C14       1.0  0.19328  0.41351  0.12442  1.0000
  C   C15       1.0  0.69328  0.08649  0.87558  1.0000
  C   C16       1.0  0.80672  0.91351  0.37558  1.0000
  H   H1        1.0  0.72230  0.46750  0.36660  1.0000
  H   H2        1.0  0.77770  0.53250  0.86660  1.0000
  H   H3        1.0  0.27770  0.96750  0.13340  1.0000
  H   H4        1.0  0.22230  0.03250  0.63340  1.0000
  H   H5        1.0  0.27770  0.53250  0.63340  1.0000
  H   H6        1.0  0.22230  0.46750  0.13340  1.0000
  H   H7        1.0  0.72230  0.03250  0.86660  1.0000
  H   H8        1.0  0.77770  0.96750  0.36660  1.0000
  C   C17       1.0  0.63688  0.37081  0.31928  1.0000
  C   C18       1.0  0.86312  0.62919  0.81928  1.0000
  C   C19       1.0  0.36312  0.87081  0.18072  1.0000
  C   C20       1.0  0.13688  0.12919  0.68072  1.0000
  C   C21       1.0  0.36312  0.62919  0.68072  1.0000
  C   C22       1.0  0.13688  0.37081  0.18072  1.0000
  C   C23       1.0  0.63688  0.12919  0.81928  1.0000
  C   C24       1.0  0.86312  0.87081  0.31928  1.0000
  C   C25       1.0  0.58895  0.28255  0.34042  1.0000
  C   C26       1.0  0.91105  0.71745  0.84042  1.0000
  C   C27       1.0  0.41105  0.78255  0.15958  1.0000
  C   C28       1.0  0.08895  0.21745  0.65958  1.0000
  C   C29       1.0  0.41105  0.71745  0.65958  1.0000
  C   C30       1.0  0.08895  0.28255  0.15958  1.0000
  C   C31       1.0  0.58895  0.21745  0.84042  1.0000
  C   C32       1.0  0.91105  0.78255  0.34042  1.0000
  H   H9        1.0  0.55000  0.25600  0.29930  1.0000
  H   H10       1.0  0.95000  0.74400  0.79930  1.0000
  H   H11       1.0  0.45000  0.75600  0.20070  1.0000
  H   H12       1.0  0.05000  0.24400  0.70070  1.0000
  H   H13       1.0  0.45000  0.74400  0.70070  1.0000
  H   H14       1.0  0.05000  0.25600  0.20070  1.0000
  H   H15       1.0  0.55000  0.24400  0.79930  1.0000
  H   H16       1.0  0.95000  0.75600  0.29930  1.0000
  C   C33       1.0  0.59772  0.23620  0.41725  1.0000
  C   C34       1.0  0.90228  0.76380  0.91725  1.0000
  C   C35       1.0  0.40228  0.73620  0.08275  1.0000
  C   C36       1.0  0.09772  0.26380  0.58275  1.0000
  C   C37       1.0  0.40228  0.76380  0.58275  1.0000
  C   C38       1.0  0.09772  0.23620  0.08275  1.0000
  C   C39       1.0  0.59772  0.26380  0.91725  1.0000
  C   C40       1.0  0.90228  0.73620  0.41725  1.0000
  C   C41       1.0  0.65636  0.27847  0.47299  1.0000
  C   C42       1.0  0.84364  0.72153  0.97299  1.0000
  C   C43       1.0  0.34364  0.77847  0.02701  1.0000
  C   C44       1.0  0.15636  0.22153  0.52701  1.0000
  C   C45       1.0  0.34364  0.72153  0.52701  1.0000
  C   C46       1.0  0.15636  0.27847  0.02701  1.0000
  C   C47       1.0  0.65636  0.22153  0.97299  1.0000
  C   C48       1.0  0.84364  0.77847  0.47299  1.0000
  H   H17       1.0  0.66780  0.25430  0.52430  1.0000
  H   H18       1.0  0.83220  0.74570  0.02430  1.0000
  H   H19       1.0  0.33220  0.75430  0.97570  1.0000
  H   H20       1.0  0.16780  0.24570  0.47570  1.0000
  H   H21       1.0  0.33220  0.74570  0.47570  1.0000
  H   H22       1.0  0.16780  0.25430  0.97570  1.0000
  H   H23       1.0  0.66780  0.24570  0.02430  1.0000
  H   H24       1.0  0.83220  0.75430  0.52430  1.0000
  C   C49       1.0  0.77302  0.41514  0.51217  1.0000
  C   C50       1.0  0.72698  0.58486  0.01217  1.0000
  C   C51       1.0  0.22698  0.91514  0.98783  1.0000
  C   C52       1.0  0.27302  0.08486  0.48783  1.0000
  C   C53       1.0  0.22698  0.58486  0.48783  1.0000
  C   C54       1.0  0.27302  0.41514  0.98783  1.0000
  C   C55       1.0  0.77302  0.08486  0.01217  1.0000
  C   C56       1.0  0.72698  0.91514  0.51217  1.0000
  C   C57       1.0  0.62841  0.41966  0.23128  1.0000
  C   C58       1.0  0.87159  0.58034  0.73128  1.0000
  C   C59       1.0  0.37159  0.91966  0.26872  1.0000
  C   C60       1.0  0.12841  0.08034  0.76872  1.0000
  C   C61       1.0  0.37159  0.58034  0.76872  1.0000
  C   C62       1.0  0.12841  0.41966  0.26872  1.0000
  C   C63       1.0  0.62841  0.08034  0.73128  1.0000
  C   C64       1.0  0.87159  0.91966  0.23128  1.0000
  C   C65       1.0  0.54097  0.14384  0.44014  1.0000
  C   C66       1.0  0.95903  0.85616  0.94014  1.0000
  C   C67       1.0  0.45903  0.64384  0.05986  1.0000
  C   C68       1.0  0.04097  0.35616  0.55986  1.0000
  C   C69       1.0  0.45903  0.85616  0.55986  1.0000
  C   C70       1.0  0.04097  0.14384  0.05986  1.0000
  C   C71       1.0  0.54097  0.35616  0.94014  1.0000
  C   C72       1.0  0.95903  0.64384  0.44014  1.0000
  O   O1        1.0  0.79814  0.49874  0.49855  1.0000
  O   O2        1.0  0.70186  0.50126  0.99855  1.0000
  O   O3        1.0  0.20186  0.99874  0.00145  1.0000
  O   O4        1.0  0.29814  0.00126  0.50145  1.0000
  O   O5        1.0  0.20186  0.50126  0.50145  1.0000
  O   O6        1.0  0.29814  0.49874  0.00145  1.0000
  O   O7        1.0  0.79814  0.00126  0.99855  1.0000
  O   O8        1.0  0.70186  0.99874  0.49855  1.0000
  O   O9        1.0  0.80079  0.35832  0.56480  1.0000
  O   O10       1.0  0.69921  0.64168  0.06480  1.0000
  O   O11       1.0  0.19921  0.85832  0.93520  1.0000
  O   O12       1.0  0.30079  0.14168  0.43520  1.0000
  O   O13       1.0  0.19921  0.64168  0.43520  1.0000
  O   O14       1.0  0.30079  0.35832  0.93520  1.0000
  O   O15       1.0  0.80079  0.14168  0.06480  1.0000
  O   O16       1.0  0.69921  0.85832  0.56480  1.0000
  O   O17       1.0  0.66043  0.50589  0.22097  1.0000
  O   O18       1.0  0.83957  0.49411  0.72097  1.0000
  O   O19       1.0  0.33957  0.00589  0.27903  1.0000
  O   O20       1.0  0.16043  0.99411  0.77903  1.0000
  O   O21       1.0  0.33957  0.49411  0.77903  1.0000
  O   O22       1.0  0.16043  0.50589  0.27903  1.0000
  O   O23       1.0  0.66043  0.99411  0.72097  1.0000
  O   O24       1.0  0.83957  0.00589  0.22097  1.0000
  O   O25       1.0  0.58509  0.37256  0.18262  1.0000
  O   O26       1.0  0.91491  0.62744  0.68262  1.0000
  O   O27       1.0  0.41491  0.87256  0.31738  1.0000
  O   O28       1.0  0.08509  0.12744  0.81738  1.0000
  O   O29       1.0  0.41491  0.62744  0.81738  1.0000
  O   O30       1.0  0.08509  0.37256  0.31738  1.0000
  O   O31       1.0  0.58509  0.12744  0.68262  1.0000
  O   O32       1.0  0.91491  0.87256  0.18262  1.0000
  O   O33       1.0  0.53543  0.11742  0.51326  1.0000
  O   O34       1.0  0.96457  0.88258  0.01326  1.0000
  O   O35       1.0  0.46457  0.61742  0.98674  1.0000
  O   O36       1.0  0.03543  0.38258  0.48674  1.0000
  O   O37       1.0  0.46457  0.88258  0.48674  1.0000
  O   O38       1.0  0.03543  0.11742  0.98674  1.0000
  O   O39       1.0  0.53543  0.38258  0.01326  1.0000
  O   O40       1.0  0.96457  0.61742  0.51326  1.0000
  O   O41       1.0  0.50075  0.09948  0.38270  1.0000
  O   O42       1.0  0.99925  0.90052  0.88270  1.0000
  O   O43       1.0  0.49925  0.59948  0.11730  1.0000
  O   O44       1.0  0.00075  0.40052  0.61730  1.0000
  O   O45       1.0  0.49925  0.90052  0.61730  1.0000
  O   O46       1.0  0.00075  0.09948  0.11730  1.0000
  O   O47       1.0  0.50075  0.40052  0.88270  1.0000
  O   O48       1.0  0.99925  0.59948  0.38270  1.0000
