data_image0
_chemical_formula_structural       Mn8C16H8C16H8C16H8C24O48
_chemical_formula_sum              "Mn8 C72 H24 O48"
_cell_length_a       12.4378
_cell_length_b       14.7717
_cell_length_c       16.6097
_cell_angle_alpha    90
_cell_angle_beta     90
_cell_angle_gamma    90

_space_group_name_H-M_alt    "P 1"
_space_group_IT_number       1

loop_
  _space_group_symop_operation_xyz
  'x, y, z'

loop_
  _atom_site_type_symbol
  _atom_site_label
  _atom_site_symmetry_multiplicity
  _atom_site_fract_x
  _atom_site_fract_y
  _atom_site_fract_z
  _atom_site_occupancy
  Mn  Mn1       1.0  0.60457  0.01655  0.57981  1.0000
  Mn  Mn2       1.0  0.89543  0.98345  0.07981  1.0000
  Mn  Mn3       1.0  0.39543  0.51655  0.92019  1.0000
  Mn  Mn4       1.0  0.10457  0.48345  0.42019  1.0000
  Mn  Mn5       1.0  0.39543  0.98345  0.42019  1.0000
  Mn  Mn6       1.0  0.10457  0.01655  0.92019  1.0000
  Mn  Mn7       1.0  0.60457  0.48345  0.07981  1.0000
  Mn  Mn8       1.0  0.89543  0.51655  0.57981  1.0000
  C   C1        1.0  0.79655  0.87027  0.43917  1.0000
  C   C2        1.0  0.70345  0.12973  0.93917  1.0000
  C   C3        1.0  0.20345  0.37027  0.06083  1.0000
  C   C4        1.0  0.29655  0.62973  0.56083  1.0000
  C   C5        1.0  0.20345  0.12973  0.56083  1.0000
  C   C6        1.0  0.29655  0.87027  0.06083  1.0000
  C   C7        1.0  0.79655  0.62973  0.93917  1.0000
  C   C8        1.0  0.70345  0.37027  0.43917  1.0000
  C   C9        1.0  0.84701  0.78077  0.46087  1.0000
  C   C10       1.0  0.65299  0.21923  0.96087  1.0000
  C   C11       1.0  0.15299  0.28077  0.03913  1.0000
  C   C12       1.0  0.34701  0.71923  0.53913  1.0000
  C   C13       1.0  0.15299  0.21923  0.53913  1.0000
  C   C14       1.0  0.34701  0.78077  0.03913  1.0000
  C   C15       1.0  0.84701  0.71923  0.96087  1.0000
  C   C16       1.0  0.65299  0.28077  0.46087  1.0000
  H   H1        1.0  0.83970  0.75850  0.51420  1.0000
  H   H2        1.0  0.66030  0.24150  0.01420  1.0000
  H   H3        1.0  0.16030  0.25850  0.98580  1.0000
  H   H4        1.0  0.33970  0.74150  0.48580  1.0000
  H   H5        1.0  0.16030  0.24150  0.48580  1.0000
  H   H6        1.0  0.33970  0.75850  0.98580  1.0000
  H   H7        1.0  0.83970  0.74150  0.01420  1.0000
  H   H8        1.0  0.66030  0.25850  0.51420  1.0000
  C   C17       1.0  0.90360  0.73036  0.40517  1.0000
  C   C18       1.0  0.59640  0.26964  0.90517  1.0000
  C   C19       1.0  0.09640  0.23036  0.09483  1.0000
  C   C20       1.0  0.40360  0.76964  0.59483  1.0000
  C   C21       1.0  0.09640  0.26964  0.59483  1.0000
  C   C22       1.0  0.40360  0.73036  0.09483  1.0000
  C   C23       1.0  0.90360  0.76964  0.90517  1.0000
  C   C24       1.0  0.59640  0.23036  0.40517  1.0000
  C   C25       1.0  0.90623  0.76779  0.32697  1.0000
  C   C26       1.0  0.59377  0.23221  0.82697  1.0000
  C   C27       1.0  0.09377  0.26779  0.17303  1.0000
  C   C28       1.0  0.40623  0.73221  0.67303  1.0000
  C   C29       1.0  0.09377  0.23221  0.67303  1.0000
  C   C30       1.0  0.40623  0.76779  0.17303  1.0000
  C   C31       1.0  0.90623  0.73221  0.82697  1.0000
  C   C32       1.0  0.59377  0.26779  0.32697  1.0000
  H   H9        1.0  0.94060  0.73390  0.28570  1.0000
  H   H10       1.0  0.55940  0.26610  0.78570  1.0000
  H   H11       1.0  0.05940  0.23390  0.21430  1.0000
  H   H12       1.0  0.44060  0.76610  0.71430  1.0000
  H   H13       1.0  0.05940  0.26610  0.71430  1.0000
  H   H14       1.0  0.44060  0.73390  0.21430  1.0000
  H   H15       1.0  0.94060  0.76610  0.78570  1.0000
  H   H16       1.0  0.55940  0.23390  0.28570  1.0000
  C   C33       1.0  0.85780  0.85847  0.30456  1.0000
  C   C34       1.0  0.64220  0.14153  0.80456  1.0000
  C   C35       1.0  0.14220  0.35847  0.19544  1.0000
  C   C36       1.0  0.35780  0.64153  0.69544  1.0000
  C   C37       1.0  0.14220  0.14153  0.69544  1.0000
  C   C38       1.0  0.35780  0.85847  0.19544  1.0000
  C   C39       1.0  0.85780  0.64153  0.80456  1.0000
  C   C40       1.0  0.64220  0.35847  0.30456  1.0000
  C   C41       1.0  0.80424  0.91073  0.36146  1.0000
  C   C42       1.0  0.69576  0.08927  0.86146  1.0000
  C   C43       1.0  0.19576  0.41073  0.13854  1.0000
  C   C44       1.0  0.30424  0.58927  0.63854  1.0000
  C   C45       1.0  0.19576  0.08927  0.63854  1.0000
  C   C46       1.0  0.30424  0.91073  0.13854  1.0000
  C   C47       1.0  0.80424  0.58927  0.86146  1.0000
  C   C48       1.0  0.69576  0.41073  0.36146  1.0000
  H   H17       1.0  0.77520  0.96870  0.34950  1.0000
  H   H18       1.0  0.72480  0.03130  0.84950  1.0000
  H   H19       1.0  0.22480  0.46870  0.15050  1.0000
  H   H20       1.0  0.27520  0.53130  0.65050  1.0000
  H   H21       1.0  0.22480  0.03130  0.65050  1.0000
  H   H22       1.0  0.27520  0.96870  0.15050  1.0000
  H   H23       1.0  0.77520  0.53130  0.84950  1.0000
  H   H24       1.0  0.72480  0.46870  0.34950  1.0000
  C   C49       1.0  0.73122  0.92229  0.49681  1.0000
  C   C50       1.0  0.76878  0.07771  0.99681  1.0000
  C   C51       1.0  0.26878  0.42229  0.00319  1.0000
  C   C52       1.0  0.23122  0.57771  0.50319  1.0000
  C   C53       1.0  0.26878  0.07771  0.50319  1.0000
  C   C54       1.0  0.23122  0.92229  0.00319  1.0000
  C   C55       1.0  0.73122  0.57771  0.99681  1.0000
  C   C56       1.0  0.76878  0.42229  0.49681  1.0000
  C   C57       1.0  0.96222  0.63707  0.42940  1.0000
  C   C58       1.0  0.53778  0.36293  0.92940  1.0000
  C   C59       1.0  0.03778  0.13707  0.07060  1.0000
  C   C60       1.0  0.46222  0.86293  0.57060  1.0000
  C   C61       1.0  0.03778  0.36293  0.57060  1.0000
  C   C62       1.0  0.46222  0.63707  0.07060  1.0000
  C   C63       1.0  0.96222  0.86293  0.92940  1.0000
  C   C64       1.0  0.53778  0.13707  0.42940  1.0000
  C   C65       1.0  0.86314  0.90187  0.21984  1.0000
  C   C66       1.0  0.63686  0.09813  0.71984  1.0000
  C   C67       1.0  0.13686  0.40187  0.28016  1.0000
  C   C68       1.0  0.36314  0.59813  0.78016  1.0000
  C   C69       1.0  0.13686  0.09813  0.78016  1.0000
  C   C70       1.0  0.36314  0.90187  0.28016  1.0000
  C   C71       1.0  0.86314  0.59813  0.71984  1.0000
  C   C72       1.0  0.63686  0.40187  0.21984  1.0000
  O   O1        1.0  0.70780  0.01690  0.48576  1.0000
  O   O2        1.0  0.79220  0.98310  0.98576  1.0000
  O   O3        1.0  0.29220  0.51690  0.01424  1.0000
  O   O4        1.0  0.20780  0.48310  0.51424  1.0000
  O   O5        1.0  0.29220  0.98310  0.51424  1.0000
  O   O6        1.0  0.20780  0.01690  0.01424  1.0000
  O   O7        1.0  0.70780  0.48310  0.98576  1.0000
  O   O8        1.0  0.79220  0.51690  0.48576  1.0000
  O   O9        1.0  0.69905  0.86723  0.55327  1.0000
  O   O10       1.0  0.80095  0.13277  0.05327  1.0000
  O   O11       1.0  0.30095  0.36723  0.94673  1.0000
  O   O12       1.0  0.19905  0.63277  0.44673  1.0000
  O   O13       1.0  0.30095  0.13277  0.44673  1.0000
  O   O14       1.0  0.19905  0.86723  0.94673  1.0000
  O   O15       1.0  0.69905  0.63277  0.05327  1.0000
  O   O16       1.0  0.80095  0.36723  0.55327  1.0000
  O   O17       1.0  0.99914  0.58301  0.37496  1.0000
  O   O18       1.0  0.50086  0.41699  0.87496  1.0000
  O   O19       1.0  0.00086  0.08301  0.12504  1.0000
  O   O20       1.0  0.49914  0.91699  0.62504  1.0000
  O   O21       1.0  0.00086  0.41699  0.62504  1.0000
  O   O22       1.0  0.49914  0.58301  0.12504  1.0000
  O   O23       1.0  0.99914  0.91699  0.87496  1.0000
  O   O24       1.0  0.50086  0.08301  0.37496  1.0000
  O   O25       1.0  0.97454  0.61978  0.50401  1.0000
  O   O26       1.0  0.52546  0.38022  0.00401  1.0000
  O   O27       1.0  0.02546  0.11978  0.99599  1.0000
  O   O28       1.0  0.47454  0.88022  0.49599  1.0000
  O   O29       1.0  0.02546  0.38022  0.49599  1.0000
  O   O30       1.0  0.47454  0.61978  0.99599  1.0000
  O   O31       1.0  0.97454  0.88022  0.00401  1.0000
  O   O32       1.0  0.52546  0.11978  0.50401  1.0000
  O   O33       1.0  0.82780  0.99051  0.20431  1.0000
  O   O34       1.0  0.67220  0.00949  0.70431  1.0000
  O   O35       1.0  0.17220  0.49051  0.29569  1.0000
  O   O36       1.0  0.32780  0.50949  0.79569  1.0000
  O   O37       1.0  0.17220  0.00949  0.79569  1.0000
  O   O38       1.0  0.32780  0.99051  0.29569  1.0000
  O   O39       1.0  0.82780  0.50949  0.70431  1.0000
  O   O40       1.0  0.67220  0.49051  0.20431  1.0000
  O   O41       1.0  0.90454  0.84809  0.16736  1.0000
  O   O42       1.0  0.59546  0.15191  0.66736  1.0000
  O   O43       1.0  0.09546  0.34809  0.33264  1.0000
  O   O44       1.0  0.40454  0.65191  0.83264  1.0000
  O   O45       1.0  0.09546  0.15191  0.83264  1.0000
  O   O46       1.0  0.40454  0.84809  0.33264  1.0000
  O   O47       1.0  0.90454  0.65191  0.66736  1.0000
  O   O48       1.0  0.59546  0.34809  0.16736  1.0000
