data_image0
_chemical_formula_structural       Mn8O32C8H8O8C16H8C24O8C8H8C16
_chemical_formula_sum              "Mn8 O48 C72 H24"
_cell_length_a       14.1985
_cell_length_b       12.0745
_cell_length_c       16.5616
_cell_angle_alpha    90
_cell_angle_beta     90
_cell_angle_gamma    90

_space_group_name_H-M_alt    "P 1"
_space_group_IT_number       1

loop_
  _space_group_symop_operation_xyz
  'x, y, z'

loop_
  _atom_site_type_symbol
  _atom_site_label
  _atom_site_symmetry_multiplicity
  _atom_site_fract_x
  _atom_site_fract_y
  _atom_site_fract_z
  _atom_site_occupancy
  Mn  Mn1       1.0  0.60887  0.47342  0.56774  1.0000
  Mn  Mn2       1.0  0.89113  0.52658  0.06774  1.0000
  Mn  Mn3       1.0  0.39113  0.97342  0.93226  1.0000
  Mn  Mn4       1.0  0.10887  0.02658  0.43226  1.0000
  Mn  Mn5       1.0  0.39113  0.52658  0.43226  1.0000
  Mn  Mn6       1.0  0.10887  0.47342  0.93226  1.0000
  Mn  Mn7       1.0  0.60887  0.02658  0.06774  1.0000
  Mn  Mn8       1.0  0.89113  0.97342  0.56774  1.0000
  O   O1        1.0  0.79280  0.52410  0.96760  1.0000
  O   O2        1.0  0.70720  0.47590  0.46760  1.0000
  O   O3        1.0  0.20720  0.02410  0.53240  1.0000
  O   O4        1.0  0.29280  0.97590  0.03240  1.0000
  O   O5        1.0  0.20720  0.47590  0.03240  1.0000
  O   O6        1.0  0.29280  0.52410  0.53240  1.0000
  O   O7        1.0  0.79280  0.97590  0.46760  1.0000
  O   O8        1.0  0.70720  0.02410  0.96760  1.0000
  O   O9        1.0  0.79030  0.37740  0.04570  1.0000
  O   O10       1.0  0.70970  0.62260  0.54570  1.0000
  O   O11       1.0  0.20970  0.87740  0.45430  1.0000
  O   O12       1.0  0.29030  0.12260  0.95430  1.0000
  O   O13       1.0  0.20970  0.62260  0.95430  1.0000
  O   O14       1.0  0.29030  0.37740  0.45430  1.0000
  O   O15       1.0  0.79030  0.12260  0.54570  1.0000
  O   O16       1.0  0.70970  0.87740  0.04570  1.0000
  O   O17       1.0  0.60190  0.32250  0.65060  1.0000
  O   O18       1.0  0.89810  0.67750  0.15060  1.0000
  O   O19       1.0  0.39810  0.82250  0.84940  1.0000
  O   O20       1.0  0.10190  0.17750  0.34940  1.0000
  O   O21       1.0  0.39810  0.67750  0.34940  1.0000
  O   O22       1.0  0.10190  0.32250  0.84940  1.0000
  O   O23       1.0  0.60190  0.17750  0.15060  1.0000
  O   O24       1.0  0.89810  0.82250  0.65060  1.0000
  O   O25       1.0  0.49630  0.06680  0.86740  1.0000
  O   O26       1.0  0.00370  0.93320  0.36740  1.0000
  O   O27       1.0  0.50370  0.56680  0.63260  1.0000
  O   O28       1.0  0.99630  0.43320  0.13260  1.0000
  O   O29       1.0  0.50370  0.93320  0.13260  1.0000
  O   O30       1.0  0.99630  0.06680  0.63260  1.0000
  O   O31       1.0  0.49630  0.43320  0.36740  1.0000
  O   O32       1.0  0.00370  0.56680  0.86740  1.0000
  C   C1        1.0  0.64400  0.28160  0.95130  1.0000
  C   C2        1.0  0.85600  0.71840  0.45130  1.0000
  C   C3        1.0  0.35600  0.78160  0.54870  1.0000
  C   C4        1.0  0.14400  0.21840  0.04870  1.0000
  C   C5        1.0  0.35600  0.71840  0.04870  1.0000
  C   C6        1.0  0.14400  0.28160  0.54870  1.0000
  C   C7        1.0  0.64400  0.21840  0.45130  1.0000
  C   C8        1.0  0.85600  0.78160  0.95130  1.0000
  H   H1        1.0  0.64270  0.26090  0.00540  1.0000
  H   H2        1.0  0.85730  0.73910  0.50540  1.0000
  H   H3        1.0  0.35730  0.76090  0.49460  1.0000
  H   H4        1.0  0.14270  0.23910  0.99460  1.0000
  H   H5        1.0  0.35730  0.73910  0.99460  1.0000
  H   H6        1.0  0.14270  0.26090  0.49460  1.0000
  H   H7        1.0  0.64270  0.23910  0.50540  1.0000
  H   H8        1.0  0.85730  0.76090  0.00540  1.0000
  O   O33       1.0  0.50940  0.11900  0.99540  1.0000
  O   O34       1.0  0.99060  0.88100  0.49540  1.0000
  O   O35       1.0  0.49060  0.61900  0.50460  1.0000
  O   O36       1.0  0.00940  0.38100  0.00460  1.0000
  O   O37       1.0  0.49060  0.88100  0.00460  1.0000
  O   O38       1.0  0.00940  0.11900  0.50460  1.0000
  O   O39       1.0  0.50940  0.38100  0.49540  1.0000
  O   O40       1.0  0.99060  0.61900  0.99540  1.0000
  C   C9        1.0  0.76440  0.42820  0.98470  1.0000
  C   C10       1.0  0.73560  0.57180  0.48470  1.0000
  C   C11       1.0  0.23560  0.92820  0.51530  1.0000
  C   C12       1.0  0.26440  0.07180  0.01530  1.0000
  C   C13       1.0  0.23560  0.57180  0.01530  1.0000
  C   C14       1.0  0.26440  0.42820  0.51530  1.0000
  C   C15       1.0  0.76440  0.07180  0.48470  1.0000
  C   C16       1.0  0.73560  0.92820  0.98470  1.0000
  C   C17       1.0  0.69640  0.40460  0.84650  1.0000
  C   C18       1.0  0.80360  0.59540  0.34650  1.0000
  C   C19       1.0  0.30360  0.90460  0.65350  1.0000
  C   C20       1.0  0.19640  0.09540  0.15350  1.0000
  C   C21       1.0  0.30360  0.59540  0.15350  1.0000
  C   C22       1.0  0.19640  0.40460  0.65350  1.0000
  C   C23       1.0  0.69640  0.09540  0.34650  1.0000
  C   C24       1.0  0.80360  0.90460  0.84650  1.0000
  H   H9        1.0  0.72870  0.46810  0.83100  1.0000
  H   H10       1.0  0.77130  0.53190  0.33100  1.0000
  H   H11       1.0  0.27130  0.96810  0.66900  1.0000
  H   H12       1.0  0.22870  0.03190  0.16900  1.0000
  H   H13       1.0  0.27130  0.53190  0.16900  1.0000
  H   H14       1.0  0.22870  0.46810  0.66900  1.0000
  H   H15       1.0  0.72870  0.03190  0.33100  1.0000
  H   H16       1.0  0.77130  0.96810  0.83100  1.0000
  C   C25       1.0  0.64560  0.38040  0.70260  1.0000
  C   C26       1.0  0.85440  0.61960  0.20260  1.0000
  C   C27       1.0  0.35440  0.88040  0.79740  1.0000
  C   C28       1.0  0.14560  0.11960  0.29740  1.0000
  C   C29       1.0  0.35440  0.61960  0.29740  1.0000
  C   C30       1.0  0.14560  0.38040  0.79740  1.0000
  C   C31       1.0  0.64560  0.11960  0.20260  1.0000
  C   C32       1.0  0.85440  0.88040  0.70260  1.0000
  C   C33       1.0  0.69850  0.37010  0.92740  1.0000
  C   C34       1.0  0.80150  0.62990  0.42740  1.0000
  C   C35       1.0  0.30150  0.87010  0.57260  1.0000
  C   C36       1.0  0.19850  0.12990  0.07260  1.0000
  C   C37       1.0  0.30150  0.62990  0.07260  1.0000
  C   C38       1.0  0.19850  0.37010  0.57260  1.0000
  C   C39       1.0  0.69850  0.12990  0.42740  1.0000
  C   C40       1.0  0.80150  0.87010  0.92740  1.0000
  C   C41       1.0  0.52770  0.13130  0.92050  1.0000
  C   C42       1.0  0.97230  0.86870  0.42050  1.0000
  C   C43       1.0  0.47230  0.63130  0.57950  1.0000
  C   C44       1.0  0.02770  0.36870  0.07950  1.0000
  C   C45       1.0  0.47230  0.86870  0.07950  1.0000
  C   C46       1.0  0.02770  0.13130  0.57950  1.0000
  C   C47       1.0  0.52770  0.36870  0.42050  1.0000
  C   C48       1.0  0.97230  0.63130  0.92050  1.0000
  O   O41       1.0  0.68790  0.46800  0.68380  1.0000
  O   O42       1.0  0.81210  0.53200  0.18380  1.0000
  O   O43       1.0  0.31210  0.96800  0.81620  1.0000
  O   O44       1.0  0.18790  0.03200  0.31620  1.0000
  O   O45       1.0  0.31210  0.53200  0.31620  1.0000
  O   O46       1.0  0.18790  0.46800  0.81620  1.0000
  O   O47       1.0  0.68790  0.03200  0.18380  1.0000
  O   O48       1.0  0.81210  0.96800  0.68380  1.0000
  C   C49       1.0  0.59340  0.25410  0.81350  1.0000
  C   C50       1.0  0.90660  0.74590  0.31350  1.0000
  C   C51       1.0  0.40660  0.75410  0.68650  1.0000
  C   C52       1.0  0.09340  0.24590  0.18650  1.0000
  C   C53       1.0  0.40660  0.74590  0.18650  1.0000
  C   C54       1.0  0.09340  0.25410  0.68650  1.0000
  C   C55       1.0  0.59340  0.24590  0.31350  1.0000
  C   C56       1.0  0.90660  0.75410  0.81350  1.0000
  H   H17       1.0  0.55950  0.21400  0.77540  1.0000
  H   H18       1.0  0.94050  0.78600  0.27540  1.0000
  H   H19       1.0  0.44050  0.71400  0.72460  1.0000
  H   H20       1.0  0.05950  0.28600  0.22460  1.0000
  H   H21       1.0  0.44050  0.78600  0.22460  1.0000
  H   H22       1.0  0.05950  0.21400  0.72460  1.0000
  H   H23       1.0  0.55950  0.28600  0.27540  1.0000
  H   H24       1.0  0.94050  0.71400  0.77540  1.0000
  C   C57       1.0  0.59050  0.22270  0.89480  1.0000
  C   C58       1.0  0.90950  0.77730  0.39480  1.0000
  C   C59       1.0  0.40950  0.72270  0.60520  1.0000
  C   C60       1.0  0.09050  0.27730  0.10520  1.0000
  C   C61       1.0  0.40950  0.77730  0.10520  1.0000
  C   C62       1.0  0.09050  0.22270  0.60520  1.0000
  C   C63       1.0  0.59050  0.27730  0.39480  1.0000
  C   C64       1.0  0.90950  0.72270  0.89480  1.0000
  C   C65       1.0  0.64610  0.34420  0.78960  1.0000
  C   C66       1.0  0.85390  0.65580  0.28960  1.0000
  C   C67       1.0  0.35390  0.84420  0.71040  1.0000
  C   C68       1.0  0.14610  0.15580  0.21040  1.0000
  C   C69       1.0  0.35390  0.65580  0.21040  1.0000
  C   C70       1.0  0.14610  0.34420  0.71040  1.0000
  C   C71       1.0  0.64610  0.15580  0.28960  1.0000
  C   C72       1.0  0.85390  0.84420  0.78960  1.0000
