data_image0
_chemical_formula_structural       Mn8O48C32H8C8H8C32H8
_chemical_formula_sum              "Mn8 O48 C72 H24"
_cell_length_a       14.7716
_cell_length_b       12.426
_cell_length_c       16.6277
_cell_angle_alpha    90
_cell_angle_beta     90
_cell_angle_gamma    90

_space_group_name_H-M_alt    "P 1"
_space_group_IT_number       1

loop_
  _space_group_symop_operation_xyz
  'x, y, z'

loop_
  _atom_site_type_symbol
  _atom_site_label
  _atom_site_symmetry_multiplicity
  _atom_site_fract_x
  _atom_site_fract_y
  _atom_site_fract_z
  _atom_site_occupancy
  Mn  Mn1       1.0  0.60476  0.48355  0.57927  1.0000
  Mn  Mn2       1.0  0.89524  0.51645  0.07927  1.0000
  Mn  Mn3       1.0  0.10476  0.01645  0.42073  1.0000
  Mn  Mn4       1.0  0.39524  0.98355  0.92073  1.0000
  Mn  Mn5       1.0  0.39524  0.51645  0.42073  1.0000
  Mn  Mn6       1.0  0.10476  0.48355  0.92073  1.0000
  Mn  Mn7       1.0  0.89524  0.98355  0.57927  1.0000
  Mn  Mn8       1.0  0.60476  0.01645  0.07927  1.0000
  O   O1        1.0  0.59329  0.34818  0.66732  1.0000
  O   O2        1.0  0.90671  0.65182  0.16732  1.0000
  O   O3        1.0  0.09329  0.15182  0.33268  1.0000
  O   O4        1.0  0.40671  0.84818  0.83268  1.0000
  O   O5        1.0  0.40671  0.65182  0.33268  1.0000
  O   O6        1.0  0.09329  0.34818  0.83268  1.0000
  O   O7        1.0  0.90671  0.84818  0.66732  1.0000
  O   O8        1.0  0.59329  0.15182  0.16732  1.0000
  O   O9        1.0  0.67367  0.48897  0.70250  1.0000
  O   O10       1.0  0.82633  0.51103  0.20250  1.0000
  O   O11       1.0  0.17367  0.01103  0.29750  1.0000
  O   O12       1.0  0.32633  0.98897  0.79750  1.0000
  O   O13       1.0  0.32633  0.51103  0.29750  1.0000
  O   O14       1.0  0.17367  0.48897  0.79750  1.0000
  O   O15       1.0  0.82633  0.98897  0.70250  1.0000
  O   O16       1.0  0.67367  0.01103  0.20250  1.0000
  O   O17       1.0  0.70911  0.48089  0.48541  1.0000
  O   O18       1.0  0.79089  0.51911  0.98541  1.0000
  O   O19       1.0  0.20911  0.01911  0.51459  1.0000
  O   O20       1.0  0.29089  0.98089  0.01459  1.0000
  O   O21       1.0  0.29089  0.51911  0.51459  1.0000
  O   O22       1.0  0.20911  0.48089  0.01459  1.0000
  O   O23       1.0  0.79089  0.98089  0.48541  1.0000
  O   O24       1.0  0.70911  0.01911  0.98541  1.0000
  O   O25       1.0  0.69819  0.63237  0.55128  1.0000
  O   O26       1.0  0.80181  0.36763  0.05128  1.0000
  O   O27       1.0  0.19819  0.86763  0.44872  1.0000
  O   O28       1.0  0.30181  0.13237  0.94872  1.0000
  O   O29       1.0  0.30181  0.36763  0.44872  1.0000
  O   O30       1.0  0.19819  0.63237  0.94872  1.0000
  O   O31       1.0  0.80181  0.13237  0.55128  1.0000
  O   O32       1.0  0.69819  0.86763  0.05128  1.0000
  O   O33       1.0  0.49845  0.58148  0.62566  1.0000
  O   O34       1.0  0.00155  0.41852  0.12566  1.0000
  O   O35       1.0  0.99845  0.91852  0.37434  1.0000
  O   O36       1.0  0.50155  0.08148  0.87434  1.0000
  O   O37       1.0  0.50155  0.41852  0.37434  1.0000
  O   O38       1.0  0.99845  0.58148  0.87434  1.0000
  O   O39       1.0  0.00155  0.08148  0.62566  1.0000
  O   O40       1.0  0.49845  0.91852  0.12566  1.0000
  O   O41       1.0  0.52509  0.38039  0.50320  1.0000
  O   O42       1.0  0.97491  0.61961  0.00320  1.0000
  O   O43       1.0  0.02509  0.11961  0.49680  1.0000
  O   O44       1.0  0.47491  0.88039  0.99680  1.0000
  O   O45       1.0  0.47491  0.61961  0.49680  1.0000
  O   O46       1.0  0.02509  0.38039  0.99680  1.0000
  O   O47       1.0  0.97491  0.88039  0.50320  1.0000
  O   O48       1.0  0.52509  0.11961  0.00320  1.0000
  C   C1        1.0  0.63627  0.40077  0.71923  1.0000
  C   C2        1.0  0.86373  0.59923  0.21923  1.0000
  C   C3        1.0  0.13627  0.09923  0.28077  1.0000
  C   C4        1.0  0.36373  0.90077  0.78077  1.0000
  C   C5        1.0  0.36373  0.59923  0.28077  1.0000
  C   C6        1.0  0.13627  0.40077  0.78077  1.0000
  C   C7        1.0  0.86373  0.90077  0.71923  1.0000
  C   C8        1.0  0.63627  0.09923  0.21923  1.0000
  C   C9        1.0  0.64164  0.35903  0.80374  1.0000
  C   C10       1.0  0.85836  0.64097  0.30374  1.0000
  C   C11       1.0  0.14164  0.14097  0.19626  1.0000
  C   C12       1.0  0.35836  0.85903  0.69626  1.0000
  C   C13       1.0  0.35836  0.64097  0.19626  1.0000
  C   C14       1.0  0.14164  0.35903  0.69626  1.0000
  C   C15       1.0  0.85836  0.85903  0.80374  1.0000
  C   C16       1.0  0.64164  0.14097  0.30374  1.0000
  C   C17       1.0  0.69506  0.41174  0.86066  1.0000
  C   C18       1.0  0.80494  0.58826  0.36066  1.0000
  C   C19       1.0  0.19506  0.08826  0.13934  1.0000
  C   C20       1.0  0.30494  0.91174  0.63934  1.0000
  C   C21       1.0  0.30494  0.58826  0.13934  1.0000
  C   C22       1.0  0.19506  0.41174  0.63934  1.0000
  C   C23       1.0  0.80494  0.91174  0.86066  1.0000
  C   C24       1.0  0.69506  0.08826  0.36066  1.0000
  C   C25       1.0  0.59283  0.26833  0.82635  1.0000
  C   C26       1.0  0.90717  0.73167  0.32635  1.0000
  C   C27       1.0  0.09283  0.23167  0.17365  1.0000
  C   C28       1.0  0.40717  0.76833  0.67365  1.0000
  C   C29       1.0  0.40717  0.73167  0.17365  1.0000
  C   C30       1.0  0.09283  0.26833  0.67365  1.0000
  C   C31       1.0  0.90717  0.76833  0.82635  1.0000
  C   C32       1.0  0.59283  0.23167  0.32635  1.0000
  H   H1        1.0  0.72560  0.47440  0.84660  1.0000
  H   H2        1.0  0.77440  0.52560  0.34660  1.0000
  H   H3        1.0  0.22560  0.02560  0.15340  1.0000
  H   H4        1.0  0.27440  0.97440  0.65340  1.0000
  H   H5        1.0  0.27440  0.52560  0.15340  1.0000
  H   H6        1.0  0.22560  0.47440  0.65340  1.0000
  H   H7        1.0  0.77440  0.97440  0.84660  1.0000
  H   H8        1.0  0.72560  0.02560  0.34660  1.0000
  C   C33       1.0  0.70289  0.37115  0.93850  1.0000
  C   C34       1.0  0.79711  0.62885  0.43850  1.0000
  C   C35       1.0  0.20289  0.12885  0.06150  1.0000
  C   C36       1.0  0.29711  0.87115  0.56150  1.0000
  C   C37       1.0  0.29711  0.62885  0.06150  1.0000
  C   C38       1.0  0.20289  0.37115  0.56150  1.0000
  C   C39       1.0  0.79711  0.87115  0.93850  1.0000
  C   C40       1.0  0.70289  0.12885  0.43850  1.0000
  H   H9        1.0  0.55750  0.23260  0.78850  1.0000
  H   H10       1.0  0.94250  0.76740  0.28850  1.0000
  H   H11       1.0  0.05750  0.26740  0.21150  1.0000
  H   H12       1.0  0.44250  0.73260  0.71150  1.0000
  H   H13       1.0  0.44250  0.76740  0.21150  1.0000
  H   H14       1.0  0.05750  0.23260  0.71150  1.0000
  H   H15       1.0  0.94250  0.73260  0.78850  1.0000
  H   H16       1.0  0.55750  0.26740  0.28850  1.0000
  C   C41       1.0  0.59623  0.23029  0.90516  1.0000
  C   C42       1.0  0.90377  0.76971  0.40516  1.0000
  C   C43       1.0  0.09623  0.26971  0.09484  1.0000
  C   C44       1.0  0.40377  0.73029  0.59484  1.0000
  C   C45       1.0  0.40377  0.76971  0.09484  1.0000
  C   C46       1.0  0.09623  0.23029  0.59484  1.0000
  C   C47       1.0  0.90377  0.73029  0.90516  1.0000
  C   C48       1.0  0.59623  0.26971  0.40516  1.0000
  C   C49       1.0  0.65274  0.28084  0.96068  1.0000
  C   C50       1.0  0.84726  0.71916  0.46068  1.0000
  C   C51       1.0  0.15274  0.21916  0.03932  1.0000
  C   C52       1.0  0.34726  0.78084  0.53932  1.0000
  C   C53       1.0  0.34726  0.71916  0.03932  1.0000
  C   C54       1.0  0.15274  0.28084  0.53932  1.0000
  C   C55       1.0  0.84726  0.78084  0.96068  1.0000
  C   C56       1.0  0.65274  0.21916  0.46068  1.0000
  C   C57       1.0  0.76852  0.42228  0.99609  1.0000
  C   C58       1.0  0.73148  0.57772  0.49609  1.0000
  C   C59       1.0  0.26852  0.07772  0.00391  1.0000
  C   C60       1.0  0.23148  0.92228  0.50391  1.0000
  C   C61       1.0  0.23148  0.57772  0.00391  1.0000
  C   C62       1.0  0.26852  0.42228  0.50391  1.0000
  C   C63       1.0  0.73148  0.92228  0.99609  1.0000
  C   C64       1.0  0.76852  0.07772  0.49609  1.0000
  C   C65       1.0  0.53783  0.13685  0.92947  1.0000
  C   C66       1.0  0.96217  0.86315  0.42947  1.0000
  C   C67       1.0  0.03783  0.36315  0.07053  1.0000
  C   C68       1.0  0.46217  0.63685  0.57053  1.0000
  C   C69       1.0  0.46217  0.86315  0.07053  1.0000
  C   C70       1.0  0.03783  0.13685  0.57053  1.0000
  C   C71       1.0  0.96217  0.63685  0.92947  1.0000
  C   C72       1.0  0.53783  0.36315  0.42947  1.0000
  H   H17       1.0  0.65700  0.25420  0.01280  1.0000
  H   H18       1.0  0.84300  0.74580  0.51280  1.0000
  H   H19       1.0  0.15700  0.24580  0.98720  1.0000
  H   H20       1.0  0.34300  0.75420  0.48720  1.0000
  H   H21       1.0  0.34300  0.74580  0.98720  1.0000
  H   H22       1.0  0.15700  0.25420  0.48720  1.0000
  H   H23       1.0  0.84300  0.75420  0.01280  1.0000
  H   H24       1.0  0.65700  0.24580  0.51280  1.0000
