data_image0
_chemical_formula_structural       O16C8O8C8H8C8O8C16H8C16H8C16Mn8O16
_chemical_formula_sum              "O48 C72 H24 Mn8"
_cell_length_a       14.8837
_cell_length_b       12.4554
_cell_length_c       16.6018
_cell_angle_alpha    90
_cell_angle_beta     90
_cell_angle_gamma    90

_space_group_name_H-M_alt    "P 1"
_space_group_IT_number       1

loop_
  _space_group_symop_operation_xyz
  'x, y, z'

loop_
  _atom_site_type_symbol
  _atom_site_label
  _atom_site_symmetry_multiplicity
  _atom_site_fract_x
  _atom_site_fract_y
  _atom_site_fract_z
  _atom_site_occupancy
  O   O1        1.0  0.52700  0.11950  0.00519  1.0000
  O   O2        1.0  0.97300  0.88050  0.50519  1.0000
  O   O3        1.0  0.02700  0.38050  0.99481  1.0000
  O   O4        1.0  0.47300  0.61950  0.49481  1.0000
  O   O5        1.0  0.47300  0.88050  0.99481  1.0000
  O   O6        1.0  0.02700  0.11950  0.49481  1.0000
  O   O7        1.0  0.97300  0.61950  0.00519  1.0000
  O   O8        1.0  0.52700  0.38050  0.50519  1.0000
  O   O9        1.0  0.50110  0.08490  0.87608  1.0000
  O   O10       1.0  0.99890  0.91510  0.37608  1.0000
  O   O11       1.0  0.00110  0.41510  0.12392  1.0000
  O   O12       1.0  0.49890  0.58490  0.62392  1.0000
  O   O13       1.0  0.49890  0.91510  0.12392  1.0000
  O   O14       1.0  0.00110  0.08490  0.62392  1.0000
  O   O15       1.0  0.99890  0.58490  0.87608  1.0000
  O   O16       1.0  0.50110  0.41510  0.37608  1.0000
  C   C1        1.0  0.76940  0.42270  0.99840  1.0000
  C   C2        1.0  0.73060  0.57730  0.49840  1.0000
  C   C3        1.0  0.26940  0.07730  0.00160  1.0000
  C   C4        1.0  0.23060  0.92270  0.50160  1.0000
  C   C5        1.0  0.23060  0.57730  0.00160  1.0000
  C   C6        1.0  0.26940  0.42270  0.50160  1.0000
  C   C7        1.0  0.73060  0.92270  0.99840  1.0000
  C   C8        1.0  0.76940  0.07730  0.49840  1.0000
  O   O17       1.0  0.59340  0.35150  0.66980  1.0000
  O   O18       1.0  0.90660  0.64850  0.16980  1.0000
  O   O19       1.0  0.09340  0.14850  0.33020  1.0000
  O   O20       1.0  0.40660  0.85150  0.83020  1.0000
  O   O21       1.0  0.40660  0.64850  0.33020  1.0000
  O   O22       1.0  0.09340  0.35150  0.83020  1.0000
  O   O23       1.0  0.90660  0.85150  0.66980  1.0000
  O   O24       1.0  0.59340  0.14850  0.16980  1.0000
  C   C9        1.0  0.59250  0.27000  0.82890  1.0000
  C   C10       1.0  0.90750  0.73000  0.32890  1.0000
  C   C11       1.0  0.09250  0.23000  0.17110  1.0000
  C   C12       1.0  0.40750  0.77000  0.67110  1.0000
  C   C13       1.0  0.40750  0.73000  0.17110  1.0000
  C   C14       1.0  0.09250  0.27000  0.67110  1.0000
  C   C15       1.0  0.90750  0.77000  0.82890  1.0000
  C   C16       1.0  0.59250  0.23000  0.32890  1.0000
  H   H1        1.0  0.55680  0.23520  0.79110  1.0000
  H   H2        1.0  0.94320  0.76480  0.29110  1.0000
  H   H3        1.0  0.05680  0.26480  0.20890  1.0000
  H   H4        1.0  0.44320  0.73520  0.70890  1.0000
  H   H5        1.0  0.44320  0.76480  0.20890  1.0000
  H   H6        1.0  0.05680  0.23520  0.70890  1.0000
  H   H7        1.0  0.94320  0.73520  0.79110  1.0000
  H   H8        1.0  0.55680  0.26480  0.29110  1.0000
  C   C17       1.0  0.63550  0.40190  0.72040  1.0000
  C   C18       1.0  0.86450  0.59810  0.22040  1.0000
  C   C19       1.0  0.13550  0.09810  0.27960  1.0000
  C   C20       1.0  0.36450  0.90190  0.77960  1.0000
  C   C21       1.0  0.36450  0.59810  0.27960  1.0000
  C   C22       1.0  0.13550  0.40190  0.77960  1.0000
  C   C23       1.0  0.86450  0.90190  0.72040  1.0000
  C   C24       1.0  0.63550  0.09810  0.22040  1.0000
  O   O25       1.0  0.67120  0.49150  0.70510  1.0000
  O   O26       1.0  0.82880  0.50850  0.20510  1.0000
  O   O27       1.0  0.17120  0.00850  0.29490  1.0000
  O   O28       1.0  0.32880  0.99150  0.79490  1.0000
  O   O29       1.0  0.32880  0.50850  0.29490  1.0000
  O   O30       1.0  0.17120  0.49150  0.79490  1.0000
  O   O31       1.0  0.82880  0.99150  0.70510  1.0000
  O   O32       1.0  0.67120  0.00850  0.20510  1.0000
  C   C25       1.0  0.70310  0.37080  0.94060  1.0000
  C   C26       1.0  0.79690  0.62920  0.44060  1.0000
  C   C27       1.0  0.20310  0.12920  0.05940  1.0000
  C   C28       1.0  0.29690  0.87080  0.55940  1.0000
  C   C29       1.0  0.29690  0.62920  0.05940  1.0000
  C   C30       1.0  0.20310  0.37080  0.55940  1.0000
  C   C31       1.0  0.79690  0.87080  0.94060  1.0000
  C   C32       1.0  0.70310  0.12920  0.44060  1.0000
  C   C33       1.0  0.65310  0.28120  0.96250  1.0000
  C   C34       1.0  0.84690  0.71880  0.46250  1.0000
  C   C35       1.0  0.15310  0.21880  0.03750  1.0000
  C   C36       1.0  0.34690  0.78120  0.53750  1.0000
  C   C37       1.0  0.34690  0.71880  0.03750  1.0000
  C   C38       1.0  0.15310  0.28120  0.53750  1.0000
  C   C39       1.0  0.84690  0.78120  0.96250  1.0000
  C   C40       1.0  0.65310  0.21880  0.46250  1.0000
  H   H9        1.0  0.65740  0.25440  0.01460  1.0000
  H   H10       1.0  0.84260  0.74560  0.51460  1.0000
  H   H11       1.0  0.15740  0.24560  0.98540  1.0000
  H   H12       1.0  0.34260  0.75440  0.48540  1.0000
  H   H13       1.0  0.34260  0.74560  0.98540  1.0000
  H   H14       1.0  0.15740  0.25440  0.48540  1.0000
  H   H15       1.0  0.84260  0.75440  0.01460  1.0000
  H   H16       1.0  0.65740  0.24560  0.51460  1.0000
  C   C41       1.0  0.64110  0.36060  0.80630  1.0000
  C   C42       1.0  0.85890  0.63940  0.30630  1.0000
  C   C43       1.0  0.14110  0.13940  0.19370  1.0000
  C   C44       1.0  0.35890  0.86060  0.69370  1.0000
  C   C45       1.0  0.35890  0.63940  0.19370  1.0000
  C   C46       1.0  0.14110  0.36060  0.69370  1.0000
  C   C47       1.0  0.85890  0.86060  0.80630  1.0000
  C   C48       1.0  0.64110  0.13940  0.30630  1.0000
  C   C49       1.0  0.69430  0.41190  0.86290  1.0000
  C   C50       1.0  0.80570  0.58810  0.36290  1.0000
  C   C51       1.0  0.19430  0.08810  0.13710  1.0000
  C   C52       1.0  0.30570  0.91190  0.63710  1.0000
  C   C53       1.0  0.30570  0.58810  0.13710  1.0000
  C   C54       1.0  0.19430  0.41190  0.63710  1.0000
  C   C55       1.0  0.80570  0.91190  0.86290  1.0000
  C   C56       1.0  0.69430  0.08810  0.36290  1.0000
  H   H17       1.0  0.72460  0.47460  0.84880  1.0000
  H   H18       1.0  0.77540  0.52540  0.34880  1.0000
  H   H19       1.0  0.22460  0.02540  0.15120  1.0000
  H   H20       1.0  0.27540  0.97460  0.65120  1.0000
  H   H21       1.0  0.27540  0.52540  0.15120  1.0000
  H   H22       1.0  0.22460  0.47460  0.65120  1.0000
  H   H23       1.0  0.77540  0.97460  0.84880  1.0000
  H   H24       1.0  0.72460  0.02540  0.34880  1.0000
  C   C57       1.0  0.59670  0.23110  0.90690  1.0000
  C   C58       1.0  0.90330  0.76890  0.40690  1.0000
  C   C59       1.0  0.09670  0.26890  0.09310  1.0000
  C   C60       1.0  0.40330  0.73110  0.59310  1.0000
  C   C61       1.0  0.40330  0.76890  0.09310  1.0000
  C   C62       1.0  0.09670  0.23110  0.59310  1.0000
  C   C63       1.0  0.90330  0.73110  0.90690  1.0000
  C   C64       1.0  0.59670  0.26890  0.40690  1.0000
  C   C65       1.0  0.53860  0.13850  0.93110  1.0000
  C   C66       1.0  0.96140  0.86150  0.43110  1.0000
  C   C67       1.0  0.03860  0.36150  0.06890  1.0000
  C   C68       1.0  0.46140  0.63850  0.56890  1.0000
  C   C69       1.0  0.46140  0.86150  0.06890  1.0000
  C   C70       1.0  0.03860  0.13850  0.56890  1.0000
  C   C71       1.0  0.96140  0.63850  0.93110  1.0000
  C   C72       1.0  0.53860  0.36150  0.43110  1.0000
  Mn  Mn1       1.0  0.60414  0.48519  0.58091  1.0000
  Mn  Mn2       1.0  0.89586  0.51481  0.08091  1.0000
  Mn  Mn3       1.0  0.10414  0.01481  0.41909  1.0000
  Mn  Mn4       1.0  0.39586  0.98519  0.91909  1.0000
  Mn  Mn5       1.0  0.39586  0.51481  0.41909  1.0000
  Mn  Mn6       1.0  0.10414  0.48519  0.91909  1.0000
  Mn  Mn7       1.0  0.89586  0.98519  0.58091  1.0000
  Mn  Mn8       1.0  0.60414  0.01481  0.08091  1.0000
  O   O33       1.0  0.79100  0.51590  0.98760  1.0000
  O   O34       1.0  0.70900  0.48410  0.48760  1.0000
  O   O35       1.0  0.29100  0.98410  0.01240  1.0000
  O   O36       1.0  0.20900  0.01590  0.51240  1.0000
  O   O37       1.0  0.20900  0.48410  0.01240  1.0000
  O   O38       1.0  0.29100  0.51590  0.51240  1.0000
  O   O39       1.0  0.70900  0.01590  0.98760  1.0000
  O   O40       1.0  0.79100  0.98410  0.48760  1.0000
  O   O41       1.0  0.80230  0.36670  0.05270  1.0000
  O   O42       1.0  0.69770  0.63330  0.55270  1.0000
  O   O43       1.0  0.30230  0.13330  0.94730  1.0000
  O   O44       1.0  0.19770  0.86670  0.44730  1.0000
  O   O45       1.0  0.19770  0.63330  0.94730  1.0000
  O   O46       1.0  0.30230  0.36670  0.44730  1.0000
  O   O47       1.0  0.69770  0.86670  0.05270  1.0000
  O   O48       1.0  0.80230  0.13330  0.55270  1.0000
