data_image0
_chemical_formula_structural       Mn8O32C8H8O8C16H8C24O8C8H8C16
_chemical_formula_sum              "Mn8 O48 C72 H24"
_cell_length_a       14.3847
_cell_length_b       12.2888
_cell_length_c       16.6029
_cell_angle_alpha    90
_cell_angle_beta     90
_cell_angle_gamma    90

_space_group_name_H-M_alt    "P 1"
_space_group_IT_number       1

loop_
  _space_group_symop_operation_xyz
  'x, y, z'

loop_
  _atom_site_type_symbol
  _atom_site_label
  _atom_site_symmetry_multiplicity
  _atom_site_fract_x
  _atom_site_fract_y
  _atom_site_fract_z
  _atom_site_occupancy
  Mn  Mn1       1.0  0.10689  0.47768  0.92615  1.0000
  Mn  Mn2       1.0  0.39311  0.52232  0.42615  1.0000
  Mn  Mn3       1.0  0.89311  0.97768  0.57385  1.0000
  Mn  Mn4       1.0  0.60689  0.02232  0.07385  1.0000
  Mn  Mn5       1.0  0.89311  0.52232  0.07385  1.0000
  Mn  Mn6       1.0  0.60689  0.47768  0.57385  1.0000
  Mn  Mn7       1.0  0.10689  0.02232  0.42615  1.0000
  Mn  Mn8       1.0  0.39311  0.97768  0.92615  1.0000
  O   O1        1.0  0.29030  0.52250  0.52250  1.0000
  O   O2        1.0  0.20970  0.47750  0.02250  1.0000
  O   O3        1.0  0.70970  0.02250  0.97750  1.0000
  O   O4        1.0  0.79030  0.97750  0.47750  1.0000
  O   O5        1.0  0.70970  0.47750  0.47750  1.0000
  O   O6        1.0  0.79030  0.52250  0.97750  1.0000
  O   O7        1.0  0.29030  0.97750  0.02250  1.0000
  O   O8        1.0  0.20970  0.02250  0.52250  1.0000
  O   O9        1.0  0.29580  0.37400  0.45090  1.0000
  O   O10       1.0  0.20420  0.62600  0.95090  1.0000
  O   O11       1.0  0.70420  0.87400  0.04910  1.0000
  O   O12       1.0  0.79580  0.12600  0.54910  1.0000
  O   O13       1.0  0.70420  0.62600  0.54910  1.0000
  O   O14       1.0  0.79580  0.37400  0.04910  1.0000
  O   O15       1.0  0.29580  0.12600  0.95090  1.0000
  O   O16       1.0  0.20420  0.87400  0.45090  1.0000
  O   O17       1.0  0.09850  0.33460  0.84110  1.0000
  O   O18       1.0  0.40150  0.66540  0.34110  1.0000
  O   O19       1.0  0.90150  0.83460  0.65890  1.0000
  O   O20       1.0  0.59850  0.16540  0.15890  1.0000
  O   O21       1.0  0.90150  0.66540  0.15890  1.0000
  O   O22       1.0  0.59850  0.33460  0.65890  1.0000
  O   O23       1.0  0.09850  0.16540  0.34110  1.0000
  O   O24       1.0  0.40150  0.83460  0.84110  1.0000
  O   O25       1.0  0.99940  0.07400  0.62910  1.0000
  O   O26       1.0  0.50060  0.92600  0.12910  1.0000
  O   O27       1.0  0.00060  0.57400  0.87090  1.0000
  O   O28       1.0  0.49940  0.42600  0.37090  1.0000
  O   O29       1.0  0.00060  0.92600  0.37090  1.0000
  O   O30       1.0  0.49940  0.07400  0.87090  1.0000
  O   O31       1.0  0.99940  0.42600  0.12910  1.0000
  O   O32       1.0  0.50060  0.57400  0.62910  1.0000
  C   C1        1.0  0.14810  0.28160  0.54440  1.0000
  C   C2        1.0  0.35190  0.71840  0.04440  1.0000
  C   C3        1.0  0.85190  0.78160  0.95560  1.0000
  C   C4        1.0  0.64810  0.21840  0.45560  1.0000
  C   C5        1.0  0.85190  0.71840  0.45560  1.0000
  C   C6        1.0  0.64810  0.28160  0.95560  1.0000
  C   C7        1.0  0.14810  0.21840  0.04440  1.0000
  C   C8        1.0  0.35190  0.78160  0.54440  1.0000
  H   H1        1.0  0.14970  0.25780  0.49120  1.0000
  H   H2        1.0  0.35030  0.74220  0.99120  1.0000
  H   H3        1.0  0.85030  0.75780  0.00880  1.0000
  H   H4        1.0  0.64970  0.24220  0.50880  1.0000
  H   H5        1.0  0.85030  0.74220  0.50880  1.0000
  H   H6        1.0  0.64970  0.25780  0.00880  1.0000
  H   H7        1.0  0.14970  0.24220  0.99120  1.0000
  H   H8        1.0  0.35030  0.75780  0.49120  1.0000
  O   O33       1.0  0.01700  0.11930  0.50070  1.0000
  O   O34       1.0  0.48300  0.88070  0.00070  1.0000
  O   O35       1.0  0.98300  0.61930  0.99930  1.0000
  O   O36       1.0  0.51700  0.38070  0.49930  1.0000
  O   O37       1.0  0.98300  0.88070  0.49930  1.0000
  O   O38       1.0  0.51700  0.11930  0.99930  1.0000
  O   O39       1.0  0.01700  0.38070  0.00070  1.0000
  O   O40       1.0  0.48300  0.61930  0.50070  1.0000
  C   C9        1.0  0.26520  0.42660  0.50920  1.0000
  C   C10       1.0  0.23480  0.57340  0.00920  1.0000
  C   C11       1.0  0.73480  0.92660  0.99080  1.0000
  C   C12       1.0  0.76520  0.07340  0.49080  1.0000
  C   C13       1.0  0.73480  0.57340  0.49080  1.0000
  C   C14       1.0  0.76520  0.42660  0.99080  1.0000
  C   C15       1.0  0.26520  0.07340  0.00920  1.0000
  C   C16       1.0  0.23480  0.92660  0.50920  1.0000
  C   C17       1.0  0.19520  0.40830  0.64650  1.0000
  C   C18       1.0  0.30480  0.59170  0.14650  1.0000
  C   C19       1.0  0.80480  0.90830  0.85350  1.0000
  C   C20       1.0  0.69520  0.09170  0.35350  1.0000
  C   C21       1.0  0.80480  0.59170  0.35350  1.0000
  C   C22       1.0  0.69520  0.40830  0.85350  1.0000
  C   C23       1.0  0.19520  0.09170  0.14650  1.0000
  C   C24       1.0  0.30480  0.90830  0.64650  1.0000
  H   H9        1.0  0.22640  0.47140  0.66150  1.0000
  H   H10       1.0  0.27360  0.52860  0.16150  1.0000
  H   H11       1.0  0.77360  0.97140  0.83850  1.0000
  H   H12       1.0  0.72640  0.02860  0.33850  1.0000
  H   H13       1.0  0.77360  0.52860  0.33850  1.0000
  H   H14       1.0  0.72640  0.47140  0.83850  1.0000
  H   H15       1.0  0.22640  0.02860  0.16150  1.0000
  H   H16       1.0  0.27360  0.97140  0.66150  1.0000
  C   C25       1.0  0.14070  0.39050  0.78890  1.0000
  C   C26       1.0  0.35930  0.60950  0.28890  1.0000
  C   C27       1.0  0.85930  0.89050  0.71110  1.0000
  C   C28       1.0  0.64070  0.10950  0.21110  1.0000
  C   C29       1.0  0.85930  0.60950  0.21110  1.0000
  C   C30       1.0  0.64070  0.39050  0.71110  1.0000
  C   C31       1.0  0.14070  0.10950  0.28890  1.0000
  C   C32       1.0  0.35930  0.89050  0.78890  1.0000
  C   C33       1.0  0.20050  0.37230  0.56700  1.0000
  C   C34       1.0  0.29950  0.62770  0.06700  1.0000
  C   C35       1.0  0.79950  0.87230  0.93300  1.0000
  C   C36       1.0  0.70050  0.12770  0.43300  1.0000
  C   C37       1.0  0.79950  0.62770  0.43300  1.0000
  C   C38       1.0  0.70050  0.37230  0.93300  1.0000
  C   C39       1.0  0.20050  0.12770  0.06700  1.0000
  C   C40       1.0  0.29950  0.87230  0.56700  1.0000
  C   C41       1.0  0.03360  0.13360  0.57420  1.0000
  C   C42       1.0  0.46640  0.86640  0.07420  1.0000
  C   C43       1.0  0.96640  0.63360  0.92580  1.0000
  C   C44       1.0  0.53360  0.36640  0.42580  1.0000
  C   C45       1.0  0.96640  0.86640  0.42580  1.0000
  C   C46       1.0  0.53360  0.13360  0.92580  1.0000
  C   C47       1.0  0.03360  0.36640  0.07420  1.0000
  C   C48       1.0  0.46640  0.63360  0.57420  1.0000
  O   O41       1.0  0.17940  0.47820  0.80620  1.0000
  O   O42       1.0  0.32060  0.52180  0.30620  1.0000
  O   O43       1.0  0.82060  0.97820  0.69380  1.0000
  O   O44       1.0  0.67940  0.02180  0.19380  1.0000
  O   O45       1.0  0.82060  0.52180  0.19380  1.0000
  O   O46       1.0  0.67940  0.47820  0.69380  1.0000
  O   O47       1.0  0.17940  0.02180  0.30620  1.0000
  O   O48       1.0  0.32060  0.97820  0.80620  1.0000
  C   C49       1.0  0.09340  0.26070  0.67940  1.0000
  C   C50       1.0  0.40660  0.73930  0.17940  1.0000
  C   C51       1.0  0.90660  0.76070  0.82060  1.0000
  C   C52       1.0  0.59340  0.23930  0.32060  1.0000
  C   C53       1.0  0.90660  0.73930  0.32060  1.0000
  C   C54       1.0  0.59340  0.26070  0.82060  1.0000
  C   C55       1.0  0.09340  0.23930  0.17940  1.0000
  C   C56       1.0  0.40660  0.76070  0.67940  1.0000
  H   H17       1.0  0.05890  0.22250  0.71740  1.0000
  H   H18       1.0  0.44110  0.77750  0.21740  1.0000
  H   H19       1.0  0.94110  0.72250  0.78260  1.0000
  H   H20       1.0  0.55890  0.27750  0.28260  1.0000
  H   H21       1.0  0.94110  0.77750  0.28260  1.0000
  H   H22       1.0  0.55890  0.22250  0.78260  1.0000
  H   H23       1.0  0.05890  0.27750  0.21740  1.0000
  H   H24       1.0  0.44110  0.72250  0.71740  1.0000
  C   C57       1.0  0.09320  0.22630  0.60030  1.0000
  C   C58       1.0  0.40680  0.77370  0.10030  1.0000
  C   C59       1.0  0.90680  0.72630  0.89970  1.0000
  C   C60       1.0  0.59320  0.27370  0.39970  1.0000
  C   C61       1.0  0.90680  0.77370  0.39970  1.0000
  C   C62       1.0  0.59320  0.22630  0.89970  1.0000
  C   C63       1.0  0.09320  0.27370  0.10030  1.0000
  C   C64       1.0  0.40680  0.72630  0.60030  1.0000
  C   C65       1.0  0.14410  0.35150  0.70330  1.0000
  C   C66       1.0  0.35590  0.64850  0.20330  1.0000
  C   C67       1.0  0.85590  0.85150  0.79670  1.0000
  C   C68       1.0  0.64410  0.14850  0.29670  1.0000
  C   C69       1.0  0.85590  0.64850  0.29670  1.0000
  C   C70       1.0  0.64410  0.35150  0.79670  1.0000
  C   C71       1.0  0.14410  0.14850  0.20330  1.0000
  C   C72       1.0  0.35590  0.85150  0.70330  1.0000
