data_image0
_chemical_formula_structural       O32C16H8C8O8C8H8C16H8C24O8Mn8
_chemical_formula_sum              "O48 C72 H24 Mn8"
_cell_length_a       14.7079
_cell_length_b       12.3931
_cell_length_c       16.6458
_cell_angle_alpha    90
_cell_angle_beta     90
_cell_angle_gamma    90

_space_group_name_H-M_alt    "P 1"
_space_group_IT_number       1

loop_
  _space_group_symop_operation_xyz
  'x, y, z'

loop_
  _atom_site_type_symbol
  _atom_site_label
  _atom_site_symmetry_multiplicity
  _atom_site_fract_x
  _atom_site_fract_y
  _atom_site_fract_z
  _atom_site_occupancy
  O   O1        1.0  0.50141  0.08060  0.87398  1.0000
  O   O2        1.0  0.99859  0.91940  0.37398  1.0000
  O   O3        1.0  0.00141  0.41940  0.12602  1.0000
  O   O4        1.0  0.49859  0.58060  0.62602  1.0000
  O   O5        1.0  0.49859  0.91940  0.12602  1.0000
  O   O6        1.0  0.00141  0.08060  0.62602  1.0000
  O   O7        1.0  0.99859  0.58060  0.87398  1.0000
  O   O8        1.0  0.50141  0.41940  0.37398  1.0000
  O   O9        1.0  0.59520  0.34680  0.66660  1.0000
  O   O10       1.0  0.90480  0.65320  0.16660  1.0000
  O   O11       1.0  0.09520  0.15320  0.33340  1.0000
  O   O12       1.0  0.40480  0.84680  0.83340  1.0000
  O   O13       1.0  0.40480  0.65320  0.33340  1.0000
  O   O14       1.0  0.09520  0.34680  0.83340  1.0000
  O   O15       1.0  0.90480  0.84680  0.66660  1.0000
  O   O16       1.0  0.59520  0.15320  0.16660  1.0000
  O   O17       1.0  0.52422  0.12010  0.00315  1.0000
  O   O18       1.0  0.97578  0.87990  0.50315  1.0000
  O   O19       1.0  0.02422  0.37990  0.99685  1.0000
  O   O20       1.0  0.47578  0.62010  0.49685  1.0000
  O   O21       1.0  0.47578  0.87990  0.99685  1.0000
  O   O22       1.0  0.02422  0.12010  0.49685  1.0000
  O   O23       1.0  0.97578  0.62010  0.00315  1.0000
  O   O24       1.0  0.52422  0.37990  0.50315  1.0000
  O   O25       1.0  0.67410  0.48870  0.70191  1.0000
  O   O26       1.0  0.82590  0.51130  0.20191  1.0000
  O   O27       1.0  0.17410  0.01130  0.29809  1.0000
  O   O28       1.0  0.32590  0.98870  0.79809  1.0000
  O   O29       1.0  0.32590  0.51130  0.29809  1.0000
  O   O30       1.0  0.17410  0.48870  0.79809  1.0000
  O   O31       1.0  0.82590  0.98870  0.70191  1.0000
  O   O32       1.0  0.67410  0.01130  0.20191  1.0000
  C   C1        1.0  0.53760  0.13710  0.92910  1.0000
  C   C2        1.0  0.96240  0.86290  0.42910  1.0000
  C   C3        1.0  0.03760  0.36290  0.07090  1.0000
  C   C4        1.0  0.46240  0.63710  0.57090  1.0000
  C   C5        1.0  0.46240  0.86290  0.07090  1.0000
  C   C6        1.0  0.03760  0.13710  0.57090  1.0000
  C   C7        1.0  0.96240  0.63710  0.92910  1.0000
  C   C8        1.0  0.53760  0.36290  0.42910  1.0000
  C   C9        1.0  0.59320  0.26750  0.82580  1.0000
  C   C10       1.0  0.90680  0.73250  0.32580  1.0000
  C   C11       1.0  0.09320  0.23250  0.17420  1.0000
  C   C12       1.0  0.40680  0.76750  0.67420  1.0000
  C   C13       1.0  0.40680  0.73250  0.17420  1.0000
  C   C14       1.0  0.09320  0.26750  0.67420  1.0000
  C   C15       1.0  0.90680  0.76750  0.82580  1.0000
  C   C16       1.0  0.59320  0.23250  0.32580  1.0000
  H   H1        1.0  0.55760  0.23050  0.78700  1.0000
  H   H2        1.0  0.94240  0.76950  0.28700  1.0000
  H   H3        1.0  0.05760  0.26950  0.21300  1.0000
  H   H4        1.0  0.44240  0.73050  0.71300  1.0000
  H   H5        1.0  0.44240  0.76950  0.21300  1.0000
  H   H6        1.0  0.05760  0.23050  0.71300  1.0000
  H   H7        1.0  0.94240  0.73050  0.78700  1.0000
  H   H8        1.0  0.55760  0.26950  0.28700  1.0000
  C   C17       1.0  0.76870  0.42540  0.99510  1.0000
  C   C18       1.0  0.73130  0.57460  0.49510  1.0000
  C   C19       1.0  0.26870  0.07460  0.00490  1.0000
  C   C20       1.0  0.23130  0.92540  0.50490  1.0000
  C   C21       1.0  0.23130  0.57460  0.00490  1.0000
  C   C22       1.0  0.26870  0.42540  0.50490  1.0000
  C   C23       1.0  0.73130  0.92540  0.99510  1.0000
  C   C24       1.0  0.76870  0.07460  0.49510  1.0000
  O   O33       1.0  0.79070  0.51910  0.98469  1.0000
  O   O34       1.0  0.70930  0.48090  0.48469  1.0000
  O   O35       1.0  0.29070  0.98090  0.01531  1.0000
  O   O36       1.0  0.20930  0.01910  0.51531  1.0000
  O   O37       1.0  0.20930  0.48090  0.01531  1.0000
  O   O38       1.0  0.29070  0.51910  0.51531  1.0000
  O   O39       1.0  0.70930  0.01910  0.98469  1.0000
  O   O40       1.0  0.79070  0.98090  0.48469  1.0000
  C   C25       1.0  0.65280  0.28120  0.95970  1.0000
  C   C26       1.0  0.84720  0.71880  0.45970  1.0000
  C   C27       1.0  0.15280  0.21880  0.04030  1.0000
  C   C28       1.0  0.34720  0.78120  0.54030  1.0000
  C   C29       1.0  0.34720  0.71880  0.04030  1.0000
  C   C30       1.0  0.15280  0.28120  0.54030  1.0000
  C   C31       1.0  0.84720  0.78120  0.95970  1.0000
  C   C32       1.0  0.65280  0.21880  0.45970  1.0000
  H   H9        1.0  0.65720  0.25410  0.01300  1.0000
  H   H10       1.0  0.84280  0.74590  0.51300  1.0000
  H   H11       1.0  0.15720  0.24590  0.98700  1.0000
  H   H12       1.0  0.34280  0.75410  0.48700  1.0000
  H   H13       1.0  0.34280  0.74590  0.98700  1.0000
  H   H14       1.0  0.15720  0.25410  0.48700  1.0000
  H   H15       1.0  0.84280  0.75410  0.01300  1.0000
  H   H16       1.0  0.65720  0.24590  0.51300  1.0000
  C   C33       1.0  0.70300  0.37150  0.93760  1.0000
  C   C34       1.0  0.79700  0.62850  0.43760  1.0000
  C   C35       1.0  0.20300  0.12850  0.06240  1.0000
  C   C36       1.0  0.29700  0.87150  0.56240  1.0000
  C   C37       1.0  0.29700  0.62850  0.06240  1.0000
  C   C38       1.0  0.20300  0.37150  0.56240  1.0000
  C   C39       1.0  0.79700  0.87150  0.93760  1.0000
  C   C40       1.0  0.70300  0.12850  0.43760  1.0000
  C   C41       1.0  0.69540  0.41130  0.85990  1.0000
  C   C42       1.0  0.80460  0.58870  0.35990  1.0000
  C   C43       1.0  0.19540  0.08870  0.14010  1.0000
  C   C44       1.0  0.30460  0.91130  0.64010  1.0000
  C   C45       1.0  0.30460  0.58870  0.14010  1.0000
  C   C46       1.0  0.19540  0.41130  0.64010  1.0000
  C   C47       1.0  0.80460  0.91130  0.85990  1.0000
  C   C48       1.0  0.69540  0.08870  0.35990  1.0000
  H   H17       1.0  0.72710  0.47520  0.84540  1.0000
  H   H18       1.0  0.77290  0.52480  0.34540  1.0000
  H   H19       1.0  0.22710  0.02480  0.15460  1.0000
  H   H20       1.0  0.27290  0.97520  0.65460  1.0000
  H   H21       1.0  0.27290  0.52480  0.15460  1.0000
  H   H22       1.0  0.22710  0.47520  0.65460  1.0000
  H   H23       1.0  0.77290  0.97520  0.84540  1.0000
  H   H24       1.0  0.72710  0.02480  0.34540  1.0000
  C   C49       1.0  0.59640  0.23020  0.90470  1.0000
  C   C50       1.0  0.90360  0.76980  0.40470  1.0000
  C   C51       1.0  0.09640  0.26980  0.09530  1.0000
  C   C52       1.0  0.40360  0.73020  0.59530  1.0000
  C   C53       1.0  0.40360  0.76980  0.09530  1.0000
  C   C54       1.0  0.09640  0.23020  0.59530  1.0000
  C   C55       1.0  0.90360  0.73020  0.90470  1.0000
  C   C56       1.0  0.59640  0.26980  0.40470  1.0000
  C   C57       1.0  0.64240  0.35920  0.80340  1.0000
  C   C58       1.0  0.85760  0.64080  0.30340  1.0000
  C   C59       1.0  0.14240  0.14080  0.19660  1.0000
  C   C60       1.0  0.35760  0.85920  0.69660  1.0000
  C   C61       1.0  0.35760  0.64080  0.19660  1.0000
  C   C62       1.0  0.14240  0.35920  0.69660  1.0000
  C   C63       1.0  0.85760  0.85920  0.80340  1.0000
  C   C64       1.0  0.64240  0.14080  0.30340  1.0000
  C   C65       1.0  0.63770  0.39840  0.71750  1.0000
  C   C66       1.0  0.86230  0.60160  0.21750  1.0000
  C   C67       1.0  0.13770  0.10160  0.28250  1.0000
  C   C68       1.0  0.36230  0.89840  0.78250  1.0000
  C   C69       1.0  0.36230  0.60160  0.28250  1.0000
  C   C70       1.0  0.13770  0.39840  0.78250  1.0000
  C   C71       1.0  0.86230  0.89840  0.71750  1.0000
  C   C72       1.0  0.63770  0.10160  0.21750  1.0000
  O   O41       1.0  0.80170  0.36870  0.05136  1.0000
  O   O42       1.0  0.69830  0.63130  0.55136  1.0000
  O   O43       1.0  0.30170  0.13130  0.94864  1.0000
  O   O44       1.0  0.19830  0.86870  0.44864  1.0000
  O   O45       1.0  0.19830  0.63130  0.94864  1.0000
  O   O46       1.0  0.30170  0.36870  0.44864  1.0000
  O   O47       1.0  0.69830  0.86870  0.05136  1.0000
  O   O48       1.0  0.80170  0.13130  0.55136  1.0000
  Mn  Mn1       1.0  0.60497  0.48245  0.57893  1.0000
  Mn  Mn2       1.0  0.89503  0.51755  0.07893  1.0000
  Mn  Mn3       1.0  0.10497  0.01755  0.42107  1.0000
  Mn  Mn4       1.0  0.39503  0.98245  0.92107  1.0000
  Mn  Mn5       1.0  0.39503  0.51755  0.42107  1.0000
  Mn  Mn6       1.0  0.10497  0.48245  0.92107  1.0000
  Mn  Mn7       1.0  0.89503  0.98245  0.57893  1.0000
  Mn  Mn8       1.0  0.60497  0.01755  0.07893  1.0000
