data_image0
_chemical_formula_structural       Mn8O32C8H8O8C16H8C24O8C8H8C16
_chemical_formula_sum              "Mn8 O48 C72 H24"
_cell_length_a       14.138
_cell_length_b       11.686
_cell_length_c       16.583
_cell_angle_alpha    90
_cell_angle_beta     90
_cell_angle_gamma    90

_space_group_name_H-M_alt    "P 1"
_space_group_IT_number       1

loop_
  _space_group_symop_operation_xyz
  'x, y, z'

loop_
  _atom_site_type_symbol
  _atom_site_label
  _atom_site_symmetry_multiplicity
  _atom_site_fract_x
  _atom_site_fract_y
  _atom_site_fract_z
  _atom_site_occupancy
  Mn  Mn1       1.0  0.61063  0.46860  0.56065  1.0000
  Mn  Mn2       1.0  0.88937  0.53140  0.06065  1.0000
  Mn  Mn3       1.0  0.38937  0.96860  0.93935  1.0000
  Mn  Mn4       1.0  0.11063  0.03140  0.43935  1.0000
  Mn  Mn5       1.0  0.38937  0.53140  0.43935  1.0000
  Mn  Mn6       1.0  0.11063  0.46860  0.93935  1.0000
  Mn  Mn7       1.0  0.61063  0.03140  0.06065  1.0000
  Mn  Mn8       1.0  0.88937  0.96860  0.56065  1.0000
  O   O1        1.0  0.79860  0.52350  0.95520  1.0000
  O   O2        1.0  0.70140  0.47650  0.45520  1.0000
  O   O3        1.0  0.20140  0.02350  0.54480  1.0000
  O   O4        1.0  0.29860  0.97650  0.04480  1.0000
  O   O5        1.0  0.20140  0.47650  0.04480  1.0000
  O   O6        1.0  0.29860  0.52350  0.54480  1.0000
  O   O7        1.0  0.79860  0.97650  0.45520  1.0000
  O   O8        1.0  0.70140  0.02350  0.95520  1.0000
  O   O9        1.0  0.78670  0.37930  0.03990  1.0000
  O   O10       1.0  0.71330  0.62070  0.53990  1.0000
  O   O11       1.0  0.21330  0.87930  0.46010  1.0000
  O   O12       1.0  0.28670  0.12070  0.96010  1.0000
  O   O13       1.0  0.21330  0.62070  0.96010  1.0000
  O   O14       1.0  0.28670  0.37930  0.46010  1.0000
  O   O15       1.0  0.78670  0.12070  0.53990  1.0000
  O   O16       1.0  0.71330  0.87930  0.03990  1.0000
  O   O17       1.0  0.60480  0.30930  0.64140  1.0000
  O   O18       1.0  0.89520  0.69070  0.14140  1.0000
  O   O19       1.0  0.39520  0.80930  0.85860  1.0000
  O   O20       1.0  0.10480  0.19070  0.35860  1.0000
  O   O21       1.0  0.39520  0.69070  0.35860  1.0000
  O   O22       1.0  0.10480  0.30930  0.85860  1.0000
  O   O23       1.0  0.60480  0.19070  0.14140  1.0000
  O   O24       1.0  0.89520  0.80930  0.64140  1.0000
  O   O25       1.0  0.48890  0.05850  0.86380  1.0000
  O   O26       1.0  0.01110  0.94150  0.36380  1.0000
  O   O27       1.0  0.51110  0.55850  0.63620  1.0000
  O   O28       1.0  0.98890  0.44150  0.13620  1.0000
  O   O29       1.0  0.51110  0.94150  0.13620  1.0000
  O   O30       1.0  0.98890  0.05850  0.63620  1.0000
  O   O31       1.0  0.48890  0.44150  0.36380  1.0000
  O   O32       1.0  0.01110  0.55850  0.86380  1.0000
  C   C1        1.0  0.63960  0.28570  0.94320  1.0000
  C   C2        1.0  0.86040  0.71430  0.44320  1.0000
  C   C3        1.0  0.36040  0.78570  0.55680  1.0000
  C   C4        1.0  0.13960  0.21430  0.05680  1.0000
  C   C5        1.0  0.36040  0.71430  0.05680  1.0000
  C   C6        1.0  0.13960  0.28570  0.55680  1.0000
  C   C7        1.0  0.63960  0.21430  0.44320  1.0000
  C   C8        1.0  0.86040  0.78570  0.94320  1.0000
  H   H1        1.0  0.63250  0.27210  0.99810  1.0000
  H   H2        1.0  0.86750  0.72790  0.49810  1.0000
  H   H3        1.0  0.36750  0.77210  0.50190  1.0000
  H   H4        1.0  0.13250  0.22790  0.00190  1.0000
  H   H5        1.0  0.36750  0.72790  0.00190  1.0000
  H   H6        1.0  0.13250  0.27210  0.50190  1.0000
  H   H7        1.0  0.63250  0.22790  0.49810  1.0000
  H   H8        1.0  0.86750  0.77210  0.99810  1.0000
  O   O33       1.0  0.50220  0.12020  0.99180  1.0000
  O   O34       1.0  0.99780  0.87980  0.49180  1.0000
  O   O35       1.0  0.49780  0.62020  0.50820  1.0000
  O   O36       1.0  0.00220  0.37980  0.00820  1.0000
  O   O37       1.0  0.49780  0.87980  0.00820  1.0000
  O   O38       1.0  0.00220  0.12020  0.50820  1.0000
  O   O39       1.0  0.50220  0.37980  0.49180  1.0000
  O   O40       1.0  0.99780  0.62020  0.99180  1.0000
  C   C9        1.0  0.76250  0.43100  0.97500  1.0000
  C   C10       1.0  0.73750  0.56900  0.47500  1.0000
  C   C11       1.0  0.23750  0.93100  0.52500  1.0000
  C   C12       1.0  0.26250  0.06900  0.02500  1.0000
  C   C13       1.0  0.23750  0.56900  0.02500  1.0000
  C   C14       1.0  0.26250  0.43100  0.52500  1.0000
  C   C15       1.0  0.76250  0.06900  0.47500  1.0000
  C   C16       1.0  0.73750  0.93100  0.97500  1.0000
  C   C17       1.0  0.70080  0.39960  0.83520  1.0000
  C   C18       1.0  0.79920  0.60040  0.33520  1.0000
  C   C19       1.0  0.29920  0.89960  0.66480  1.0000
  C   C20       1.0  0.20080  0.10040  0.16480  1.0000
  C   C21       1.0  0.29920  0.60040  0.16480  1.0000
  C   C22       1.0  0.20080  0.39960  0.66480  1.0000
  C   C23       1.0  0.70080  0.10040  0.33520  1.0000
  C   C24       1.0  0.79920  0.89960  0.83520  1.0000
  H   H9        1.0  0.73600  0.46190  0.81730  1.0000
  H   H10       1.0  0.76400  0.53810  0.31730  1.0000
  H   H11       1.0  0.26400  0.96190  0.68270  1.0000
  H   H12       1.0  0.23600  0.03810  0.18270  1.0000
  H   H13       1.0  0.26400  0.53810  0.18270  1.0000
  H   H14       1.0  0.23600  0.46190  0.68270  1.0000
  H   H15       1.0  0.73600  0.03810  0.31730  1.0000
  H   H16       1.0  0.76400  0.96190  0.81730  1.0000
  C   C25       1.0  0.64970  0.36800  0.69280  1.0000
  C   C26       1.0  0.85030  0.63200  0.19280  1.0000
  C   C27       1.0  0.35030  0.86800  0.80720  1.0000
  C   C28       1.0  0.14970  0.13200  0.30720  1.0000
  C   C29       1.0  0.35030  0.63200  0.30720  1.0000
  C   C30       1.0  0.14970  0.36800  0.80720  1.0000
  C   C31       1.0  0.64970  0.13200  0.19280  1.0000
  C   C32       1.0  0.85030  0.86800  0.69280  1.0000
  C   C33       1.0  0.70090  0.36740  0.91780  1.0000
  C   C34       1.0  0.79910  0.63260  0.41780  1.0000
  C   C35       1.0  0.29910  0.86740  0.58220  1.0000
  C   C36       1.0  0.20090  0.13260  0.08220  1.0000
  C   C37       1.0  0.29910  0.63260  0.08220  1.0000
  C   C38       1.0  0.20090  0.36740  0.58220  1.0000
  C   C39       1.0  0.70090  0.13260  0.41780  1.0000
  C   C40       1.0  0.79910  0.86740  0.91780  1.0000
  C   C41       1.0  0.52390  0.12800  0.91440  1.0000
  C   C42       1.0  0.97610  0.87200  0.41440  1.0000
  C   C43       1.0  0.47610  0.62800  0.58560  1.0000
  C   C44       1.0  0.02390  0.37200  0.08560  1.0000
  C   C45       1.0  0.47610  0.87200  0.08560  1.0000
  C   C46       1.0  0.02390  0.12800  0.58560  1.0000
  C   C47       1.0  0.52390  0.37200  0.41440  1.0000
  C   C48       1.0  0.97610  0.62800  0.91440  1.0000
  O   O41       1.0  0.69620  0.45190  0.67170  1.0000
  O   O42       1.0  0.80380  0.54810  0.17170  1.0000
  O   O43       1.0  0.30380  0.95190  0.82830  1.0000
  O   O44       1.0  0.19620  0.04810  0.32830  1.0000
  O   O45       1.0  0.30380  0.54810  0.32830  1.0000
  O   O46       1.0  0.19620  0.45190  0.82830  1.0000
  O   O47       1.0  0.69620  0.04810  0.17170  1.0000
  O   O48       1.0  0.80380  0.95190  0.67170  1.0000
  C   C49       1.0  0.59340  0.24300  0.80590  1.0000
  C   C50       1.0  0.90660  0.75700  0.30590  1.0000
  C   C51       1.0  0.40660  0.74300  0.69410  1.0000
  C   C52       1.0  0.09340  0.25700  0.19410  1.0000
  C   C53       1.0  0.40660  0.75700  0.19410  1.0000
  C   C54       1.0  0.09340  0.24300  0.69410  1.0000
  C   C55       1.0  0.59340  0.25700  0.30590  1.0000
  C   C56       1.0  0.90660  0.74300  0.80590  1.0000
  H   H17       1.0  0.56260  0.19670  0.76860  1.0000
  H   H18       1.0  0.93740  0.80330  0.26860  1.0000
  H   H19       1.0  0.43740  0.69670  0.73140  1.0000
  H   H20       1.0  0.06260  0.30330  0.23140  1.0000
  H   H21       1.0  0.43740  0.80330  0.23140  1.0000
  H   H22       1.0  0.06260  0.19670  0.73140  1.0000
  H   H23       1.0  0.56260  0.30330  0.26860  1.0000
  H   H24       1.0  0.93740  0.69670  0.76860  1.0000
  C   C57       1.0  0.58750  0.22230  0.88850  1.0000
  C   C58       1.0  0.91250  0.77770  0.38850  1.0000
  C   C59       1.0  0.41250  0.72230  0.61150  1.0000
  C   C60       1.0  0.08750  0.27770  0.11150  1.0000
  C   C61       1.0  0.41250  0.77770  0.11150  1.0000
  C   C62       1.0  0.08750  0.22230  0.61150  1.0000
  C   C63       1.0  0.58750  0.27770  0.38850  1.0000
  C   C64       1.0  0.91250  0.72230  0.88850  1.0000
  C   C65       1.0  0.64720  0.33600  0.78220  1.0000
  C   C66       1.0  0.85280  0.66400  0.28220  1.0000
  C   C67       1.0  0.35280  0.83600  0.71780  1.0000
  C   C68       1.0  0.14720  0.16400  0.21780  1.0000
  C   C69       1.0  0.35280  0.66400  0.21780  1.0000
  C   C70       1.0  0.14720  0.33600  0.71780  1.0000
  C   C71       1.0  0.64720  0.16400  0.28220  1.0000
  C   C72       1.0  0.85280  0.83600  0.78220  1.0000
