data_image0
_chemical_formula_structural       Mn8O32C8H8O8C16H8C24O8C8H8C16
_chemical_formula_sum              "Mn8 O48 C72 H24"
_cell_length_a       14.648
_cell_length_b       12.4006
_cell_length_c       16.6062
_cell_angle_alpha    90
_cell_angle_beta     90
_cell_angle_gamma    90

_space_group_name_H-M_alt    "P 1"
_space_group_IT_number       1

loop_
  _space_group_symop_operation_xyz
  'x, y, z'

loop_
  _atom_site_type_symbol
  _atom_site_label
  _atom_site_symmetry_multiplicity
  _atom_site_fract_x
  _atom_site_fract_y
  _atom_site_fract_z
  _atom_site_occupancy
  Mn  Mn1       1.0  0.60520  0.48195  0.57808  1.0000
  Mn  Mn2       1.0  0.89480  0.51805  0.07808  1.0000
  Mn  Mn3       1.0  0.39480  0.98195  0.92192  1.0000
  Mn  Mn4       1.0  0.10520  0.01805  0.42192  1.0000
  Mn  Mn5       1.0  0.39480  0.51805  0.42192  1.0000
  Mn  Mn6       1.0  0.10520  0.48195  0.92192  1.0000
  Mn  Mn7       1.0  0.60520  0.01805  0.07808  1.0000
  Mn  Mn8       1.0  0.89480  0.98195  0.57808  1.0000
  O   O1        1.0  0.79020  0.51970  0.98340  1.0000
  O   O2        1.0  0.70980  0.48030  0.48340  1.0000
  O   O3        1.0  0.20980  0.01970  0.51660  1.0000
  O   O4        1.0  0.29020  0.98030  0.01660  1.0000
  O   O5        1.0  0.20980  0.48030  0.01660  1.0000
  O   O6        1.0  0.29020  0.51970  0.51660  1.0000
  O   O7        1.0  0.79020  0.98030  0.48340  1.0000
  O   O8        1.0  0.70980  0.01970  0.98340  1.0000
  O   O9        1.0  0.79990  0.37010  0.05080  1.0000
  O   O10       1.0  0.70010  0.62990  0.55080  1.0000
  O   O11       1.0  0.20010  0.87010  0.44920  1.0000
  O   O12       1.0  0.29990  0.12990  0.94920  1.0000
  O   O13       1.0  0.20010  0.62990  0.94920  1.0000
  O   O14       1.0  0.29990  0.37010  0.44920  1.0000
  O   O15       1.0  0.79990  0.12990  0.55080  1.0000
  O   O16       1.0  0.70010  0.87010  0.05080  1.0000
  O   O17       1.0  0.59520  0.34430  0.66550  1.0000
  O   O18       1.0  0.90480  0.65570  0.16550  1.0000
  O   O19       1.0  0.40480  0.84430  0.83450  1.0000
  O   O20       1.0  0.09520  0.15570  0.33450  1.0000
  O   O21       1.0  0.40480  0.65570  0.33450  1.0000
  O   O22       1.0  0.09520  0.34430  0.83450  1.0000
  O   O23       1.0  0.59520  0.15570  0.16550  1.0000
  O   O24       1.0  0.90480  0.84430  0.66550  1.0000
  O   O25       1.0  0.50100  0.08020  0.87380  1.0000
  O   O26       1.0  0.99900  0.91980  0.37380  1.0000
  O   O27       1.0  0.49900  0.58020  0.62620  1.0000
  O   O28       1.0  0.00100  0.41980  0.12620  1.0000
  O   O29       1.0  0.49900  0.91980  0.12620  1.0000
  O   O30       1.0  0.00100  0.08020  0.62620  1.0000
  O   O31       1.0  0.50100  0.41980  0.37380  1.0000
  O   O32       1.0  0.99900  0.58020  0.87380  1.0000
  C   C1        1.0  0.65090  0.28170  0.95950  1.0000
  C   C2        1.0  0.84910  0.71830  0.45950  1.0000
  C   C3        1.0  0.34910  0.78170  0.54050  1.0000
  C   C4        1.0  0.15090  0.21830  0.04050  1.0000
  C   C5        1.0  0.34910  0.71830  0.04050  1.0000
  C   C6        1.0  0.15090  0.28170  0.54050  1.0000
  C   C7        1.0  0.65090  0.21830  0.45950  1.0000
  C   C8        1.0  0.84910  0.78170  0.95950  1.0000
  H   H1        1.0  0.65420  0.25610  0.01210  1.0000
  H   H2        1.0  0.84580  0.74390  0.51210  1.0000
  H   H3        1.0  0.34580  0.75610  0.48790  1.0000
  H   H4        1.0  0.15420  0.24390  0.98790  1.0000
  H   H5        1.0  0.34580  0.74390  0.98790  1.0000
  H   H6        1.0  0.15420  0.25610  0.48790  1.0000
  H   H7        1.0  0.65420  0.24390  0.51210  1.0000
  H   H8        1.0  0.84580  0.75610  0.01210  1.0000
  O   O33       1.0  0.52320  0.11950  0.00250  1.0000
  O   O34       1.0  0.97680  0.88050  0.50250  1.0000
  O   O35       1.0  0.47680  0.61950  0.49750  1.0000
  O   O36       1.0  0.02320  0.38050  0.99750  1.0000
  O   O37       1.0  0.47680  0.88050  0.99750  1.0000
  O   O38       1.0  0.02320  0.11950  0.49750  1.0000
  O   O39       1.0  0.52320  0.38050  0.50250  1.0000
  O   O40       1.0  0.97680  0.61950  0.00250  1.0000
  C   C9        1.0  0.76710  0.42470  0.99490  1.0000
  C   C10       1.0  0.73290  0.57530  0.49490  1.0000
  C   C11       1.0  0.23290  0.92470  0.50510  1.0000
  C   C12       1.0  0.26710  0.07530  0.00510  1.0000
  C   C13       1.0  0.23290  0.57530  0.00510  1.0000
  C   C14       1.0  0.26710  0.42470  0.50510  1.0000
  C   C15       1.0  0.76710  0.07530  0.49490  1.0000
  C   C16       1.0  0.73290  0.92470  0.99490  1.0000
  C   C17       1.0  0.69500  0.41090  0.85930  1.0000
  C   C18       1.0  0.80500  0.58910  0.35930  1.0000
  C   C19       1.0  0.30500  0.91090  0.64070  1.0000
  C   C20       1.0  0.19500  0.08910  0.14070  1.0000
  C   C21       1.0  0.30500  0.58910  0.14070  1.0000
  C   C22       1.0  0.19500  0.41090  0.64070  1.0000
  C   C23       1.0  0.69500  0.08910  0.35930  1.0000
  C   C24       1.0  0.80500  0.91090  0.85930  1.0000
  H   H9        1.0  0.72560  0.47370  0.84500  1.0000
  H   H10       1.0  0.77440  0.52630  0.34500  1.0000
  H   H11       1.0  0.27440  0.97370  0.65500  1.0000
  H   H12       1.0  0.22560  0.02630  0.15500  1.0000
  H   H13       1.0  0.27440  0.52630  0.15500  1.0000
  H   H14       1.0  0.22560  0.47370  0.65500  1.0000
  H   H15       1.0  0.72560  0.02630  0.34500  1.0000
  H   H16       1.0  0.77440  0.97370  0.84500  1.0000
  C   C25       1.0  0.63720  0.39950  0.71730  1.0000
  C   C26       1.0  0.86280  0.60050  0.21730  1.0000
  C   C27       1.0  0.36280  0.89950  0.78270  1.0000
  C   C28       1.0  0.13720  0.10050  0.28270  1.0000
  C   C29       1.0  0.36280  0.60050  0.28270  1.0000
  C   C30       1.0  0.13720  0.39950  0.78270  1.0000
  C   C31       1.0  0.63720  0.10050  0.21730  1.0000
  C   C32       1.0  0.86280  0.89950  0.71730  1.0000
  C   C33       1.0  0.70230  0.37160  0.93730  1.0000
  C   C34       1.0  0.79770  0.62840  0.43730  1.0000
  C   C35       1.0  0.29770  0.87160  0.56270  1.0000
  C   C36       1.0  0.20230  0.12840  0.06270  1.0000
  C   C37       1.0  0.29770  0.62840  0.06270  1.0000
  C   C38       1.0  0.20230  0.37160  0.56270  1.0000
  C   C39       1.0  0.70230  0.12840  0.43730  1.0000
  C   C40       1.0  0.79770  0.87160  0.93730  1.0000
  C   C41       1.0  0.53670  0.13620  0.92900  1.0000
  C   C42       1.0  0.96330  0.86380  0.42900  1.0000
  C   C43       1.0  0.46330  0.63620  0.57100  1.0000
  C   C44       1.0  0.03670  0.36380  0.07100  1.0000
  C   C45       1.0  0.46330  0.86380  0.07100  1.0000
  C   C46       1.0  0.03670  0.13620  0.57100  1.0000
  C   C47       1.0  0.53670  0.36380  0.42900  1.0000
  C   C48       1.0  0.96330  0.63620  0.92900  1.0000
  O   O41       1.0  0.67420  0.48600  0.70070  1.0000
  O   O42       1.0  0.82580  0.51400  0.20070  1.0000
  O   O43       1.0  0.32580  0.98600  0.79930  1.0000
  O   O44       1.0  0.17420  0.01400  0.29930  1.0000
  O   O45       1.0  0.32580  0.51400  0.29930  1.0000
  O   O46       1.0  0.17420  0.48600  0.79930  1.0000
  O   O47       1.0  0.67420  0.01400  0.20070  1.0000
  O   O48       1.0  0.82580  0.98600  0.70070  1.0000
  C   C49       1.0  0.59290  0.26740  0.82520  1.0000
  C   C50       1.0  0.90710  0.73260  0.32520  1.0000
  C   C51       1.0  0.40710  0.76740  0.67480  1.0000
  C   C52       1.0  0.09290  0.23260  0.17480  1.0000
  C   C53       1.0  0.40710  0.73260  0.17480  1.0000
  C   C54       1.0  0.09290  0.26740  0.67480  1.0000
  C   C55       1.0  0.59290  0.23260  0.32520  1.0000
  C   C56       1.0  0.90710  0.76740  0.82520  1.0000
  H   H17       1.0  0.55790  0.23160  0.78690  1.0000
  H   H18       1.0  0.94210  0.76840  0.28690  1.0000
  H   H19       1.0  0.44210  0.73160  0.71310  1.0000
  H   H20       1.0  0.05790  0.26840  0.21310  1.0000
  H   H21       1.0  0.44210  0.76840  0.21310  1.0000
  H   H22       1.0  0.05790  0.23160  0.71310  1.0000
  H   H23       1.0  0.55790  0.26840  0.28690  1.0000
  H   H24       1.0  0.94210  0.73160  0.78690  1.0000
  C   C57       1.0  0.59460  0.22960  0.90390  1.0000
  C   C58       1.0  0.90540  0.77040  0.40390  1.0000
  C   C59       1.0  0.40540  0.72960  0.59610  1.0000
  C   C60       1.0  0.09460  0.27040  0.09610  1.0000
  C   C61       1.0  0.40540  0.77040  0.09610  1.0000
  C   C62       1.0  0.09460  0.22960  0.59610  1.0000
  C   C63       1.0  0.59460  0.27040  0.40390  1.0000
  C   C64       1.0  0.90540  0.72960  0.90390  1.0000
  C   C65       1.0  0.64270  0.35770  0.80300  1.0000
  C   C66       1.0  0.85730  0.64230  0.30300  1.0000
  C   C67       1.0  0.35730  0.85770  0.69700  1.0000
  C   C68       1.0  0.14270  0.14230  0.19700  1.0000
  C   C69       1.0  0.35730  0.64230  0.19700  1.0000
  C   C70       1.0  0.14270  0.35770  0.69700  1.0000
  C   C71       1.0  0.64270  0.14230  0.30300  1.0000
  C   C72       1.0  0.85730  0.85770  0.80300  1.0000
