data_image0
_chemical_formula_structural       Yb2O24N4C4H2C4H2C4H2C8H2C4H2C4H2C4
_chemical_formula_sum              "Yb2 O24 N4 C32 H12"
_cell_length_a       8.6721
_cell_length_b       9.3671
_cell_length_c       13.849
_cell_angle_alpha    84.74
_cell_angle_beta     77.93
_cell_angle_gamma    73.63

_space_group_name_H-M_alt    "P 1"
_space_group_IT_number       1

loop_
  _space_group_symop_operation_xyz
  'x, y, z'

loop_
  _atom_site_type_symbol
  _atom_site_label
  _atom_site_symmetry_multiplicity
  _atom_site_fract_x
  _atom_site_fract_y
  _atom_site_fract_z
  _atom_site_occupancy
  Yb  Yb1       1.0  0.67602  0.55521  0.58500  1.0000
  Yb  Yb2       1.0  0.32398  0.44479  0.41500  1.0000
  O   O1        1.0  0.43720  0.70180  0.68080  1.0000
  O   O2        1.0  0.56280  0.29820  0.31920  1.0000
  O   O3        1.0  0.50780  0.78450  0.53000  1.0000
  O   O4        1.0  0.49220  0.21550  0.47000  1.0000
  O   O5        1.0  0.14710  0.30790  0.45920  1.0000
  O   O6        1.0  0.85290  0.69210  0.54080  1.0000
  O   O7        1.0  0.88920  0.36360  0.53830  1.0000
  O   O8        1.0  0.11080  0.63640  0.46170  1.0000
  O   O9        1.0  0.67070  0.95390  0.70190  1.0000
  O   O10       1.0  0.32930  0.04610  0.29810  1.0000
  O   O11       1.0  0.83290  0.79650  0.78720  1.0000
  O   O12       1.0  0.16710  0.20350  0.21280  1.0000
  O   O13       1.0  0.26740  0.64090  0.13850  1.0000
  O   O14       1.0  0.73260  0.35910  0.86150  1.0000
  O   O15       1.0  0.23570  0.49480  0.27240  1.0000
  O   O16       1.0  0.76430  0.50520  0.72760  1.0000
  O   O17       1.0  0.65170  0.51460  0.43260  1.0000
  O   O18       1.0  0.34830  0.48540  0.56740  1.0000
  O   O19       1.0  0.46250  0.62010  0.34440  1.0000
  O   O20       1.0  0.53750  0.37990  0.65560  1.0000
  O   O21       1.0  0.58510  0.02040  0.09920  1.0000
  O   O22       1.0  0.41490  0.97960  0.90080  1.0000
  O   O23       1.0  0.81650  0.06970  0.08710  1.0000
  O   O24       1.0  0.18350  0.93030  0.91290  1.0000
  N   N1        1.0  0.80900  0.89730  0.72600  1.0000
  N   N2        1.0  0.19100  0.10270  0.27400  1.0000
  N   N3        1.0  0.72430  0.99490  0.11770  1.0000
  N   N4        1.0  0.27570  0.00510  0.88230  1.0000
  C   C1        1.0  0.23830  0.89570  0.61590  1.0000
  C   C2        1.0  0.76170  0.10430  0.38410  1.0000
  C   C3        1.0  0.21420  0.03100  0.56200  1.0000
  C   C4        1.0  0.78580  0.96900  0.43800  1.0000
  H   H1        1.0  0.30250  0.05700  0.52110  1.0000
  H   H2        1.0  0.69750  0.94300  0.47890  1.0000
  C   C5        1.0  0.05660  0.12730  0.56980  1.0000
  C   C6        1.0  0.94340  0.87270  0.43020  1.0000
  C   C7        1.0  0.92380  0.08410  0.62320  1.0000
  C   C8        1.0  0.07620  0.91590  0.37680  1.0000
  H   H3        1.0  0.81810  0.14530  0.62530  1.0000
  H   H4        1.0  0.18190  0.85470  0.37470  1.0000
  C   C9        1.0  0.95070  0.94730  0.67410  1.0000
  C   C10       1.0  0.04930  0.05270  0.32590  1.0000
  C   C11       1.0  0.10380  0.85340  0.67270  1.0000
  C   C12       1.0  0.89620  0.14660  0.32730  1.0000
  H   H5        1.0  0.11820  0.76340  0.70880  1.0000
  H   H6        1.0  0.88180  0.23660  0.29120  1.0000
  C   C13       1.0  0.40470  0.78950  0.60820  1.0000
  C   C14       1.0  0.59530  0.21050  0.39180  1.0000
  C   C15       1.0  0.02850  0.27800  0.51750  1.0000
  C   C16       1.0  0.97150  0.72200  0.48250  1.0000
  C   C17       1.0  0.00100  0.66650  0.22420  1.0000
  C   C18       1.0  0.99900  0.33350  0.77580  1.0000
  C   C19       1.0  0.88780  0.60820  0.28910  1.0000
  C   C20       1.0  0.11220  0.39180  0.71090  1.0000
  H   H7        1.0  0.92460  0.52550  0.32920  1.0000
  H   H8        1.0  0.07540  0.47450  0.67080  1.0000
  C   C21       1.0  0.72180  0.66980  0.29590  1.0000
  C   C22       1.0  0.27820  0.33020  0.70410  1.0000
  C   C23       1.0  0.66550  0.79530  0.23750  1.0000
  C   C24       1.0  0.33450  0.20470  0.76250  1.0000
  H   H9        1.0  0.55430  0.83560  0.23830  1.0000
  H   H10       1.0  0.44570  0.16440  0.76170  1.0000
  C   C25       1.0  0.78240  0.85890  0.17750  1.0000
  C   C26       1.0  0.21760  0.14110  0.82250  1.0000
  C   C27       1.0  0.94510  0.79690  0.16790  1.0000
  C   C28       1.0  0.05490  0.20310  0.83210  1.0000
  H   H11       1.0  0.01900  0.83950  0.12500  1.0000
  H   H12       1.0  0.98100  0.16050  0.87500  1.0000
  C   C29       1.0  0.18340  0.59510  0.21160  1.0000
  C   C30       1.0  0.81660  0.40490  0.78840  1.0000
  C   C31       1.0  0.60180  0.59730  0.36230  1.0000
  C   C32       1.0  0.39820  0.40270  0.63770  1.0000
