data_image0
_chemical_formula_structural       Eu2O24N4C4H2C4H2C4H2C8H2C4H2C4H2C4
_chemical_formula_sum              "Eu2 O24 N4 C32 H12"
_cell_length_a       8.6559
_cell_length_b       9.3993
_cell_length_c       13.812
_cell_angle_alpha    85.16
_cell_angle_beta     78.16
_cell_angle_gamma    74.51

_space_group_name_H-M_alt    "P 1"
_space_group_IT_number       1

loop_
  _space_group_symop_operation_xyz
  'x, y, z'

loop_
  _atom_site_type_symbol
  _atom_site_label
  _atom_site_symmetry_multiplicity
  _atom_site_fract_x
  _atom_site_fract_y
  _atom_site_fract_z
  _atom_site_occupancy
  Eu  Eu1       1.0  0.66484  0.55344  0.58312  1.0000
  Eu  Eu2       1.0  0.33516  0.44656  0.41688  1.0000
  O   O1        1.0  0.54290  0.36360  0.67330  1.0000
  O   O2        1.0  0.45710  0.63640  0.32670  1.0000
  O   O3        1.0  0.36790  0.47890  0.57946  1.0000
  O   O4        1.0  0.63210  0.52110  0.42054  1.0000
  O   O5        1.0  0.77220  0.50410  0.72640  1.0000
  O   O6        1.0  0.22780  0.49590  0.27360  1.0000
  O   O7        1.0  0.72770  0.36600  0.86340  1.0000
  O   O8        1.0  0.27230  0.63400  0.13660  1.0000
  O   O9        1.0  0.16140  0.92830  0.91470  1.0000
  O   O10       1.0  0.83860  0.07170  0.08530  1.0000
  O   O11       1.0  0.39560  0.96870  0.90470  1.0000
  O   O12       1.0  0.60440  0.03130  0.09530  1.0000
  O   O13       1.0  0.88310  0.35710  0.52710  1.0000
  O   O14       1.0  0.11690  0.64290  0.47290  1.0000
  O   O15       1.0  0.14660  0.30960  0.46420  1.0000
  O   O16       1.0  0.85340  0.69040  0.53580  1.0000
  O   O17       1.0  0.49490  0.78970  0.53100  1.0000
  O   O18       1.0  0.50510  0.21030  0.46900  1.0000
  O   O19       1.0  0.42850  0.71300  0.68490  1.0000
  O   O20       1.0  0.57150  0.28700  0.31510  1.0000
  O   O21       1.0  0.82240  0.80640  0.79250  1.0000
  O   O22       1.0  0.17760  0.19360  0.20750  1.0000
  O   O23       1.0  0.66890  0.95490  0.70490  1.0000
  O   O24       1.0  0.33110  0.04510  0.29510  1.0000
  N   N1        1.0  0.25980  0.00040  0.88540  1.0000
  N   N2        1.0  0.74020  0.99960  0.11460  1.0000
  N   N3        1.0  0.80140  0.90190  0.73030  1.0000
  N   N4        1.0  0.19860  0.09810  0.26970  1.0000
  C   C1        1.0  0.27940  0.32170  0.71210  1.0000
  C   C2        1.0  0.72060  0.67830  0.28790  1.0000
  C   C3        1.0  0.11400  0.38870  0.71550  1.0000
  C   C4        1.0  0.88600  0.61130  0.28450  1.0000
  H   H1        1.0  0.08230  0.47230  0.67590  1.0000
  H   H2        1.0  0.91770  0.52770  0.32410  1.0000
  C   C5        1.0  0.99640  0.33060  0.77790  1.0000
  C   C6        1.0  0.00360  0.66940  0.22210  1.0000
  C   C7        1.0  0.04390  0.20140  0.83280  1.0000
  C   C8        1.0  0.95610  0.79860  0.16720  1.0000
  H   H3        1.0  0.96640  0.15960  0.87310  1.0000
  H   H4        1.0  0.03360  0.84040  0.12690  1.0000
  C   C9        1.0  0.20870  0.13600  0.82630  1.0000
  C   C10       1.0  0.79130  0.86400  0.17370  1.0000
  C   C11       1.0  0.32920  0.19480  0.76870  1.0000
  C   C12       1.0  0.67080  0.80520  0.23130  1.0000
  H   H5        1.0  0.43920  0.15080  0.76800  1.0000
  H   H6        1.0  0.56080  0.84920  0.23200  1.0000
  C   C13       1.0  0.40610  0.39060  0.64940  1.0000
  C   C14       1.0  0.59390  0.60940  0.35060  1.0000
  C   C15       1.0  0.81740  0.40650  0.78870  1.0000
  C   C16       1.0  0.18260  0.59350  0.21130  1.0000
  C   C17       1.0  0.05060  0.12850  0.57020  1.0000
  C   C18       1.0  0.94940  0.87150  0.42980  1.0000
  C   C19       1.0  0.20720  0.03480  0.56500  1.0000
  C   C20       1.0  0.79280  0.96520  0.43500  1.0000
  H   H7        1.0  0.29650  0.06160  0.52570  1.0000
  H   H8        1.0  0.70350  0.93840  0.47430  1.0000
  C   C21       1.0  0.22930  0.90080  0.61880  1.0000
  C   C22       1.0  0.77070  0.09920  0.38120  1.0000
  C   C23       1.0  0.09690  0.85940  0.67620  1.0000
  C   C24       1.0  0.90310  0.14060  0.32380  1.0000
  H   H9        1.0  0.11090  0.77210  0.71420  1.0000
  H   H10       1.0  0.88910  0.22790  0.28580  1.0000
  C   C25       1.0  0.94360  0.95100  0.67540  1.0000
  C   C26       1.0  0.05640  0.04900  0.32460  1.0000
  C   C27       1.0  0.91560  0.08540  0.62470  1.0000
  C   C28       1.0  0.08440  0.91460  0.37530  1.0000
  H   H11       1.0  0.81030  0.14510  0.62680  1.0000
  H   H12       1.0  0.18970  0.85490  0.37320  1.0000
  C   C29       1.0  0.02480  0.27720  0.51670  1.0000
  C   C30       1.0  0.97520  0.72280  0.48330  1.0000
  C   C31       1.0  0.39550  0.79660  0.61180  1.0000
  C   C32       1.0  0.60450  0.20340  0.38820  1.0000
