data_image0
_chemical_formula_structural       Ho2O24N4C4H2C4H2C4H2C8H2C4H2C4H2C4
_chemical_formula_sum              "Ho2 O24 N4 C32 H12"
_cell_length_a       8.6712
_cell_length_b       9.3753
_cell_length_c       13.804
_cell_angle_alpha    84.93
_cell_angle_beta     77.99
_cell_angle_gamma    73.92

_space_group_name_H-M_alt    "P 1"
_space_group_IT_number       1

loop_
  _space_group_symop_operation_xyz
  'x, y, z'

loop_
  _atom_site_type_symbol
  _atom_site_label
  _atom_site_symmetry_multiplicity
  _atom_site_fract_x
  _atom_site_fract_y
  _atom_site_fract_z
  _atom_site_occupancy
  Ho  Ho1       1.0  0.67147  0.55463  0.58402  1.0000
  Ho  Ho2       1.0  0.32853  0.44537  0.41598  1.0000
  O   O1        1.0  0.46040  0.62610  0.33720  1.0000
  O   O2        1.0  0.53960  0.37390  0.66280  1.0000
  O   O3        1.0  0.64530  0.51610  0.42730  1.0000
  O   O4        1.0  0.35470  0.48390  0.57270  1.0000
  O   O5        1.0  0.23140  0.49640  0.27310  1.0000
  O   O6        1.0  0.76860  0.50360  0.72690  1.0000
  O   O7        1.0  0.27200  0.63720  0.13780  1.0000
  O   O8        1.0  0.72800  0.36280  0.86220  1.0000
  O   O9        1.0  0.82710  0.06980  0.08660  1.0000
  O   O10       1.0  0.17290  0.93020  0.91340  1.0000
  O   O11       1.0  0.59450  0.02510  0.09780  1.0000
  O   O12       1.0  0.40550  0.97490  0.90220  1.0000
  O   O13       1.0  0.88720  0.36080  0.53320  1.0000
  O   O14       1.0  0.11280  0.63920  0.46680  1.0000
  O   O15       1.0  0.14900  0.30740  0.46070  1.0000
  O   O16       1.0  0.85100  0.69260  0.53930  1.0000
  O   O17       1.0  0.50250  0.78690  0.52980  1.0000
  O   O18       1.0  0.49750  0.21310  0.47020  1.0000
  O   O19       1.0  0.43430  0.70590  0.68260  1.0000
  O   O20       1.0  0.56570  0.29410  0.31740  1.0000
  O   O21       1.0  0.82900  0.79930  0.78930  1.0000
  O   O22       1.0  0.17100  0.20070  0.21070  1.0000
  O   O23       1.0  0.67330  0.95490  0.70470  1.0000
  O   O24       1.0  0.32670  0.04510  0.29530  1.0000
  N   N1        1.0  0.73030  0.99560  0.11600  1.0000
  N   N2        1.0  0.26970  0.00440  0.88400  1.0000
  N   N3        1.0  0.80620  0.89940  0.72820  1.0000
  N   N4        1.0  0.19380  0.10060  0.27180  1.0000
  C   C1        1.0  0.72150  0.67220  0.29280  1.0000
  C   C2        1.0  0.27850  0.32780  0.70720  1.0000
  C   C3        1.0  0.88760  0.60850  0.28710  1.0000
  C   C4        1.0  0.11240  0.39150  0.71290  1.0000
  H   H1        1.0  0.92250  0.52480  0.32650  1.0000
  H   H2        1.0  0.07750  0.47520  0.67350  1.0000
  C   C5        1.0  0.00320  0.66780  0.22320  1.0000
  C   C6        1.0  0.99680  0.33220  0.77680  1.0000
  C   C7        1.0  0.95170  0.79640  0.16790  1.0000
  C   C8        1.0  0.04830  0.20360  0.83210  1.0000
  H   H3        1.0  0.02720  0.83880  0.12620  1.0000
  H   H4        1.0  0.97280  0.16120  0.87380  1.0000
  C   C9        1.0  0.78460  0.86100  0.17600  1.0000
  C   C10       1.0  0.21540  0.13900  0.82400  1.0000
  C   C11       1.0  0.66900  0.79920  0.23590  1.0000
  C   C12       1.0  0.33100  0.20080  0.76410  1.0000
  H   H5        1.0  0.55800  0.84200  0.23800  1.0000
  H   H6        1.0  0.44200  0.15800  0.76200  1.0000
  C   C13       1.0  0.59920  0.60290  0.35750  1.0000
  C   C14       1.0  0.40080  0.39710  0.64250  1.0000
  C   C15       1.0  0.18270  0.59480  0.21180  1.0000
  C   C16       1.0  0.81730  0.40520  0.78820  1.0000
  C   C17       1.0  0.05420  0.12800  0.56940  1.0000
  C   C18       1.0  0.94580  0.87200  0.43060  1.0000
  C   C19       1.0  0.21000  0.03330  0.56340  1.0000
  C   C20       1.0  0.79000  0.96670  0.43660  1.0000
  H   H7        1.0  0.29880  0.06020  0.52370  1.0000
  H   H8        1.0  0.70120  0.93980  0.47630  1.0000
  C   C21       1.0  0.23440  0.89800  0.61650  1.0000
  C   C22       1.0  0.76560  0.10200  0.38350  1.0000
  C   C23       1.0  0.10160  0.85580  0.67330  1.0000
  C   C24       1.0  0.89840  0.14420  0.32670  1.0000
  H   H9        1.0  0.11630  0.76700  0.71040  1.0000
  H   H10       1.0  0.88370  0.23300  0.28960  1.0000
  C   C25       1.0  0.94830  0.94780  0.67380  1.0000
  C   C26       1.0  0.05170  0.05220  0.32620  1.0000
  C   C27       1.0  0.91970  0.08540  0.62360  1.0000
  C   C28       1.0  0.08030  0.91460  0.37640  1.0000
  H   H11       1.0  0.81430  0.14640  0.62630  1.0000
  H   H12       1.0  0.18570  0.85360  0.37370  1.0000
  C   C29       1.0  0.02760  0.27720  0.51720  1.0000
  C   C30       1.0  0.97240  0.72280  0.48280  1.0000
  C   C31       1.0  0.40190  0.79260  0.60980  1.0000
  C   C32       1.0  0.59810  0.20740  0.39020  1.0000
