data_image0
_chemical_formula_structural       Eu3Ag9Co6S6C6H18N6H12C12H6C6H18S6O12C6S6N6H12C6H6C6H18C6H18C12O12N6H12C6H18C12H18C6H6C6O12
_chemical_formula_sum              "Eu3 Ag9 Co6 S18 C90 H162 N18 O36"
_cell_length_a       10.1532
_cell_length_b       10.1532
_cell_length_c       41.538
_cell_angle_alpha    90
_cell_angle_beta     90
_cell_angle_gamma    120

_space_group_name_H-M_alt    "P 1"
_space_group_IT_number       1

loop_
  _space_group_symop_operation_xyz
  'x, y, z'

loop_
  _atom_site_type_symbol
  _atom_site_label
  _atom_site_symmetry_multiplicity
  _atom_site_fract_x
  _atom_site_fract_y
  _atom_site_fract_z
  _atom_site_occupancy
  Eu  Eu1       1.0  0.00000  0.39936  0.33330  1.0000
  Eu  Eu2       1.0  0.60064  0.60064  0.99997  1.0000
  Eu  Eu3       1.0  0.39936  0.00000  0.66663  1.0000
  Ag  Ag1       1.0  0.84658  0.84658  0.50000  1.0000
  Ag  Ag2       1.0  0.15342  0.00000  0.16667  1.0000
  Ag  Ag3       1.0  0.00000  0.15342  0.83333  1.0000
  Ag  Ag4       1.0  0.51098  0.67405  0.50690  1.0000
  Ag  Ag5       1.0  0.32595  0.83693  0.17357  1.0000
  Ag  Ag6       1.0  0.16307  0.48902  0.84024  1.0000
  Ag  Ag7       1.0  0.67405  0.51098  0.49310  1.0000
  Ag  Ag8       1.0  0.83693  0.32595  0.82643  1.0000
  Ag  Ag9       1.0  0.48902  0.16307  0.15976  1.0000
  Co  Co1       1.0  0.63389  0.71558  0.41816  1.0000
  Co  Co2       1.0  0.28442  0.91831  0.08483  1.0000
  Co  Co3       1.0  0.08169  0.36611  0.75149  1.0000
  Co  Co4       1.0  0.71558  0.63389  0.58184  1.0000
  Co  Co5       1.0  0.91831  0.28442  0.91517  1.0000
  Co  Co6       1.0  0.36611  0.08169  0.24851  1.0000
  S   S1        1.0  0.86340  0.82760  0.44329  1.0000
  S   S2        1.0  0.17240  0.03580  0.10996  1.0000
  S   S3        1.0  0.96420  0.13660  0.77662  1.0000
  S   S4        1.0  0.82760  0.86340  0.55671  1.0000
  S   S5        1.0  0.03580  0.17240  0.89004  1.0000
  S   S6        1.0  0.13660  0.96420  0.22338  1.0000
  C   C1        1.0  0.91820  0.12730  0.44630  1.0000
  C   C2        1.0  0.87270  0.79090  0.11297  1.0000
  C   C3        1.0  0.20910  0.08180  0.77963  1.0000
  C   C4        1.0  0.12730  0.91820  0.55370  1.0000
  C   C5        1.0  0.79090  0.87270  0.88703  1.0000
  C   C6        1.0  0.08180  0.20910  0.22037  1.0000
  H   H1        1.0  0.97140  0.22750  0.43710  1.0000
  H   H2        1.0  0.77250  0.74390  0.10377  1.0000
  H   H3        1.0  0.25610  0.02860  0.77043  1.0000
  H   H4        1.0  0.22750  0.97140  0.56290  1.0000
  H   H5        1.0  0.74390  0.77250  0.89623  1.0000
  H   H6        1.0  0.02860  0.25610  0.22957  1.0000
  H   H7        1.0  0.94820  0.13160  0.46830  1.0000
  H   H8        1.0  0.86840  0.81660  0.13497  1.0000
  H   H9        1.0  0.18340  0.05180  0.80163  1.0000
  H   H10       1.0  0.13160  0.94820  0.53170  1.0000
  H   H11       1.0  0.81660  0.86840  0.86503  1.0000
  H   H12       1.0  0.05180  0.18340  0.19837  1.0000
  H   H13       1.0  0.81070  0.08910  0.44520  1.0000
  H   H14       1.0  0.91090  0.72160  0.11187  1.0000
  H   H15       1.0  0.27840  0.18930  0.77853  1.0000
  H   H16       1.0  0.08910  0.81070  0.55480  1.0000
  H   H17       1.0  0.72160  0.91090  0.88813  1.0000
  H   H18       1.0  0.18930  0.27840  0.22147  1.0000
  N   N1        1.0  0.72190  0.91270  0.39440  1.0000
  N   N2        1.0  0.08730  0.80920  0.06107  1.0000
  N   N3        1.0  0.19080  0.27810  0.72773  1.0000
  N   N4        1.0  0.91270  0.72190  0.60560  1.0000
  N   N5        1.0  0.80920  0.08730  0.93893  1.0000
  N   N6        1.0  0.27810  0.19080  0.27227  1.0000
  H   H19       1.0  0.68640  0.89330  0.37400  1.0000
  H   H20       1.0  0.10670  0.79310  0.04067  1.0000
  H   H21       1.0  0.20690  0.31360  0.70733  1.0000
  H   H22       1.0  0.89330  0.68640  0.62600  1.0000
  H   H23       1.0  0.79310  0.10670  0.95933  1.0000
  H   H24       1.0  0.31360  0.20690  0.29267  1.0000
  H   H25       1.0  0.68780  0.97030  0.40360  1.0000
  H   H26       1.0  0.02970  0.71750  0.07027  1.0000
  H   H27       1.0  0.28250  0.31220  0.73693  1.0000
  H   H28       1.0  0.97030  0.68780  0.59640  1.0000
  H   H29       1.0  0.71750  0.02970  0.92973  1.0000
  H   H30       1.0  0.31220  0.28250  0.26307  1.0000
  C   C7        1.0  0.93990  0.15300  0.37540  1.0000
  C   C8        1.0  0.84700  0.78690  0.04207  1.0000
  C   C9        1.0  0.21310  0.06010  0.70873  1.0000
  C   C10       1.0  0.15300  0.93990  0.62460  1.0000
  C   C11       1.0  0.78690  0.84700  0.95793  1.0000
  C   C12       1.0  0.06010  0.21310  0.29127  1.0000
  C   C13       1.0  0.89050  0.00230  0.39320  1.0000
  C   C14       1.0  0.99770  0.88820  0.05987  1.0000
  C   C15       1.0  0.11180  0.10950  0.72653  1.0000
  C   C16       1.0  0.00230  0.89050  0.60680  1.0000
  C   C17       1.0  0.88820  0.99770  0.94013  1.0000
  C   C18       1.0  0.10950  0.11180  0.27347  1.0000
  H   H31       1.0  0.92680  0.94430  0.38090  1.0000
  H   H32       1.0  0.05570  0.98250  0.04757  1.0000
  H   H33       1.0  0.01750  0.07320  0.71423  1.0000
  H   H34       1.0  0.94430  0.92680  0.61910  1.0000
  H   H35       1.0  0.98250  0.05570  0.95243  1.0000
  H   H36       1.0  0.07320  0.01750  0.28577  1.0000
  C   C19       1.0  0.12350  0.08550  0.42660  1.0000
  C   C20       1.0  0.91450  0.03800  0.09327  1.0000
  C   C21       1.0  0.96200  0.87650  0.75993  1.0000
  C   C22       1.0  0.08550  0.12350  0.57340  1.0000
  C   C23       1.0  0.03800  0.91450  0.90673  1.0000
  C   C24       1.0  0.87650  0.96200  0.24007  1.0000
  H   H37       1.0  0.17340  0.18800  0.41870  1.0000
  H   H38       1.0  0.81200  0.98540  0.08537  1.0000
  H   H39       1.0  0.01460  0.82660  0.75203  1.0000
  H   H40       1.0  0.18800  0.17340  0.58130  1.0000
  H   H41       1.0  0.98540  0.81200  0.91463  1.0000
  H   H42       1.0  0.82660  0.01460  0.24797  1.0000
  H   H43       1.0  0.14430  0.02320  0.41250  1.0000
  H   H44       1.0  0.97680  0.12110  0.07917  1.0000
  H   H45       1.0  0.87890  0.85570  0.74583  1.0000
  H   H46       1.0  0.02320  0.14430  0.58750  1.0000
  H   H47       1.0  0.12110  0.97680  0.92083  1.0000
  H   H48       1.0  0.85570  0.87890  0.25417  1.0000
  H   H49       1.0  0.16060  0.08410  0.44780  1.0000
  H   H50       1.0  0.91590  0.07650  0.11447  1.0000
  H   H51       1.0  0.92350  0.83940  0.78113  1.0000
  H   H52       1.0  0.08410  0.16060  0.55220  1.0000
  H   H53       1.0  0.07650  0.91590  0.88553  1.0000
  H   H54       1.0  0.83940  0.92350  0.21887  1.0000
  S   S7        1.0  0.55170  0.48680  0.44280  1.0000
  S   S8        1.0  0.51320  0.06490  0.10947  1.0000
  S   S9        1.0  0.93510  0.44830  0.77613  1.0000
  S   S10       1.0  0.48680  0.55170  0.55720  1.0000
  S   S11       1.0  0.06490  0.51320  0.89053  1.0000
  S   S12       1.0  0.44830  0.93510  0.22387  1.0000
  O   O1        1.0  0.84690  0.19620  0.37190  1.0000
  O   O2        1.0  0.80380  0.65070  0.03857  1.0000
  O   O3        1.0  0.34930  0.15310  0.70523  1.0000
  O   O4        1.0  0.19620  0.84690  0.62810  1.0000
  O   O5        1.0  0.65070  0.80380  0.96143  1.0000
  O   O6        1.0  0.15310  0.34930  0.29477  1.0000
  O   O7        1.0  0.07520  0.22650  0.36470  1.0000
  O   O8        1.0  0.77350  0.84870  0.03137  1.0000
  O   O9        1.0  0.15130  0.92480  0.69803  1.0000
  O   O10       1.0  0.22650  0.07520  0.63530  1.0000
  O   O11       1.0  0.84870  0.77350  0.96863  1.0000
  O   O12       1.0  0.92480  0.15130  0.30197  1.0000
  C   C25       1.0  0.95580  0.02510  0.42800  1.0000
  C   C26       1.0  0.97490  0.93070  0.09467  1.0000
  C   C27       1.0  0.06930  0.04420  0.76133  1.0000
  C   C28       1.0  0.02510  0.95580  0.57200  1.0000
  C   C29       1.0  0.93070  0.97490  0.90533  1.0000
  C   C30       1.0  0.04420  0.06930  0.23867  1.0000
  S   S13       1.0  0.53230  0.79640  0.45680  1.0000
  S   S14       1.0  0.20360  0.73590  0.12347  1.0000
  S   S15       1.0  0.26410  0.46770  0.79013  1.0000
  S   S16       1.0  0.79640  0.53230  0.54320  1.0000
  S   S17       1.0  0.73590  0.20360  0.87653  1.0000
  S   S18       1.0  0.46770  0.26410  0.20987  1.0000
  N   N7        1.0  0.70520  0.62830  0.38320  1.0000
  N   N8        1.0  0.37170  0.07690  0.04987  1.0000
  N   N9        1.0  0.92310  0.29480  0.71653  1.0000
  N   N10       1.0  0.62830  0.70520  0.61680  1.0000
  N   N11       1.0  0.07690  0.37170  0.95013  1.0000
  N   N12       1.0  0.29480  0.92310  0.28347  1.0000
  H   H55       1.0  0.69070  0.66040  0.36410  1.0000
  H   H56       1.0  0.33960  0.03030  0.03077  1.0000
  H   H57       1.0  0.96970  0.30930  0.69743  1.0000
  H   H58       1.0  0.66040  0.69070  0.63590  1.0000
  H   H59       1.0  0.03030  0.33960  0.96923  1.0000
  H   H60       1.0  0.30930  0.96970  0.30257  1.0000
  H   H61       1.0  0.80590  0.66580  0.38560  1.0000
  H   H62       1.0  0.33420  0.14010  0.05227  1.0000
  H   H63       1.0  0.85990  0.19410  0.71893  1.0000
  H   H64       1.0  0.66580  0.80590  0.61440  1.0000
  H   H65       1.0  0.14010  0.33420  0.94773  1.0000
  H   H66       1.0  0.19410  0.85990  0.28107  1.0000
  C   C31       1.0  0.62810  0.45790  0.38260  1.0000
  C   C32       1.0  0.54210  0.17020  0.04927  1.0000
  C   C33       1.0  0.82980  0.37190  0.71593  1.0000
  C   C34       1.0  0.45790  0.62810  0.61740  1.0000
  C   C35       1.0  0.17020  0.54210  0.95073  1.0000
  C   C36       1.0  0.37190  0.82980  0.28407  1.0000
  H   H67       1.0  0.52050  0.41890  0.37760  1.0000
  H   H68       1.0  0.58110  0.10160  0.04427  1.0000
  H   H69       1.0  0.89840  0.47950  0.71093  1.0000
  H   H70       1.0  0.41890  0.52050  0.62240  1.0000
  H   H71       1.0  0.10160  0.58110  0.95573  1.0000
  H   H72       1.0  0.47950  0.89840  0.28907  1.0000
  C   C37       1.0  0.53440  0.22870  0.41830  1.0000
  C   C38       1.0  0.77130  0.30570  0.08497  1.0000
  C   C39       1.0  0.69430  0.46560  0.75163  1.0000
  C   C40       1.0  0.22870  0.53440  0.58170  1.0000
  C   C41       1.0  0.30570  0.77130  0.91503  1.0000
  C   C42       1.0  0.46560  0.69430  0.24837  1.0000
  H   H73       1.0  0.57510  0.18070  0.40490  1.0000
  H   H74       1.0  0.81930  0.39440  0.07157  1.0000
  H   H75       1.0  0.60560  0.42490  0.73823  1.0000
  H   H76       1.0  0.18070  0.57510  0.59510  1.0000
  H   H77       1.0  0.39440  0.81930  0.92843  1.0000
  H   H78       1.0  0.42490  0.60560  0.26177  1.0000
  H   H79       1.0  0.43380  0.20070  0.41120  1.0000
  H   H80       1.0  0.79930  0.23310  0.07787  1.0000
  H   H81       1.0  0.76690  0.56620  0.74453  1.0000
  H   H82       1.0  0.20070  0.43380  0.58880  1.0000
  H   H83       1.0  0.23310  0.79930  0.92213  1.0000
  H   H84       1.0  0.56620  0.76690  0.25547  1.0000
  H   H85       1.0  0.53020  0.19620  0.44020  1.0000
  H   H86       1.0  0.80380  0.33400  0.10687  1.0000
  H   H87       1.0  0.66600  0.46980  0.77353  1.0000
  H   H88       1.0  0.19620  0.53020  0.55980  1.0000
  H   H89       1.0  0.33400  0.80380  0.89313  1.0000
  H   H90       1.0  0.46980  0.66600  0.22647  1.0000
  C   C43       1.0  0.79890  0.44680  0.42570  1.0000
  C   C44       1.0  0.55320  0.35210  0.09237  1.0000
  C   C45       1.0  0.64790  0.20110  0.75903  1.0000
  C   C46       1.0  0.44680  0.79890  0.57430  1.0000
  C   C47       1.0  0.35210  0.55320  0.90763  1.0000
  C   C48       1.0  0.20110  0.64790  0.24097  1.0000
  H   H91       1.0  0.83700  0.40000  0.41120  1.0000
  H   H92       1.0  0.60000  0.43700  0.07787  1.0000
  H   H93       1.0  0.56300  0.16300  0.74453  1.0000
  H   H94       1.0  0.40000  0.83700  0.58880  1.0000
  H   H95       1.0  0.43700  0.60000  0.92213  1.0000
  H   H96       1.0  0.16300  0.56300  0.25547  1.0000
  H   H97       1.0  0.80000  0.41370  0.44730  1.0000
  H   H98       1.0  0.58630  0.38630  0.11397  1.0000
  H   H99       1.0  0.61370  0.20000  0.78063  1.0000
  H   H100      1.0  0.41370  0.80000  0.55270  1.0000
  H   H101      1.0  0.38630  0.58630  0.88603  1.0000
  H   H102      1.0  0.20000  0.61370  0.21937  1.0000
  H   H103      1.0  0.86190  0.55530  0.42450  1.0000
  H   H104      1.0  0.44470  0.30660  0.09117  1.0000
  H   H105      1.0  0.69340  0.13810  0.75783  1.0000
  H   H106      1.0  0.55530  0.86190  0.57550  1.0000
  H   H107      1.0  0.30660  0.44470  0.90883  1.0000
  H   H108      1.0  0.13810  0.69340  0.24217  1.0000
  C   C49       1.0  0.63630  0.40130  0.41630  1.0000
  C   C50       1.0  0.59870  0.23500  0.08297  1.0000
  C   C51       1.0  0.76500  0.36370  0.74963  1.0000
  C   C52       1.0  0.40130  0.63630  0.58370  1.0000
  C   C53       1.0  0.23500  0.59870  0.91703  1.0000
  C   C54       1.0  0.36370  0.76500  0.25037  1.0000
  C   C55       1.0  0.69320  0.40230  0.35670  1.0000
  C   C56       1.0  0.59770  0.29090  0.02337  1.0000
  C   C57       1.0  0.70910  0.30680  0.69003  1.0000
  C   C58       1.0  0.40230  0.69320  0.64330  1.0000
  C   C59       1.0  0.29090  0.59770  0.97663  1.0000
  C   C60       1.0  0.30680  0.70910  0.30997  1.0000
  O   O13       1.0  0.83040  0.47170  0.35300  1.0000
  O   O14       1.0  0.52830  0.35870  0.01967  1.0000
  O   O15       1.0  0.64130  0.16960  0.68633  1.0000
  O   O16       1.0  0.47170  0.83040  0.64700  1.0000
  O   O17       1.0  0.35870  0.52830  0.98033  1.0000
  O   O18       1.0  0.16960  0.64130  0.31367  1.0000
  O   O19       1.0  0.59890  0.27950  0.34250  1.0000
  O   O20       1.0  0.72050  0.31940  0.00917  1.0000
  O   O21       1.0  0.68060  0.40110  0.67583  1.0000
  O   O22       1.0  0.27950  0.59890  0.65750  1.0000
  O   O23       1.0  0.31940  0.72050  0.99083  1.0000
  O   O24       1.0  0.40110  0.68060  0.32417  1.0000
  N   N13       1.0  0.42880  0.64180  0.39590  1.0000
  N   N14       1.0  0.35820  0.78700  0.06257  1.0000
  N   N15       1.0  0.21300  0.57120  0.72923  1.0000
  N   N16       1.0  0.64180  0.42880  0.60410  1.0000
  N   N17       1.0  0.78700  0.35820  0.93743  1.0000
  N   N18       1.0  0.57120  0.21300  0.27077  1.0000
  H   H109      1.0  0.44370  0.65020  0.37450  1.0000
  H   H110      1.0  0.34980  0.79350  0.04117  1.0000
  H   H111      1.0  0.20650  0.55630  0.70783  1.0000
  H   H112      1.0  0.65020  0.44370  0.62550  1.0000
  H   H113      1.0  0.79350  0.34980  0.95883  1.0000
  H   H114      1.0  0.55630  0.20650  0.29217  1.0000
  H   H115      1.0  0.36780  0.54260  0.40050  1.0000
  H   H116      1.0  0.45740  0.82520  0.06717  1.0000
  H   H117      1.0  0.17480  0.63220  0.73383  1.0000
  H   H118      1.0  0.54260  0.36780  0.59950  1.0000
  H   H119      1.0  0.82520  0.45740  0.93283  1.0000
  H   H120      1.0  0.63220  0.17480  0.26617  1.0000
  C   C61       1.0  0.22550  0.55100  0.45560  1.0000
  C   C62       1.0  0.44900  0.67450  0.12227  1.0000
  C   C63       1.0  0.32550  0.77450  0.78893  1.0000
  C   C64       1.0  0.55100  0.22550  0.54440  1.0000
  C   C65       1.0  0.67450  0.44900  0.87773  1.0000
  C   C66       1.0  0.77450  0.32550  0.21107  1.0000
  H   H121      1.0  0.12390  0.51310  0.44770  1.0000
  H   H122      1.0  0.48690  0.61080  0.11437  1.0000
  H   H123      1.0  0.38920  0.87610  0.78103  1.0000
  H   H124      1.0  0.51310  0.12390  0.55230  1.0000
  H   H125      1.0  0.61080  0.48690  0.88563  1.0000
  H   H126      1.0  0.87610  0.38920  0.21897  1.0000
  H   H127      1.0  0.22520  0.55310  0.47870  1.0000
  H   H128      1.0  0.44690  0.67210  0.14537  1.0000
  H   H129      1.0  0.32790  0.77480  0.81203  1.0000
  H   H130      1.0  0.55310  0.22520  0.52130  1.0000
  H   H131      1.0  0.67210  0.44690  0.85463  1.0000
  H   H132      1.0  0.77480  0.32790  0.18797  1.0000
  H   H133      1.0  0.26270  0.48570  0.44840  1.0000
  H   H134      1.0  0.51430  0.77700  0.11507  1.0000
  H   H135      1.0  0.22300  0.73730  0.78173  1.0000
  H   H136      1.0  0.48570  0.26270  0.55160  1.0000
  H   H137      1.0  0.77700  0.51430  0.88493  1.0000
  H   H138      1.0  0.73730  0.22300  0.21827  1.0000
  C   C67       1.0  0.32890  0.71230  0.44270  1.0000
  C   C68       1.0  0.28770  0.61660  0.10937  1.0000
  C   C69       1.0  0.38340  0.67110  0.77603  1.0000
  C   C70       1.0  0.71230  0.32890  0.55730  1.0000
  C   C71       1.0  0.61660  0.28770  0.89063  1.0000
  C   C72       1.0  0.67110  0.38340  0.22397  1.0000
  C   C73       1.0  0.27070  0.81940  0.45540  1.0000
  C   C74       1.0  0.18060  0.45130  0.12207  1.0000
  C   C75       1.0  0.54870  0.72930  0.78873  1.0000
  C   C76       1.0  0.81940  0.27070  0.54460  1.0000
  C   C77       1.0  0.45130  0.18060  0.87793  1.0000
  C   C78       1.0  0.72930  0.54870  0.21127  1.0000
  H   H139      1.0  0.16690  0.78010  0.44900  1.0000
  H   H140      1.0  0.21990  0.38680  0.11567  1.0000
  H   H141      1.0  0.61320  0.83310  0.78233  1.0000
  H   H142      1.0  0.78010  0.16690  0.55100  1.0000
  H   H143      1.0  0.38680  0.21990  0.88433  1.0000
  H   H144      1.0  0.83310  0.61320  0.21767  1.0000
  H   H145      1.0  0.33230  0.91950  0.44670  1.0000
  H   H146      1.0  0.08050  0.41280  0.11337  1.0000
  H   H147      1.0  0.58720  0.66770  0.78003  1.0000
  H   H148      1.0  0.91950  0.33230  0.55330  1.0000
  H   H149      1.0  0.41280  0.08050  0.88663  1.0000
  H   H150      1.0  0.66770  0.58720  0.21997  1.0000
  H   H151      1.0  0.27720  0.82430  0.47850  1.0000
  H   H152      1.0  0.17570  0.45290  0.14517  1.0000
  H   H153      1.0  0.54710  0.72280  0.81183  1.0000
  H   H154      1.0  0.82430  0.27720  0.52150  1.0000
  H   H155      1.0  0.45290  0.17570  0.85483  1.0000
  H   H156      1.0  0.72280  0.54710  0.18817  1.0000
  C   C79       1.0  0.34960  0.72580  0.40540  1.0000
  C   C80       1.0  0.27420  0.62380  0.07207  1.0000
  C   C81       1.0  0.37620  0.65040  0.73873  1.0000
  C   C82       1.0  0.72580  0.34960  0.59460  1.0000
  C   C83       1.0  0.62380  0.27420  0.92793  1.0000
  C   C84       1.0  0.65040  0.37620  0.26127  1.0000
  H   H157      1.0  0.41490  0.83340  0.39990  1.0000
  H   H158      1.0  0.16660  0.58150  0.06657  1.0000
  H   H159      1.0  0.41850  0.58510  0.73323  1.0000
  H   H160      1.0  0.83340  0.41490  0.60010  1.0000
  H   H161      1.0  0.58150  0.16660  0.93343  1.0000
  H   H162      1.0  0.58510  0.41850  0.26677  1.0000
  C   C85       1.0  0.19290  0.66460  0.38770  1.0000
  C   C86       1.0  0.33540  0.52830  0.05437  1.0000
  C   C87       1.0  0.47170  0.80710  0.72103  1.0000
  C   C88       1.0  0.66460  0.19290  0.61230  1.0000
  C   C89       1.0  0.52830  0.33540  0.94563  1.0000
  C   C90       1.0  0.80710  0.47170  0.27897  1.0000
  O   O25       1.0  0.13360  0.53000  0.37970  1.0000
  O   O26       1.0  0.47000  0.60360  0.04637  1.0000
  O   O27       1.0  0.39640  0.86640  0.71303  1.0000
  O   O28       1.0  0.53000  0.13360  0.62030  1.0000
  O   O29       1.0  0.60360  0.47000  0.95363  1.0000
  O   O30       1.0  0.86640  0.39640  0.28697  1.0000
  O   O31       1.0  0.14910  0.75690  0.38550  1.0000
  O   O32       1.0  0.24310  0.39220  0.05217  1.0000
  O   O33       1.0  0.60780  0.85090  0.71883  1.0000
  O   O34       1.0  0.75690  0.14910  0.61450  1.0000
  O   O35       1.0  0.39220  0.24310  0.94783  1.0000
  O   O36       1.0  0.85090  0.60780  0.28117  1.0000
