data_image0
_chemical_formula_structural       Yb4O32C4H4C4H4C8H8
_chemical_formula_sum              "Yb4 O32 C16 H16"
_cell_length_a       6.6291
_cell_length_b       18.2549
_cell_length_c       8.3983
_cell_angle_alpha    90
_cell_angle_beta     90
_cell_angle_gamma    90

_space_group_name_H-M_alt    "P 1"
_space_group_IT_number       1

loop_
  _space_group_symop_operation_xyz
  'x, y, z'

loop_
  _atom_site_type_symbol
  _atom_site_label
  _atom_site_symmetry_multiplicity
  _atom_site_fract_x
  _atom_site_fract_y
  _atom_site_fract_z
  _atom_site_occupancy
  Yb  Yb1       1.0  0.50000  0.14278  0.75000  1.0000
  Yb  Yb2       1.0  0.50000  0.85722  0.25000  1.0000
  Yb  Yb3       1.0  0.00000  0.64278  0.75000  1.0000
  Yb  Yb4       1.0  0.00000  0.35722  0.25000  1.0000
  O   O1        1.0  0.16540  0.09500  0.72990  1.0000
  O   O2        1.0  0.83460  0.90500  0.22990  1.0000
  O   O3        1.0  0.83460  0.09500  0.77010  1.0000
  O   O4        1.0  0.16540  0.90500  0.27010  1.0000
  O   O5        1.0  0.66540  0.59500  0.72990  1.0000
  O   O6        1.0  0.33460  0.40500  0.22990  1.0000
  O   O7        1.0  0.33460  0.59500  0.77010  1.0000
  O   O8        1.0  0.66540  0.40500  0.27010  1.0000
  O   O9        1.0  0.51160  0.05023  0.57050  1.0000
  O   O10       1.0  0.48840  0.94977  0.07050  1.0000
  O   O11       1.0  0.48840  0.05023  0.92950  1.0000
  O   O12       1.0  0.51160  0.94977  0.42950  1.0000
  O   O13       1.0  0.01160  0.55023  0.57050  1.0000
  O   O14       1.0  0.98840  0.44977  0.07050  1.0000
  O   O15       1.0  0.98840  0.55023  0.92950  1.0000
  O   O16       1.0  0.01160  0.44977  0.42950  1.0000
  O   O17       1.0  0.32650  0.18371  0.98070  1.0000
  O   O18       1.0  0.67350  0.81629  0.48070  1.0000
  O   O19       1.0  0.67350  0.18371  0.51930  1.0000
  O   O20       1.0  0.32650  0.81629  0.01930  1.0000
  O   O21       1.0  0.82650  0.68371  0.98070  1.0000
  O   O22       1.0  0.17350  0.31629  0.48070  1.0000
  O   O23       1.0  0.17350  0.68371  0.51930  1.0000
  O   O24       1.0  0.82650  0.31629  0.01930  1.0000
  O   O25       1.0  0.17910  0.25869  0.15230  1.0000
  O   O26       1.0  0.82090  0.74131  0.65230  1.0000
  O   O27       1.0  0.82090  0.25869  0.34770  1.0000
  O   O28       1.0  0.17910  0.74131  0.84770  1.0000
  O   O29       1.0  0.67910  0.75869  0.15230  1.0000
  O   O30       1.0  0.32090  0.24131  0.65230  1.0000
  O   O31       1.0  0.32090  0.75869  0.34770  1.0000
  O   O32       1.0  0.67910  0.24131  0.84770  1.0000
  C   C1        1.0  0.00000  0.12640  0.75000  1.0000
  C   C2        1.0  0.00000  0.87360  0.25000  1.0000
  C   C3        1.0  0.50000  0.62640  0.75000  1.0000
  C   C4        1.0  0.50000  0.37360  0.25000  1.0000
  H   H1        1.0  0.00000  0.17730  0.75000  1.0000
  H   H2        1.0  0.00000  0.82270  0.25000  1.0000
  H   H3        1.0  0.50000  0.67730  0.75000  1.0000
  H   H4        1.0  0.50000  0.32270  0.25000  1.0000
  C   C5        1.0  0.42420  0.00000  0.50000  1.0000
  C   C6        1.0  0.57580  0.00000  0.00000  1.0000
  C   C7        1.0  0.92420  0.50000  0.50000  1.0000
  C   C8        1.0  0.07580  0.50000  0.00000  1.0000
  H   H5        1.0  0.28390  0.00000  0.50000  1.0000
  H   H6        1.0  0.71610  0.00000  0.00000  1.0000
  H   H7        1.0  0.78390  0.50000  0.50000  1.0000
  H   H8        1.0  0.21610  0.50000  0.00000  1.0000
  C   C9        1.0  0.26290  0.24410  0.02380  1.0000
  C   C10       1.0  0.73710  0.75590  0.52380  1.0000
  C   C11       1.0  0.73710  0.24410  0.47620  1.0000
  C   C12       1.0  0.26290  0.75590  0.97620  1.0000
  C   C13       1.0  0.76290  0.74410  0.02380  1.0000
  C   C14       1.0  0.23710  0.25590  0.52380  1.0000
  C   C15       1.0  0.23710  0.74410  0.47620  1.0000
  C   C16       1.0  0.76290  0.25590  0.97620  1.0000
  H   H9        1.0  0.27940  0.28270  0.95270  1.0000
  H   H10       1.0  0.72060  0.71730  0.45270  1.0000
  H   H11       1.0  0.72060  0.28270  0.54730  1.0000
  H   H12       1.0  0.27940  0.71730  0.04730  1.0000
  H   H13       1.0  0.77940  0.78270  0.95270  1.0000
  H   H14       1.0  0.22060  0.21730  0.45270  1.0000
  H   H15       1.0  0.22060  0.78270  0.54730  1.0000
  H   H16       1.0  0.77940  0.21730  0.04730  1.0000
