data_image0
_chemical_formula_structural       Y4O32C4H4C4H4C8H8
_chemical_formula_sum              "Y4 O32 C16 H16"
_cell_length_a       6.6754
_cell_length_b       18.3943
_cell_length_c       8.4571
_cell_angle_alpha    90
_cell_angle_beta     90
_cell_angle_gamma    90

_space_group_name_H-M_alt    "P 1"
_space_group_IT_number       1

loop_
  _space_group_symop_operation_xyz
  'x, y, z'

loop_
  _atom_site_type_symbol
  _atom_site_label
  _atom_site_symmetry_multiplicity
  _atom_site_fract_x
  _atom_site_fract_y
  _atom_site_fract_z
  _atom_site_occupancy
  Y   Y1        1.0  0.50000  0.14261  0.75000  1.0000
  Y   Y2        1.0  0.50000  0.85740  0.25000  1.0000
  Y   Y3        1.0  0.00000  0.64260  0.75000  1.0000
  Y   Y4        1.0  0.00000  0.35739  0.25000  1.0000
  O   O1        1.0  0.16410  0.09438  0.76950  1.0000
  O   O2        1.0  0.83590  0.90562  0.26950  1.0000
  O   O3        1.0  0.16410  0.90562  0.23050  1.0000
  O   O4        1.0  0.83590  0.09438  0.73050  1.0000
  O   O5        1.0  0.66410  0.59438  0.76950  1.0000
  O   O6        1.0  0.33590  0.40562  0.26950  1.0000
  O   O7        1.0  0.66410  0.40562  0.23050  1.0000
  O   O8        1.0  0.33590  0.59438  0.73050  1.0000
  O   O9        1.0  0.49000  0.05021  0.56980  1.0000
  O   O10       1.0  0.51000  0.94979  0.06980  1.0000
  O   O11       1.0  0.49000  0.94979  0.43020  1.0000
  O   O12       1.0  0.51000  0.05021  0.93020  1.0000
  O   O13       1.0  0.99000  0.55021  0.56980  1.0000
  O   O14       1.0  0.01000  0.44979  0.06980  1.0000
  O   O15       1.0  0.99000  0.44979  0.43020  1.0000
  O   O16       1.0  0.01000  0.55021  0.93020  1.0000
  O   O17       1.0  0.17550  0.31651  0.01870  1.0000
  O   O18       1.0  0.82450  0.68349  0.51870  1.0000
  O   O19       1.0  0.17550  0.68349  0.98130  1.0000
  O   O20       1.0  0.82450  0.31651  0.48130  1.0000
  O   O21       1.0  0.67550  0.81651  0.01870  1.0000
  O   O22       1.0  0.32450  0.18349  0.51870  1.0000
  O   O23       1.0  0.67550  0.18349  0.98130  1.0000
  O   O24       1.0  0.32450  0.81651  0.48130  1.0000
  O   O25       1.0  0.32020  0.24192  0.84800  1.0000
  O   O26       1.0  0.67980  0.75808  0.34800  1.0000
  O   O27       1.0  0.32020  0.75808  0.15200  1.0000
  O   O28       1.0  0.67980  0.24192  0.65200  1.0000
  O   O29       1.0  0.82020  0.74192  0.84800  1.0000
  O   O30       1.0  0.17980  0.25808  0.34800  1.0000
  O   O31       1.0  0.82020  0.25808  0.15200  1.0000
  O   O32       1.0  0.17980  0.74192  0.65200  1.0000
  C   C1        1.0  0.00000  0.12540  0.75000  1.0000
  C   C2        1.0  0.00000  0.87460  0.25000  1.0000
  C   C3        1.0  0.50000  0.62540  0.75000  1.0000
  C   C4        1.0  0.50000  0.37460  0.25000  1.0000
  H   H1        1.0  0.00000  0.17600  0.75000  1.0000
  H   H2        1.0  0.00000  0.82400  0.25000  1.0000
  H   H3        1.0  0.50000  0.67600  0.75000  1.0000
  H   H4        1.0  0.50000  0.32400  0.25000  1.0000
  C   C5        1.0  0.57490  0.00000  0.50000  1.0000
  C   C6        1.0  0.42510  0.00000  0.00000  1.0000
  C   C7        1.0  0.07490  0.50000  0.50000  1.0000
  C   C8        1.0  0.92510  0.50000  0.00000  1.0000
  H   H5        1.0  0.71420  0.00000  0.50000  1.0000
  H   H6        1.0  0.28580  0.00000  0.00000  1.0000
  H   H7        1.0  0.21420  0.50000  0.50000  1.0000
  H   H8        1.0  0.78580  0.50000  0.00000  1.0000
  C   C9        1.0  0.23670  0.25630  0.97540  1.0000
  C   C10       1.0  0.76330  0.74370  0.47540  1.0000
  C   C11       1.0  0.23670  0.74370  0.02460  1.0000
  C   C12       1.0  0.76330  0.25630  0.52460  1.0000
  C   C13       1.0  0.73670  0.75630  0.97540  1.0000
  C   C14       1.0  0.26330  0.24370  0.47540  1.0000
  C   C15       1.0  0.73670  0.24370  0.02460  1.0000
  C   C16       1.0  0.26330  0.75630  0.52460  1.0000
  H   H9        1.0  0.21850  0.21780  0.04530  1.0000
  H   H10       1.0  0.78150  0.78220  0.54530  1.0000
  H   H11       1.0  0.21850  0.78220  0.95470  1.0000
  H   H12       1.0  0.78150  0.21780  0.45470  1.0000
  H   H13       1.0  0.71850  0.71780  0.04530  1.0000
  H   H14       1.0  0.28150  0.28220  0.54530  1.0000
  H   H15       1.0  0.71850  0.28220  0.95470  1.0000
  H   H16       1.0  0.28150  0.71780  0.45470  1.0000
