data_image0
_chemical_formula_structural       Cu4Na4O32C8H4C4H4C12H4C4H4C4H4C4H4C20H4C4H4C12H4C4H4C4H4C4H4C12
_chemical_formula_sum              "Cu4 Na4 O32 C96 H48"
_cell_length_a       10.6642
_cell_length_b       10.6642
_cell_length_c       23.998
_cell_angle_alpha    90
_cell_angle_beta     90
_cell_angle_gamma    90

_space_group_name_H-M_alt    "P 1"
_space_group_IT_number       1

loop_
  _space_group_symop_operation_xyz
  'x, y, z'

loop_
  _atom_site_type_symbol
  _atom_site_label
  _atom_site_symmetry_multiplicity
  _atom_site_fract_x
  _atom_site_fract_y
  _atom_site_fract_z
  _atom_site_occupancy
  Cu  Cu1       1.0  0.64842  0.60909  0.14864  1.0000
  Cu  Cu2       1.0  0.35158  0.39091  0.64864  1.0000
  Cu  Cu3       1.0  0.39091  0.64842  0.39864  1.0000
  Cu  Cu4       1.0  0.60909  0.35158  0.89864  1.0000
  Na  Na1       1.0  0.63200  0.50901  0.01503  1.0000
  Na  Na2       1.0  0.36800  0.49099  0.51503  1.0000
  Na  Na3       1.0  0.49099  0.63200  0.26503  1.0000
  Na  Na4       1.0  0.50901  0.36800  0.76503  1.0000
  O   O1        1.0  0.82970  0.59240  0.14719  1.0000
  O   O2        1.0  0.17030  0.40760  0.64719  1.0000
  O   O3        1.0  0.40760  0.82970  0.39719  1.0000
  O   O4        1.0  0.59240  0.17030  0.89719  1.0000
  O   O5        1.0  0.80920  0.61770  0.05610  1.0000
  O   O6        1.0  0.19080  0.38230  0.55610  1.0000
  O   O7        1.0  0.38230  0.80920  0.30610  1.0000
  O   O8        1.0  0.61770  0.19080  0.80610  1.0000
  O   O9        1.0  0.48930  0.62480  0.06564  1.0000
  O   O10       1.0  0.51070  0.37520  0.56564  1.0000
  O   O11       1.0  0.37520  0.48930  0.31564  1.0000
  O   O12       1.0  0.62480  0.51070  0.81564  1.0000
  O   O13       1.0  0.46420  0.62580  0.15746  1.0000
  O   O14       1.0  0.53580  0.37420  0.65746  1.0000
  O   O15       1.0  0.37420  0.46420  0.40746  1.0000
  O   O16       1.0  0.62580  0.53580  0.90746  1.0000
  O   O17       1.0  0.67080  0.78840  0.15257  1.0000
  O   O18       1.0  0.32920  0.21160  0.65257  1.0000
  O   O19       1.0  0.21160  0.67080  0.40257  1.0000
  O   O20       1.0  0.78840  0.32920  0.90257  1.0000
  O   O21       1.0  0.64620  0.77970  0.24410  1.0000
  O   O22       1.0  0.35380  0.22030  0.74410  1.0000
  O   O23       1.0  0.22030  0.64620  0.49410  1.0000
  O   O24       1.0  0.77970  0.35380  0.99410  1.0000
  O   O25       1.0  0.62920  0.44910  0.23266  1.0000
  O   O26       1.0  0.37080  0.55090  0.73266  1.0000
  O   O27       1.0  0.55090  0.62920  0.48266  1.0000
  O   O28       1.0  0.44910  0.37080  0.98266  1.0000
  O   O29       1.0  0.63340  0.42740  0.14075  1.0000
  O   O30       1.0  0.36660  0.57260  0.64075  1.0000
  O   O31       1.0  0.57260  0.63340  0.39075  1.0000
  O   O32       1.0  0.42740  0.36660  0.89075  1.0000
  C   C1        1.0  0.01520  0.61740  0.09660  1.0000
  C   C2        1.0  0.98480  0.38260  0.59660  1.0000
  C   C3        1.0  0.38260  0.01520  0.34660  1.0000
  C   C4        1.0  0.61740  0.98480  0.84660  1.0000
  C   C5        1.0  0.08160  0.54950  0.13540  1.0000
  C   C6        1.0  0.91840  0.45050  0.63540  1.0000
  C   C7        1.0  0.45050  0.08160  0.38540  1.0000
  C   C8        1.0  0.54950  0.91840  0.88540  1.0000
  H   H1        1.0  0.03880  0.49840  0.16030  1.0000
  H   H2        1.0  0.96120  0.50160  0.66030  1.0000
  H   H3        1.0  0.50160  0.03880  0.41030  1.0000
  H   H4        1.0  0.49840  0.96120  0.91030  1.0000
  C   C9        1.0  0.21230  0.55580  0.13790  1.0000
  C   C10       1.0  0.78770  0.44420  0.63790  1.0000
  C   C11       1.0  0.44420  0.21230  0.38790  1.0000
  C   C12       1.0  0.55580  0.78770  0.88790  1.0000
  H   H5        1.0  0.25430  0.50990  0.16500  1.0000
  H   H6        1.0  0.74570  0.49010  0.66500  1.0000
  H   H7        1.0  0.49010  0.25430  0.41500  1.0000
  H   H8        1.0  0.50990  0.74570  0.91500  1.0000
  C   C13       1.0  0.28000  0.62770  0.10170  1.0000
  C   C14       1.0  0.72000  0.37230  0.60170  1.0000
  C   C15       1.0  0.37230  0.28000  0.35170  1.0000
  C   C16       1.0  0.62770  0.72000  0.85170  1.0000
  C   C17       1.0  0.21690  0.69820  0.06070  1.0000
  C   C18       1.0  0.78310  0.30180  0.56070  1.0000
  C   C19       1.0  0.30180  0.21690  0.31070  1.0000
  C   C20       1.0  0.69820  0.78310  0.81070  1.0000
  C   C21       1.0  0.27980  0.77540  0.02190  1.0000
  C   C22       1.0  0.72020  0.22460  0.52190  1.0000
  C   C23       1.0  0.22460  0.27980  0.27190  1.0000
  C   C24       1.0  0.77540  0.72020  0.77190  1.0000
  H   H9        1.0  0.36700  0.77860  0.02210  1.0000
  H   H10       1.0  0.63300  0.22140  0.52210  1.0000
  H   H11       1.0  0.22140  0.36700  0.27210  1.0000
  H   H12       1.0  0.77860  0.63300  0.77210  1.0000
  C   C25       1.0  0.21560  0.84410  0.98480  1.0000
  C   C26       1.0  0.78440  0.15590  0.48480  1.0000
  C   C27       1.0  0.15590  0.21560  0.23480  1.0000
  C   C28       1.0  0.84410  0.78440  0.73480  1.0000
  H   H13       1.0  0.25980  0.89460  0.96010  1.0000
  H   H14       1.0  0.74020  0.10540  0.46010  1.0000
  H   H15       1.0  0.10540  0.25980  0.21010  1.0000
  H   H16       1.0  0.89460  0.74020  0.71010  1.0000
  C   C29       1.0  0.08670  0.84260  0.98180  1.0000
  C   C30       1.0  0.91330  0.15740  0.48180  1.0000
  C   C31       1.0  0.15740  0.08670  0.23180  1.0000
  C   C32       1.0  0.84260  0.91330  0.73180  1.0000
  H   H17       1.0  0.04530  0.89160  0.95550  1.0000
  H   H18       1.0  0.95470  0.10840  0.45550  1.0000
  H   H19       1.0  0.10840  0.04530  0.20550  1.0000
  H   H20       1.0  0.89160  0.95470  0.70550  1.0000
  C   C33       1.0  0.02080  0.76940  0.01740  1.0000
  C   C34       1.0  0.97920  0.23060  0.51740  1.0000
  C   C35       1.0  0.23060  0.02080  0.26740  1.0000
  C   C36       1.0  0.76940  0.97920  0.76740  1.0000
  H   H21       1.0  0.93380  0.76780  0.01510  1.0000
  H   H22       1.0  0.06620  0.23220  0.51510  1.0000
  H   H23       1.0  0.23220  0.93380  0.26510  1.0000
  H   H24       1.0  0.76780  0.06620  0.76510  1.0000
  C   C37       1.0  0.08170  0.69540  0.05790  1.0000
  C   C38       1.0  0.91830  0.30460  0.55790  1.0000
  C   C39       1.0  0.30460  0.08170  0.30790  1.0000
  C   C40       1.0  0.69540  0.91830  0.80790  1.0000
  C   C41       1.0  0.87430  0.60960  0.09860  1.0000
  C   C42       1.0  0.12570  0.39040  0.59860  1.0000
  C   C43       1.0  0.39040  0.87430  0.34860  1.0000
  C   C44       1.0  0.60960  0.12570  0.84860  1.0000
  C   C45       1.0  0.42110  0.62660  0.10790  1.0000
  C   C46       1.0  0.57890  0.37340  0.60790  1.0000
  C   C47       1.0  0.37340  0.42110  0.35790  1.0000
  C   C48       1.0  0.62660  0.57890  0.85790  1.0000
  C   C49       1.0  0.67590  0.97910  0.20070  1.0000
  C   C50       1.0  0.32410  0.02090  0.70070  1.0000
  C   C51       1.0  0.02090  0.67590  0.45070  1.0000
  C   C52       1.0  0.97910  0.32410  0.95070  1.0000
  C   C53       1.0  0.59020  0.04470  0.23220  1.0000
  C   C54       1.0  0.40980  0.95530  0.73220  1.0000
  C   C55       1.0  0.95530  0.59020  0.48220  1.0000
  C   C56       1.0  0.04470  0.40980  0.98220  1.0000
  H   H25       1.0  0.53590  0.00120  0.25560  1.0000
  H   H26       1.0  0.46410  0.99880  0.75560  1.0000
  H   H27       1.0  0.99880  0.53590  0.50560  1.0000
  H   H28       1.0  0.00120  0.46410  0.00560  1.0000
  C   C57       1.0  0.58340  0.17580  0.22970  1.0000
  C   C58       1.0  0.41660  0.82420  0.72970  1.0000
  C   C59       1.0  0.82420  0.58340  0.47970  1.0000
  C   C60       1.0  0.17580  0.41660  0.97970  1.0000
  H   H29       1.0  0.52580  0.21800  0.25200  1.0000
  H   H30       1.0  0.47420  0.78200  0.75200  1.0000
  H   H31       1.0  0.78200  0.52580  0.50200  1.0000
  H   H32       1.0  0.21800  0.47420  0.00200  1.0000
  C   C61       1.0  0.65990  0.24250  0.19500  1.0000
  C   C62       1.0  0.34010  0.75750  0.69500  1.0000
  C   C63       1.0  0.75750  0.65990  0.44500  1.0000
  C   C64       1.0  0.24250  0.34010  0.94500  1.0000
  C   C65       1.0  0.75400  0.18020  0.16410  1.0000
  C   C66       1.0  0.24600  0.81980  0.66410  1.0000
  C   C67       1.0  0.81980  0.75400  0.41410  1.0000
  C   C68       1.0  0.18020  0.24600  0.91410  1.0000
  C   C69       1.0  0.84380  0.24490  0.13080  1.0000
  C   C70       1.0  0.15620  0.75510  0.63080  1.0000
  C   C71       1.0  0.75510  0.84380  0.38080  1.0000
  C   C72       1.0  0.24490  0.15620  0.88080  1.0000
  H   H33       1.0  0.83920  0.33180  0.12820  1.0000
  H   H34       1.0  0.16080  0.66820  0.62820  1.0000
  H   H35       1.0  0.66820  0.83920  0.37820  1.0000
  H   H36       1.0  0.33180  0.16080  0.87820  1.0000
  C   C73       1.0  0.93570  0.18350  0.10300  1.0000
  C   C74       1.0  0.06430  0.81650  0.60300  1.0000
  C   C75       1.0  0.81650  0.93570  0.35300  1.0000
  C   C76       1.0  0.18350  0.06430  0.85300  1.0000
  H   H37       1.0  0.99200  0.22830  0.08100  1.0000
  H   H38       1.0  0.00800  0.77170  0.58100  1.0000
  H   H39       1.0  0.77170  0.99200  0.33100  1.0000
  H   H40       1.0  0.22830  0.00800  0.83100  1.0000
  C   C77       1.0  0.94630  0.05330  0.10700  1.0000
  C   C78       1.0  0.05370  0.94670  0.60700  1.0000
  C   C79       1.0  0.94670  0.94630  0.35700  1.0000
  C   C80       1.0  0.05330  0.05370  0.85700  1.0000
  H   H41       1.0  0.01170  0.01180  0.08920  1.0000
  H   H42       1.0  0.98830  0.98820  0.58920  1.0000
  H   H43       1.0  0.98820  0.01170  0.33920  1.0000
  H   H44       1.0  0.01180  0.98830  0.83920  1.0000
  C   C81       1.0  0.86100  0.98770  0.13700  1.0000
  C   C82       1.0  0.13900  0.01230  0.63700  1.0000
  C   C83       1.0  0.01230  0.86100  0.38700  1.0000
  C   C84       1.0  0.98770  0.13900  0.88700  1.0000
  H   H45       1.0  0.86660  0.90060  0.13790  1.0000
  H   H46       1.0  0.13340  0.09940  0.63790  1.0000
  H   H47       1.0  0.09940  0.86660  0.38790  1.0000
  H   H48       1.0  0.90060  0.13340  0.88790  1.0000
  C   C85       1.0  0.76330  0.04750  0.16703  1.0000
  C   C86       1.0  0.23670  0.95250  0.66703  1.0000
  C   C87       1.0  0.95250  0.76330  0.41703  1.0000
  C   C88       1.0  0.04750  0.23670  0.91703  1.0000
  C   C89       1.0  0.66370  0.83750  0.20050  1.0000
  C   C90       1.0  0.33630  0.16250  0.70050  1.0000
  C   C91       1.0  0.16250  0.66370  0.45050  1.0000
  C   C92       1.0  0.83750  0.33630  0.95050  1.0000
  C   C93       1.0  0.63910  0.38490  0.18970  1.0000
  C   C94       1.0  0.36090  0.61510  0.68970  1.0000
  C   C95       1.0  0.61510  0.63910  0.43970  1.0000
  C   C96       1.0  0.38490  0.36090  0.93970  1.0000
