data_image0
_chemical_formula_structural       U8O64C16H8C24H8C16H8C40H8C8H8C16H8C8H8C8H8C8H8
_chemical_formula_sum              "U8 O64 C144 H72"
_cell_length_a       12.7214
_cell_length_b       19.6454
_cell_length_c       17.0646
_cell_angle_alpha    90
_cell_angle_beta     98.896
_cell_angle_gamma    90

_space_group_name_H-M_alt    "P 1"
_space_group_IT_number       1

loop_
  _space_group_symop_operation_xyz
  'x, y, z'

loop_
  _atom_site_type_symbol
  _atom_site_label
  _atom_site_symmetry_multiplicity
  _atom_site_fract_x
  _atom_site_fract_y
  _atom_site_fract_z
  _atom_site_occupancy
  U   U1        1.0  0.16022  0.11679  0.08590  1.0000
  U   U2        1.0  0.66022  0.61679  0.08590  1.0000
  U   U3        1.0  0.83978  0.11679  0.41410  1.0000
  U   U4        1.0  0.33978  0.61679  0.41410  1.0000
  U   U5        1.0  0.83978  0.88321  0.91410  1.0000
  U   U6        1.0  0.33978  0.38321  0.91410  1.0000
  U   U7        1.0  0.16022  0.88321  0.58590  1.0000
  U   U8        1.0  0.66022  0.38321  0.58590  1.0000
  O   O1        1.0  0.18200  0.19167  0.20336  1.0000
  O   O2        1.0  0.68200  0.69167  0.20336  1.0000
  O   O3        1.0  0.81800  0.19167  0.29664  1.0000
  O   O4        1.0  0.31800  0.69167  0.29664  1.0000
  O   O5        1.0  0.81800  0.80833  0.79664  1.0000
  O   O6        1.0  0.31800  0.30833  0.79664  1.0000
  O   O7        1.0  0.18200  0.80833  0.70336  1.0000
  O   O8        1.0  0.68200  0.30833  0.70336  1.0000
  O   O9        1.0  0.03710  0.08965  0.10890  1.0000
  O   O10       1.0  0.53710  0.58965  0.10890  1.0000
  O   O11       1.0  0.96290  0.08965  0.39110  1.0000
  O   O12       1.0  0.46290  0.58965  0.39110  1.0000
  O   O13       1.0  0.96290  0.91035  0.89110  1.0000
  O   O14       1.0  0.46290  0.41035  0.89110  1.0000
  O   O15       1.0  0.03710  0.91035  0.60890  1.0000
  O   O16       1.0  0.53710  0.41035  0.60890  1.0000
  O   O17       1.0  0.13590  0.06206  0.94862  1.0000
  O   O18       1.0  0.63590  0.56206  0.94862  1.0000
  O   O19       1.0  0.86410  0.06206  0.55138  1.0000
  O   O20       1.0  0.36410  0.56206  0.55138  1.0000
  O   O21       1.0  0.86410  0.93794  0.05138  1.0000
  O   O22       1.0  0.36410  0.43794  0.05138  1.0000
  O   O23       1.0  0.13590  0.93794  0.44862  1.0000
  O   O24       1.0  0.63590  0.43794  0.44862  1.0000
  O   O25       1.0  0.06160  0.16030  0.96303  1.0000
  O   O26       1.0  0.56160  0.66030  0.96303  1.0000
  O   O27       1.0  0.93840  0.16030  0.53697  1.0000
  O   O28       1.0  0.43840  0.66030  0.53697  1.0000
  O   O29       1.0  0.93840  0.83970  0.03697  1.0000
  O   O30       1.0  0.43840  0.33970  0.03697  1.0000
  O   O31       1.0  0.06160  0.83970  0.46303  1.0000
  O   O32       1.0  0.56160  0.33970  0.46303  1.0000
  O   O33       1.0  0.28100  0.49688  0.40113  1.0000
  O   O34       1.0  0.78100  0.99688  0.40113  1.0000
  O   O35       1.0  0.71900  0.49688  0.09887  1.0000
  O   O36       1.0  0.21900  0.99688  0.09887  1.0000
  O   O37       1.0  0.71900  0.50312  0.59887  1.0000
  O   O38       1.0  0.21900  0.00312  0.59887  1.0000
  O   O39       1.0  0.28100  0.50312  0.90113  1.0000
  O   O40       1.0  0.78100  0.00312  0.90113  1.0000
  O   O41       1.0  0.25170  0.55707  0.29269  1.0000
  O   O42       1.0  0.75170  0.05707  0.29269  1.0000
  O   O43       1.0  0.74830  0.55707  0.20731  1.0000
  O   O44       1.0  0.24830  0.05707  0.20731  1.0000
  O   O45       1.0  0.74830  0.44293  0.70731  1.0000
  O   O46       1.0  0.24830  0.94293  0.70731  1.0000
  O   O47       1.0  0.25170  0.44293  0.79269  1.0000
  O   O48       1.0  0.75170  0.94293  0.79269  1.0000
  O   O49       1.0  0.28480  0.14220  0.06430  1.0000
  O   O50       1.0  0.78480  0.64220  0.06430  1.0000
  O   O51       1.0  0.71520  0.14220  0.43570  1.0000
  O   O52       1.0  0.21520  0.64220  0.43570  1.0000
  O   O53       1.0  0.71520  0.85780  0.93570  1.0000
  O   O54       1.0  0.21520  0.35780  0.93570  1.0000
  O   O55       1.0  0.28480  0.85780  0.56430  1.0000
  O   O56       1.0  0.78480  0.35780  0.56430  1.0000
  O   O57       1.0  0.11070  0.23753  0.09180  1.0000
  O   O58       1.0  0.61070  0.73753  0.09180  1.0000
  O   O59       1.0  0.88930  0.23753  0.40820  1.0000
  O   O60       1.0  0.38930  0.73753  0.40820  1.0000
  O   O61       1.0  0.88930  0.76247  0.90820  1.0000
  O   O62       1.0  0.38930  0.26247  0.90820  1.0000
  O   O63       1.0  0.11070  0.76247  0.59180  1.0000
  O   O64       1.0  0.61070  0.26247  0.59180  1.0000
  C   C1        1.0  0.02500  0.18070  0.79110  1.0000
  C   C2        1.0  0.52500  0.68070  0.79110  1.0000
  C   C3        1.0  0.97500  0.18070  0.70890  1.0000
  C   C4        1.0  0.47500  0.68070  0.70890  1.0000
  C   C5        1.0  0.97500  0.81930  0.20890  1.0000
  C   C6        1.0  0.47500  0.31930  0.20890  1.0000
  C   C7        1.0  0.02500  0.81930  0.29110  1.0000
  C   C8        1.0  0.52500  0.31930  0.29110  1.0000
  C   C9        1.0  0.02150  0.05690  0.79030  1.0000
  C   C10       1.0  0.52150  0.55690  0.79030  1.0000
  C   C11       1.0  0.97850  0.05690  0.70970  1.0000
  C   C12       1.0  0.47850  0.55690  0.70970  1.0000
  C   C13       1.0  0.97850  0.94310  0.20970  1.0000
  C   C14       1.0  0.47850  0.44310  0.20970  1.0000
  C   C15       1.0  0.02150  0.94310  0.29030  1.0000
  C   C16       1.0  0.52150  0.44310  0.29030  1.0000
  H   H1        1.0  0.03440  0.01570  0.81700  1.0000
  H   H2        1.0  0.53440  0.51570  0.81700  1.0000
  H   H3        1.0  0.96560  0.01570  0.68300  1.0000
  H   H4        1.0  0.46560  0.51570  0.68300  1.0000
  H   H5        1.0  0.96560  0.98430  0.18300  1.0000
  H   H6        1.0  0.46560  0.48430  0.18300  1.0000
  H   H7        1.0  0.03440  0.98430  0.31700  1.0000
  H   H8        1.0  0.53440  0.48430  0.31700  1.0000
  C   C17       1.0  0.04490  0.11670  0.83030  1.0000
  C   C18       1.0  0.54490  0.61670  0.83030  1.0000
  C   C19       1.0  0.95510  0.11670  0.66970  1.0000
  C   C20       1.0  0.45510  0.61670  0.66970  1.0000
  C   C21       1.0  0.95510  0.88330  0.16970  1.0000
  C   C22       1.0  0.45510  0.38330  0.16970  1.0000
  C   C23       1.0  0.04490  0.88330  0.33030  1.0000
  C   C24       1.0  0.54490  0.38330  0.33030  1.0000
  C   C25       1.0  0.08360  0.11280  0.91830  1.0000
  C   C26       1.0  0.58360  0.61280  0.91830  1.0000
  C   C27       1.0  0.91640  0.11280  0.58170  1.0000
  C   C28       1.0  0.41640  0.61280  0.58170  1.0000
  C   C29       1.0  0.91640  0.88720  0.08170  1.0000
  C   C30       1.0  0.41640  0.38720  0.08170  1.0000
  C   C31       1.0  0.08360  0.88720  0.41830  1.0000
  C   C32       1.0  0.58360  0.38720  0.41830  1.0000
  C   C33       1.0  0.26290  0.37810  0.30940  1.0000
  C   C34       1.0  0.76290  0.87810  0.30940  1.0000
  C   C35       1.0  0.73710  0.37810  0.19060  1.0000
  C   C36       1.0  0.23710  0.87810  0.19060  1.0000
  C   C37       1.0  0.73710  0.62190  0.69060  1.0000
  C   C38       1.0  0.23710  0.12190  0.69060  1.0000
  C   C39       1.0  0.26290  0.62190  0.80940  1.0000
  C   C40       1.0  0.76290  0.12190  0.80940  1.0000
  H   H9        1.0  0.31380  0.37920  0.35480  1.0000
  H   H10       1.0  0.81380  0.87920  0.35480  1.0000
  H   H11       1.0  0.68620  0.37920  0.14520  1.0000
  H   H12       1.0  0.18620  0.87920  0.14520  1.0000
  H   H13       1.0  0.68620  0.62080  0.64520  1.0000
  H   H14       1.0  0.18620  0.12080  0.64520  1.0000
  H   H15       1.0  0.31380  0.62080  0.85480  1.0000
  H   H16       1.0  0.81380  0.12080  0.85480  1.0000
  C   C41       1.0  0.13370  0.43650  0.21320  1.0000
  C   C42       1.0  0.63370  0.93650  0.21320  1.0000
  C   C43       1.0  0.86630  0.43650  0.28680  1.0000
  C   C44       1.0  0.36630  0.93650  0.28680  1.0000
  C   C45       1.0  0.86630  0.56350  0.78680  1.0000
  C   C46       1.0  0.36630  0.06350  0.78680  1.0000
  C   C47       1.0  0.13370  0.56350  0.71320  1.0000
  C   C48       1.0  0.63370  0.06350  0.71320  1.0000
  C   C49       1.0  0.23920  0.31650  0.26960  1.0000
  C   C50       1.0  0.73920  0.81650  0.26960  1.0000
  C   C51       1.0  0.76080  0.31650  0.23040  1.0000
  C   C52       1.0  0.26080  0.81650  0.23040  1.0000
  C   C53       1.0  0.76080  0.68350  0.73040  1.0000
  C   C54       1.0  0.26080  0.18350  0.73040  1.0000
  C   C55       1.0  0.23920  0.68350  0.76960  1.0000
  C   C56       1.0  0.73920  0.18350  0.76960  1.0000
  H   H17       1.0  0.27510  0.27710  0.28870  1.0000
  H   H18       1.0  0.77510  0.77710  0.28870  1.0000
  H   H19       1.0  0.72490  0.27710  0.21130  1.0000
  H   H20       1.0  0.22490  0.77710  0.21130  1.0000
  H   H21       1.0  0.72490  0.72290  0.71130  1.0000
  H   H22       1.0  0.22490  0.22290  0.71130  1.0000
  H   H23       1.0  0.27510  0.72290  0.78870  1.0000
  H   H24       1.0  0.77510  0.22290  0.78870  1.0000
  C   C57       1.0  0.21220  0.43680  0.28230  1.0000
  C   C58       1.0  0.71220  0.93680  0.28230  1.0000
  C   C59       1.0  0.78780  0.43680  0.21770  1.0000
  C   C60       1.0  0.28780  0.93680  0.21770  1.0000
  C   C61       1.0  0.78780  0.56320  0.71770  1.0000
  C   C62       1.0  0.28780  0.06320  0.71770  1.0000
  C   C63       1.0  0.21220  0.56320  0.78230  1.0000
  C   C64       1.0  0.71220  0.06320  0.78230  1.0000
  C   C65       1.0  0.16390  0.31310  0.20310  1.0000
  C   C66       1.0  0.66390  0.81310  0.20310  1.0000
  C   C67       1.0  0.83610  0.31310  0.29690  1.0000
  C   C68       1.0  0.33610  0.81310  0.29690  1.0000
  C   C69       1.0  0.83610  0.68690  0.79690  1.0000
  C   C70       1.0  0.33610  0.18690  0.79690  1.0000
  C   C71       1.0  0.16390  0.68690  0.70310  1.0000
  C   C72       1.0  0.66390  0.18690  0.70310  1.0000
  C   C73       1.0  0.10810  0.37290  0.17250  1.0000
  C   C74       1.0  0.60810  0.87290  0.17250  1.0000
  C   C75       1.0  0.89190  0.37290  0.32750  1.0000
  C   C76       1.0  0.39190  0.87290  0.32750  1.0000
  C   C77       1.0  0.89190  0.62710  0.82750  1.0000
  C   C78       1.0  0.39190  0.12710  0.82750  1.0000
  C   C79       1.0  0.10810  0.62710  0.67250  1.0000
  C   C80       1.0  0.60810  0.12710  0.67250  1.0000
  C   C81       1.0  0.24860  0.50040  0.32700  1.0000
  C   C82       1.0  0.74860  0.00040  0.32700  1.0000
  C   C83       1.0  0.75140  0.50040  0.17300  1.0000
  C   C84       1.0  0.25140  0.00040  0.17300  1.0000
  C   C85       1.0  0.75140  0.49960  0.67300  1.0000
  C   C86       1.0  0.25140  0.99960  0.67300  1.0000
  C   C87       1.0  0.24860  0.49960  0.82700  1.0000
  C   C88       1.0  0.74860  0.99960  0.82700  1.0000
  C   C89       1.0  0.05400  0.24430  0.82720  1.0000
  C   C90       1.0  0.55400  0.74430  0.82720  1.0000
  C   C91       1.0  0.94600  0.24430  0.67280  1.0000
  C   C92       1.0  0.44600  0.74430  0.67280  1.0000
  C   C93       1.0  0.94600  0.75570  0.17280  1.0000
  C   C94       1.0  0.44600  0.25570  0.17280  1.0000
  C   C95       1.0  0.05400  0.75570  0.32720  1.0000
  C   C96       1.0  0.55400  0.25570  0.32720  1.0000
  H   H25       1.0  0.09130  0.24520  0.87860  1.0000
  H   H26       1.0  0.59130  0.74520  0.87860  1.0000
  H   H27       1.0  0.90870  0.24520  0.62140  1.0000
  H   H28       1.0  0.40870  0.74520  0.62140  1.0000
  H   H29       1.0  0.90870  0.75480  0.12140  1.0000
  H   H30       1.0  0.40870  0.25480  0.12140  1.0000
  H   H31       1.0  0.09130  0.75480  0.37860  1.0000
  H   H32       1.0  0.59130  0.25480  0.37860  1.0000
  C   C97       1.0  0.07620  0.49530  0.18340  1.0000
  C   C98       1.0  0.57620  0.99530  0.18340  1.0000
  C   C99       1.0  0.92380  0.49530  0.31660  1.0000
  C   C100      1.0  0.42380  0.99530  0.31660  1.0000
  C   C101      1.0  0.92380  0.50470  0.81660  1.0000
  C   C102      1.0  0.42380  0.00470  0.81660  1.0000
  C   C103      1.0  0.07620  0.50470  0.68340  1.0000
  C   C104      1.0  0.57620  0.00470  0.68340  1.0000
  H   H33       1.0  0.09080  0.53660  0.20950  1.0000
  H   H34       1.0  0.59080  0.03660  0.20950  1.0000
  H   H35       1.0  0.90920  0.53660  0.29050  1.0000
  H   H36       1.0  0.40920  0.03660  0.29050  1.0000
  H   H37       1.0  0.90920  0.46340  0.79050  1.0000
  H   H38       1.0  0.40920  0.96340  0.79050  1.0000
  H   H39       1.0  0.09080  0.46340  0.70950  1.0000
  H   H40       1.0  0.59080  0.96340  0.70950  1.0000
  C   C105      1.0  0.14970  0.24460  0.16370  1.0000
  C   C106      1.0  0.64970  0.74460  0.16370  1.0000
  C   C107      1.0  0.85030  0.24460  0.33630  1.0000
  C   C108      1.0  0.35030  0.74460  0.33630  1.0000
  C   C109      1.0  0.85030  0.75540  0.83630  1.0000
  C   C110      1.0  0.35030  0.25540  0.83630  1.0000
  C   C111      1.0  0.14970  0.75540  0.66370  1.0000
  C   C112      1.0  0.64970  0.25540  0.66370  1.0000
  C   C113      1.0  0.00040  0.49290  0.11780  1.0000
  C   C114      1.0  0.50040  0.99290  0.11780  1.0000
  C   C115      1.0  0.99960  0.49290  0.38220  1.0000
  C   C116      1.0  0.49960  0.99290  0.38220  1.0000
  C   C117      1.0  0.99960  0.50710  0.88220  1.0000
  C   C118      1.0  0.49960  0.00710  0.88220  1.0000
  C   C119      1.0  0.00040  0.50710  0.61780  1.0000
  C   C120      1.0  0.50040  0.00710  0.61780  1.0000
  H   H41       1.0  0.96460  0.53240  0.09900  1.0000
  H   H42       1.0  0.46460  0.03240  0.09900  1.0000
  H   H43       1.0  0.03540  0.53240  0.40100  1.0000
  H   H44       1.0  0.53540  0.03240  0.40100  1.0000
  H   H45       1.0  0.03540  0.46760  0.90100  1.0000
  H   H46       1.0  0.53540  0.96760  0.90100  1.0000
  H   H47       1.0  0.96460  0.46760  0.59900  1.0000
  H   H48       1.0  0.46460  0.96760  0.59900  1.0000
  C   C121      1.0  0.97640  0.43090  0.07850  1.0000
  C   C122      1.0  0.47640  0.93090  0.07850  1.0000
  C   C123      1.0  0.02360  0.43090  0.42150  1.0000
  C   C124      1.0  0.52360  0.93090  0.42150  1.0000
  C   C125      1.0  0.02360  0.56910  0.92150  1.0000
  C   C126      1.0  0.52360  0.06910  0.92150  1.0000
  C   C127      1.0  0.97640  0.56910  0.57850  1.0000
  C   C128      1.0  0.47640  0.06910  0.57850  1.0000
  H   H49       1.0  0.92480  0.42950  0.03360  1.0000
  H   H50       1.0  0.42480  0.92950  0.03360  1.0000
  H   H51       1.0  0.07520  0.42950  0.46640  1.0000
  H   H52       1.0  0.57520  0.92950  0.46640  1.0000
  H   H53       1.0  0.07520  0.57050  0.96640  1.0000
  H   H54       1.0  0.57520  0.07050  0.96640  1.0000
  H   H55       1.0  0.92480  0.57050  0.53360  1.0000
  H   H56       1.0  0.42480  0.07050  0.53360  1.0000
  C   C129      1.0  0.02750  0.37270  0.10510  1.0000
  C   C130      1.0  0.52750  0.87270  0.10510  1.0000
  C   C131      1.0  0.97250  0.37270  0.39490  1.0000
  C   C132      1.0  0.47250  0.87270  0.39490  1.0000
  C   C133      1.0  0.97250  0.62730  0.89490  1.0000
  C   C134      1.0  0.47250  0.12730  0.89490  1.0000
  C   C135      1.0  0.02750  0.62730  0.60510  1.0000
  C   C136      1.0  0.52750  0.12730  0.60510  1.0000
  H   H57       1.0  0.00930  0.33200  0.07860  1.0000
  H   H58       1.0  0.50930  0.83200  0.07860  1.0000
  H   H59       1.0  0.99070  0.33200  0.42140  1.0000
  H   H60       1.0  0.49070  0.83200  0.42140  1.0000
  H   H61       1.0  0.99070  0.66800  0.92140  1.0000
  H   H62       1.0  0.49070  0.16800  0.92140  1.0000
  H   H63       1.0  0.00930  0.66800  0.57860  1.0000
  H   H64       1.0  0.50930  0.16800  0.57860  1.0000
  C   C137      1.0  0.02820  0.30450  0.78840  1.0000
  C   C138      1.0  0.52820  0.80450  0.78840  1.0000
  C   C139      1.0  0.97180  0.30450  0.71160  1.0000
  C   C140      1.0  0.47180  0.80450  0.71160  1.0000
  C   C141      1.0  0.97180  0.69550  0.21160  1.0000
  C   C142      1.0  0.47180  0.19550  0.21160  1.0000
  C   C143      1.0  0.02820  0.69550  0.28840  1.0000
  C   C144      1.0  0.52820  0.19550  0.28840  1.0000
  H   H65       1.0  0.04850  0.34550  0.81340  1.0000
  H   H66       1.0  0.54850  0.84550  0.81340  1.0000
  H   H67       1.0  0.95150  0.34550  0.68660  1.0000
  H   H68       1.0  0.45150  0.84550  0.68660  1.0000
  H   H69       1.0  0.95150  0.65450  0.18660  1.0000
  H   H70       1.0  0.45150  0.15450  0.18660  1.0000
  H   H71       1.0  0.04850  0.65450  0.31340  1.0000
  H   H72       1.0  0.54850  0.15450  0.31340  1.0000
