data_image0
_chemical_formula_structural       Fe12O64C8H4C8H4C4H4C4H4C16H4C8H4C4H4C4H4C16H4C8H4C4H4C4H4C16H4C8H4C4H4C4H4C8
_chemical_formula_sum              "Fe12 O64 C128 H64"
_cell_length_a       34.8919
_cell_length_b       9.5607
_cell_length_c       13.4581
_cell_angle_alpha    90
_cell_angle_beta     90
_cell_angle_gamma    90

_space_group_name_H-M_alt    "P 1"
_space_group_IT_number       1

loop_
  _space_group_symop_operation_xyz
  'x, y, z'

loop_
  _atom_site_type_symbol
  _atom_site_label
  _atom_site_symmetry_multiplicity
  _atom_site_fract_x
  _atom_site_fract_y
  _atom_site_fract_z
  _atom_site_occupancy
  Fe  Fe1       1.0  0.49617  0.60156  0.53689  1.0000
  Fe  Fe2       1.0  0.50383  0.39844  0.03689  1.0000
  Fe  Fe3       1.0  0.99617  0.39844  0.53689  1.0000
  Fe  Fe4       1.0  0.00383  0.60156  0.03689  1.0000
  Fe  Fe5       1.0  0.57905  0.64334  0.69194  1.0000
  Fe  Fe6       1.0  0.42095  0.35666  0.19194  1.0000
  Fe  Fe7       1.0  0.07905  0.35666  0.69194  1.0000
  Fe  Fe8       1.0  0.92095  0.64334  0.19194  1.0000
  Fe  Fe9       1.0  0.58883  0.42332  0.88648  1.0000
  Fe  Fe10      1.0  0.41117  0.57668  0.38648  1.0000
  Fe  Fe11      1.0  0.08883  0.57668  0.88648  1.0000
  Fe  Fe12      1.0  0.91117  0.42332  0.38648  1.0000
  O   O1        1.0  0.60107  0.60830  0.54850  1.0000
  O   O2        1.0  0.39893  0.39170  0.04850  1.0000
  O   O3        1.0  0.10107  0.39170  0.54850  1.0000
  O   O4        1.0  0.89893  0.60830  0.04850  1.0000
  O   O5        1.0  0.54661  0.59990  0.45700  1.0000
  O   O6        1.0  0.45339  0.40010  0.95700  1.0000
  O   O7        1.0  0.04661  0.40010  0.45700  1.0000
  O   O8        1.0  0.95339  0.59990  0.95700  1.0000
  O   O9        1.0  0.55375  0.41060  0.12190  1.0000
  O   O10       1.0  0.44625  0.58940  0.62190  1.0000
  O   O11       1.0  0.05375  0.58940  0.12190  1.0000
  O   O12       1.0  0.94625  0.41060  0.62190  1.0000
  O   O13       1.0  0.60622  0.45180  0.03170  1.0000
  O   O14       1.0  0.39378  0.54820  0.53170  1.0000
  O   O15       1.0  0.10622  0.54820  0.03170  1.0000
  O   O16       1.0  0.89378  0.45180  0.53170  1.0000
  O   O17       1.0  0.57818  0.38660  0.72640  1.0000
  O   O18       1.0  0.42182  0.61340  0.22640  1.0000
  O   O19       1.0  0.07818  0.61340  0.72640  1.0000
  O   O20       1.0  0.92182  0.38660  0.22640  1.0000
  O   O21       1.0  0.53166  0.50980  0.66180  1.0000
  O   O22       1.0  0.46834  0.49020  0.16180  1.0000
  O   O23       1.0  0.03166  0.49020  0.66180  1.0000
  O   O24       1.0  0.96834  0.50980  0.16180  1.0000
  O   O25       1.0  0.50733  0.78070  0.61450  1.0000
  O   O26       1.0  0.49267  0.21930  0.11450  1.0000
  O   O27       1.0  0.00733  0.21930  0.61450  1.0000
  O   O28       1.0  0.99267  0.78070  0.11450  1.0000
  O   O29       1.0  0.56410  0.84800  0.67160  1.0000
  O   O30       1.0  0.43590  0.15200  0.17160  1.0000
  O   O31       1.0  0.06410  0.15200  0.67160  1.0000
  O   O32       1.0  0.93590  0.84800  0.17160  1.0000
  O   O33       1.0  0.64267  0.50040  0.85260  1.0000
  O   O34       1.0  0.35733  0.49960  0.35260  1.0000
  O   O35       1.0  0.14267  0.49960  0.85260  1.0000
  O   O36       1.0  0.85733  0.50040  0.35260  1.0000
  O   O37       1.0  0.63311  0.67050  0.74100  1.0000
  O   O38       1.0  0.36689  0.32950  0.24100  1.0000
  O   O39       1.0  0.13311  0.32950  0.74100  1.0000
  O   O40       1.0  0.86689  0.67050  0.24100  1.0000
  O   O41       1.0  0.73869  0.98350  0.64990  1.0000
  O   O42       1.0  0.26131  0.01650  0.14990  1.0000
  O   O43       1.0  0.23869  0.01650  0.64990  1.0000
  O   O44       1.0  0.76131  0.98350  0.14990  1.0000
  O   O45       1.0  0.78539  0.02090  0.75830  1.0000
  O   O46       1.0  0.21461  0.97910  0.25830  1.0000
  O   O47       1.0  0.28539  0.97910  0.75830  1.0000
  O   O48       1.0  0.71461  0.02090  0.25830  1.0000
  O   O49       1.0  0.58873  0.17360  0.89300  1.0000
  O   O50       1.0  0.41127  0.82640  0.39300  1.0000
  O   O51       1.0  0.08873  0.82640  0.89300  1.0000
  O   O52       1.0  0.91127  0.17360  0.39300  1.0000
  O   O53       1.0  0.53823  0.30490  0.91729  1.0000
  O   O54       1.0  0.46177  0.69510  0.41729  1.0000
  O   O55       1.0  0.03823  0.69510  0.91729  1.0000
  O   O56       1.0  0.96177  0.30490  0.41729  1.0000
  O   O57       1.0  0.51659  0.58370  0.96450  1.0000
  O   O58       1.0  0.48341  0.41630  0.46450  1.0000
  O   O59       1.0  0.01659  0.41630  0.96450  1.0000
  O   O60       1.0  0.98341  0.58370  0.46450  1.0000
  O   O61       1.0  0.56342  0.62560  0.85640  1.0000
  O   O62       1.0  0.43658  0.37440  0.35640  1.0000
  O   O63       1.0  0.06342  0.37440  0.85640  1.0000
  O   O64       1.0  0.93658  0.62560  0.35640  1.0000
  C   C1        1.0  0.60545  0.57520  0.37440  1.0000
  C   C2        1.0  0.39455  0.42480  0.87440  1.0000
  C   C3        1.0  0.10545  0.42480  0.37440  1.0000
  C   C4        1.0  0.89455  0.57520  0.87440  1.0000
  C   C5        1.0  0.58774  0.51980  0.29170  1.0000
  C   C6        1.0  0.41226  0.48020  0.79170  1.0000
  C   C7        1.0  0.08774  0.48020  0.29170  1.0000
  C   C8        1.0  0.91226  0.51980  0.79170  1.0000
  H   H1        1.0  0.56210  0.49360  0.29470  1.0000
  H   H2        1.0  0.43790  0.50640  0.79470  1.0000
  H   H3        1.0  0.06210  0.50640  0.29470  1.0000
  H   H4        1.0  0.93790  0.49360  0.79470  1.0000
  C   C9        1.0  0.60826  0.50290  0.20340  1.0000
  C   C10       1.0  0.39174  0.49710  0.70340  1.0000
  C   C11       1.0  0.10826  0.49710  0.20340  1.0000
  C   C12       1.0  0.89174  0.50290  0.70340  1.0000
  C   C13       1.0  0.64587  0.54010  0.19890  1.0000
  C   C14       1.0  0.35413  0.45990  0.69890  1.0000
  C   C15       1.0  0.14587  0.45990  0.19890  1.0000
  C   C16       1.0  0.85413  0.54010  0.69890  1.0000
  H   H5        1.0  0.65930  0.52950  0.13970  1.0000
  H   H6        1.0  0.34070  0.47050  0.63970  1.0000
  H   H7        1.0  0.15930  0.47050  0.13970  1.0000
  H   H8        1.0  0.84070  0.52950  0.63970  1.0000
  C   C17       1.0  0.66453  0.59450  0.28280  1.0000
  C   C18       1.0  0.33547  0.40550  0.78280  1.0000
  C   C19       1.0  0.16453  0.40550  0.28280  1.0000
  C   C20       1.0  0.83547  0.59450  0.78280  1.0000
  H   H9        1.0  0.69030  0.61860  0.28040  1.0000
  H   H10       1.0  0.30970  0.38140  0.78040  1.0000
  H   H11       1.0  0.19030  0.38140  0.28040  1.0000
  H   H12       1.0  0.80970  0.61860  0.78040  1.0000
  C   C21       1.0  0.64337  0.61130  0.36960  1.0000
  C   C22       1.0  0.35663  0.38870  0.86960  1.0000
  C   C23       1.0  0.14337  0.38870  0.36960  1.0000
  C   C24       1.0  0.85663  0.61130  0.86960  1.0000
  H   H13       1.0  0.65530  0.64800  0.42560  1.0000
  H   H14       1.0  0.34470  0.35200  0.92560  1.0000
  H   H15       1.0  0.15530  0.35200  0.42560  1.0000
  H   H16       1.0  0.84470  0.64800  0.92560  1.0000
  C   C25       1.0  0.58212  0.59610  0.46820  1.0000
  C   C26       1.0  0.41788  0.40390  0.96820  1.0000
  C   C27       1.0  0.08212  0.40390  0.46820  1.0000
  C   C28       1.0  0.91788  0.59610  0.96820  1.0000
  C   C29       1.0  0.58709  0.44940  0.11100  1.0000
  C   C30       1.0  0.41291  0.55060  0.61100  1.0000
  C   C31       1.0  0.08709  0.55060  0.11100  1.0000
  C   C32       1.0  0.91291  0.44940  0.61100  1.0000
  C   C33       1.0  0.52158  0.26520  0.67780  1.0000
  C   C34       1.0  0.47842  0.73480  0.17780  1.0000
  C   C35       1.0  0.02158  0.73480  0.67780  1.0000
  C   C36       1.0  0.97842  0.26520  0.17780  1.0000
  C   C37       1.0  0.53775  0.13320  0.67200  1.0000
  C   C38       1.0  0.46225  0.86680  0.17200  1.0000
  C   C39       1.0  0.03775  0.86680  0.67200  1.0000
  C   C40       1.0  0.96225  0.13320  0.17200  1.0000
  H   H17       1.0  0.56410  0.12180  0.67870  1.0000
  H   H18       1.0  0.43590  0.87820  0.17870  1.0000
  H   H19       1.0  0.06410  0.87820  0.67870  1.0000
  H   H20       1.0  0.93590  0.12180  0.17870  1.0000
  C   C41       1.0  0.51419  0.01690  0.65590  1.0000
  C   C42       1.0  0.48581  0.98310  0.15590  1.0000
  C   C43       1.0  0.01419  0.98310  0.65590  1.0000
  C   C44       1.0  0.98581  0.01690  0.15590  1.0000
  C   C45       1.0  0.47441  0.03380  0.65240  1.0000
  C   C46       1.0  0.52559  0.96620  0.15240  1.0000
  C   C47       1.0  0.97441  0.96620  0.65240  1.0000
  C   C48       1.0  0.02559  0.03380  0.15240  1.0000
  H   H21       1.0  0.45870  0.95660  0.64230  1.0000
  H   H22       1.0  0.54130  0.04340  0.14230  1.0000
  H   H23       1.0  0.95870  0.04340  0.64230  1.0000
  H   H24       1.0  0.04130  0.95660  0.14230  1.0000
  C   C49       1.0  0.45857  0.16480  0.66380  1.0000
  C   C50       1.0  0.54143  0.83520  0.16380  1.0000
  C   C51       1.0  0.95857  0.83520  0.66380  1.0000
  C   C52       1.0  0.04143  0.16480  0.16380  1.0000
  H   H25       1.0  0.43210  0.17570  0.66420  1.0000
  H   H26       1.0  0.56790  0.82430  0.16420  1.0000
  H   H27       1.0  0.93210  0.82430  0.66420  1.0000
  H   H28       1.0  0.06790  0.17570  0.16420  1.0000
  C   C53       1.0  0.48210  0.27970  0.67480  1.0000
  C   C54       1.0  0.51790  0.72030  0.17480  1.0000
  C   C55       1.0  0.98210  0.72030  0.67480  1.0000
  C   C56       1.0  0.01790  0.27970  0.17480  1.0000
  H   H29       1.0  0.47130  0.36820  0.68020  1.0000
  H   H30       1.0  0.52870  0.63180  0.18020  1.0000
  H   H31       1.0  0.97130  0.63180  0.68020  1.0000
  H   H32       1.0  0.02870  0.36820  0.18020  1.0000
  C   C57       1.0  0.54569  0.39240  0.68930  1.0000
  C   C58       1.0  0.45431  0.60760  0.18930  1.0000
  C   C59       1.0  0.04569  0.60760  0.68930  1.0000
  C   C60       1.0  0.95431  0.39240  0.18930  1.0000
  C   C61       1.0  0.53042  0.87090  0.64620  1.0000
  C   C62       1.0  0.46958  0.12910  0.14620  1.0000
  C   C63       1.0  0.03042  0.12910  0.64620  1.0000
  C   C64       1.0  0.96958  0.87090  0.14620  1.0000
  C   C65       1.0  0.69068  0.67330  0.83250  1.0000
  C   C66       1.0  0.30932  0.32670  0.33250  1.0000
  C   C67       1.0  0.19068  0.32670  0.83250  1.0000
  C   C68       1.0  0.80932  0.67330  0.33250  1.0000
  C   C69       1.0  0.70590  0.77760  0.77200  1.0000
  C   C70       1.0  0.29410  0.22240  0.27200  1.0000
  C   C71       1.0  0.20590  0.22240  0.77200  1.0000
  C   C72       1.0  0.79410  0.77760  0.27200  1.0000
  H   H33       1.0  0.69330  0.80200  0.71350  1.0000
  H   H34       1.0  0.30670  0.19800  0.21350  1.0000
  H   H35       1.0  0.19330  0.19800  0.71350  1.0000
  H   H36       1.0  0.80670  0.80200  0.21350  1.0000
  C   C73       1.0  0.73975  0.84600  0.79790  1.0000
  C   C74       1.0  0.26025  0.15400  0.29790  1.0000
  C   C75       1.0  0.23975  0.15400  0.79790  1.0000
  C   C76       1.0  0.76025  0.84600  0.29790  1.0000
  C   C77       1.0  0.75856  0.80950  0.88430  1.0000
  C   C78       1.0  0.24144  0.19050  0.38430  1.0000
  C   C79       1.0  0.25856  0.19050  0.88430  1.0000
  C   C80       1.0  0.74144  0.80950  0.38430  1.0000
  H   H37       1.0  0.78080  0.85640  0.90250  1.0000
  H   H38       1.0  0.21920  0.14360  0.40250  1.0000
  H   H39       1.0  0.28080  0.14360  0.90250  1.0000
  H   H40       1.0  0.71920  0.85640  0.40250  1.0000
  C   C81       1.0  0.74440  0.70340  0.94390  1.0000
  C   C82       1.0  0.25560  0.29660  0.44390  1.0000
  C   C83       1.0  0.24440  0.29660  0.94390  1.0000
  C   C84       1.0  0.75560  0.70340  0.44390  1.0000
  H   H41       1.0  0.75740  0.67740  0.00140  1.0000
  H   H42       1.0  0.24260  0.32260  0.50140  1.0000
  H   H43       1.0  0.25740  0.32260  0.00140  1.0000
  H   H44       1.0  0.74260  0.67740  0.50140  1.0000
  C   C85       1.0  0.71030  0.63560  0.91700  1.0000
  C   C86       1.0  0.28970  0.36440  0.41700  1.0000
  C   C87       1.0  0.21030  0.36440  0.91700  1.0000
  C   C88       1.0  0.78970  0.63560  0.41700  1.0000
  H   H45       1.0  0.70080  0.56410  0.95690  1.0000
  H   H46       1.0  0.29920  0.43590  0.45690  1.0000
  H   H47       1.0  0.20080  0.43590  0.95690  1.0000
  H   H48       1.0  0.79920  0.56410  0.45690  1.0000
  C   C89       1.0  0.65308  0.61000  0.80660  1.0000
  C   C90       1.0  0.34692  0.39000  0.30660  1.0000
  C   C91       1.0  0.15308  0.39000  0.80660  1.0000
  C   C92       1.0  0.84692  0.61000  0.30660  1.0000
  C   C93       1.0  0.75541  0.96120  0.72880  1.0000
  C   C94       1.0  0.24459  0.03880  0.22880  1.0000
  C   C95       1.0  0.25541  0.03880  0.72880  1.0000
  C   C96       1.0  0.74459  0.96120  0.22880  1.0000
  C   C97       1.0  0.52784  0.05880  0.90100  1.0000
  C   C98       1.0  0.47216  0.94120  0.40100  1.0000
  C   C99       1.0  0.02784  0.94120  0.90100  1.0000
  C   C100      1.0  0.97216  0.05880  0.40100  1.0000
  C   C101      1.0  0.54265  0.92320  0.89410  1.0000
  C   C102      1.0  0.45735  0.07680  0.39410  1.0000
  C   C103      1.0  0.04265  0.07680  0.89410  1.0000
  C   C104      1.0  0.95735  0.92320  0.39410  1.0000
  H   H49       1.0  0.56890  0.91020  0.88660  1.0000
  H   H50       1.0  0.43110  0.08980  0.38660  1.0000
  H   H51       1.0  0.06890  0.08980  0.88660  1.0000
  H   H52       1.0  0.93110  0.91020  0.38660  1.0000
  C   C105      1.0  0.51874  0.80880  0.89840  1.0000
  C   C106      1.0  0.48126  0.19120  0.39840  1.0000
  C   C107      1.0  0.01874  0.19120  0.89840  1.0000
  C   C108      1.0  0.98126  0.80880  0.39840  1.0000
  C   C109      1.0  0.47955  0.82850  0.90470  1.0000
  C   C110      1.0  0.52045  0.17150  0.40470  1.0000
  C   C111      1.0  0.97955  0.17150  0.90470  1.0000
  C   C112      1.0  0.02045  0.82850  0.40470  1.0000
  H   H53       1.0  0.46330  0.75160  0.90820  1.0000
  H   H54       1.0  0.53670  0.24840  0.40820  1.0000
  H   H55       1.0  0.96330  0.24840  0.90820  1.0000
  H   H56       1.0  0.03670  0.75160  0.40820  1.0000
  C   C113      1.0  0.46459  0.96160  0.90570  1.0000
  C   C114      1.0  0.53541  0.03840  0.40570  1.0000
  C   C115      1.0  0.96459  0.03840  0.90570  1.0000
  C   C116      1.0  0.03541  0.96160  0.40570  1.0000
  H   H57       1.0  0.43820  0.97420  0.90730  1.0000
  H   H58       1.0  0.56180  0.02580  0.40730  1.0000
  H   H59       1.0  0.93820  0.02580  0.90730  1.0000
  H   H60       1.0  0.06180  0.97420  0.40730  1.0000
  C   C117      1.0  0.48838  0.07620  0.90450  1.0000
  C   C118      1.0  0.51162  0.92380  0.40450  1.0000
  C   C119      1.0  0.98838  0.92380  0.90450  1.0000
  C   C120      1.0  0.01162  0.07620  0.40450  1.0000
  H   H61       1.0  0.47800  0.16570  0.90590  1.0000
  H   H62       1.0  0.52200  0.83430  0.40590  1.0000
  H   H63       1.0  0.97800  0.83430  0.90590  1.0000
  H   H64       1.0  0.02200  0.16570  0.40590  1.0000
  C   C121      1.0  0.55363  0.18260  0.90390  1.0000
  C   C122      1.0  0.44637  0.81740  0.40390  1.0000
  C   C123      1.0  0.05363  0.81740  0.90390  1.0000
  C   C124      1.0  0.94637  0.18260  0.40390  1.0000
  C   C125      1.0  0.53462  0.66030  0.90530  1.0000
  C   C126      1.0  0.46538  0.33970  0.40530  1.0000
  C   C127      1.0  0.03462  0.33970  0.90530  1.0000
  C   C128      1.0  0.96538  0.66030  0.40530  1.0000
