data_image0
_chemical_formula_structural       Co12O64C16H8C16H8C8H8C8H8C32H8C16H8C8H8C8H8C16
_chemical_formula_sum              "Co12 O64 C128 H64"
_cell_length_a       13.9335
_cell_length_b       14.102
_cell_length_c       24.5722
_cell_angle_alpha    90
_cell_angle_beta     90
_cell_angle_gamma    90

_space_group_name_H-M_alt    "P 1"
_space_group_IT_number       1

loop_
  _space_group_symop_operation_xyz
  'x, y, z'

loop_
  _atom_site_type_symbol
  _atom_site_label
  _atom_site_symmetry_multiplicity
  _atom_site_fract_x
  _atom_site_fract_y
  _atom_site_fract_z
  _atom_site_occupancy
  Co  Co1       1.0  0.43012  0.09594  0.62672  1.0000
  Co  Co2       1.0  0.06988  0.90406  0.12672  1.0000
  Co  Co3       1.0  0.56988  0.59594  0.87328  1.0000
  Co  Co4       1.0  0.93012  0.40406  0.37328  1.0000
  Co  Co5       1.0  0.56988  0.90406  0.37328  1.0000
  Co  Co6       1.0  0.93012  0.09594  0.87328  1.0000
  Co  Co7       1.0  0.43012  0.40406  0.12672  1.0000
  Co  Co8       1.0  0.06988  0.59594  0.62672  1.0000
  Co  Co9       1.0  0.50000  0.00000  0.50000  1.0000
  Co  Co10      1.0  0.00000  0.00000  0.00000  1.0000
  Co  Co11      1.0  0.50000  0.50000  0.00000  1.0000
  Co  Co12      1.0  0.00000  0.50000  0.50000  1.0000
  O   O1        1.0  0.30390  0.15730  0.59249  1.0000
  O   O2        1.0  0.19610  0.84270  0.09249  1.0000
  O   O3        1.0  0.69610  0.65730  0.90751  1.0000
  O   O4        1.0  0.80390  0.34270  0.40751  1.0000
  O   O5        1.0  0.69610  0.84270  0.40751  1.0000
  O   O6        1.0  0.80390  0.15730  0.90751  1.0000
  O   O7        1.0  0.30390  0.34270  0.09249  1.0000
  O   O8        1.0  0.19610  0.65730  0.59249  1.0000
  O   O9        1.0  0.38110  0.05380  0.54455  1.0000
  O   O10       1.0  0.11890  0.94620  0.04455  1.0000
  O   O11       1.0  0.61890  0.55380  0.95545  1.0000
  O   O12       1.0  0.88110  0.44620  0.45545  1.0000
  O   O13       1.0  0.61890  0.94620  0.45545  1.0000
  O   O14       1.0  0.88110  0.05380  0.95545  1.0000
  O   O15       1.0  0.38110  0.44620  0.04455  1.0000
  O   O16       1.0  0.11890  0.55380  0.54455  1.0000
  O   O17       1.0  0.08600  0.38210  0.48295  1.0000
  O   O18       1.0  0.41400  0.61790  0.98295  1.0000
  O   O19       1.0  0.91400  0.88210  0.01705  1.0000
  O   O20       1.0  0.58600  0.11790  0.51705  1.0000
  O   O21       1.0  0.91400  0.61790  0.51705  1.0000
  O   O22       1.0  0.58600  0.38210  0.01705  1.0000
  O   O23       1.0  0.08600  0.11790  0.98295  1.0000
  O   O24       1.0  0.41400  0.88210  0.48295  1.0000
  O   O25       1.0  0.03840  0.33150  0.40122  1.0000
  O   O26       1.0  0.46160  0.66850  0.90122  1.0000
  O   O27       1.0  0.96160  0.83150  0.09878  1.0000
  O   O28       1.0  0.53840  0.16850  0.59878  1.0000
  O   O29       1.0  0.96160  0.66850  0.59878  1.0000
  O   O30       1.0  0.53840  0.33150  0.09878  1.0000
  O   O31       1.0  0.03840  0.16850  0.90122  1.0000
  O   O32       1.0  0.46160  0.83150  0.40122  1.0000
  O   O33       1.0  0.46750  0.96310  0.64380  1.0000
  O   O34       1.0  0.03250  0.03690  0.14380  1.0000
  O   O35       1.0  0.53250  0.46310  0.85620  1.0000
  O   O36       1.0  0.96750  0.53690  0.35620  1.0000
  O   O37       1.0  0.53250  0.03690  0.35620  1.0000
  O   O38       1.0  0.96750  0.96310  0.85620  1.0000
  O   O39       1.0  0.46750  0.53690  0.14380  1.0000
  O   O40       1.0  0.03250  0.46310  0.64380  1.0000
  O   O41       1.0  0.54110  0.92550  0.56599  1.0000
  O   O42       1.0  0.95890  0.07450  0.06599  1.0000
  O   O43       1.0  0.45890  0.42550  0.93401  1.0000
  O   O44       1.0  0.04110  0.57450  0.43401  1.0000
  O   O45       1.0  0.45890  0.07450  0.43401  1.0000
  O   O46       1.0  0.04110  0.92550  0.93401  1.0000
  O   O47       1.0  0.54110  0.57450  0.06599  1.0000
  O   O48       1.0  0.95890  0.42550  0.56599  1.0000
  O   O49       1.0  0.55890  0.77550  0.80657  1.0000
  O   O50       1.0  0.94110  0.22450  0.30657  1.0000
  O   O51       1.0  0.44110  0.27550  0.69343  1.0000
  O   O52       1.0  0.05890  0.72450  0.19343  1.0000
  O   O53       1.0  0.44110  0.22450  0.19343  1.0000
  O   O54       1.0  0.05890  0.77550  0.69343  1.0000
  O   O55       1.0  0.55890  0.72450  0.30657  1.0000
  O   O56       1.0  0.94110  0.27550  0.80657  1.0000
  O   O57       1.0  0.58540  0.62210  0.79436  1.0000
  O   O58       1.0  0.91460  0.37790  0.29436  1.0000
  O   O59       1.0  0.41460  0.12210  0.70564  1.0000
  O   O60       1.0  0.08540  0.87790  0.20564  1.0000
  O   O61       1.0  0.41460  0.37790  0.20564  1.0000
  O   O62       1.0  0.08540  0.62210  0.70564  1.0000
  O   O63       1.0  0.58540  0.87790  0.29436  1.0000
  O   O64       1.0  0.91460  0.12210  0.79436  1.0000
  C   C1        1.0  0.25070  0.13250  0.50050  1.0000
  C   C2        1.0  0.24930  0.86750  0.00050  1.0000
  C   C3        1.0  0.74930  0.63250  0.99950  1.0000
  C   C4        1.0  0.75070  0.36750  0.49950  1.0000
  C   C5        1.0  0.74930  0.86750  0.49950  1.0000
  C   C6        1.0  0.75070  0.13250  0.99950  1.0000
  C   C7        1.0  0.25070  0.36750  0.00050  1.0000
  C   C8        1.0  0.24930  0.63250  0.50050  1.0000
  C   C9        1.0  0.19690  0.21530  0.49686  1.0000
  C   C10       1.0  0.30310  0.78470  0.99686  1.0000
  C   C11       1.0  0.80310  0.71530  0.00314  1.0000
  C   C12       1.0  0.69690  0.28470  0.50314  1.0000
  C   C13       1.0  0.80310  0.78470  0.50314  1.0000
  C   C14       1.0  0.69690  0.21530  0.00314  1.0000
  C   C15       1.0  0.19690  0.28470  0.99686  1.0000
  C   C16       1.0  0.30310  0.71530  0.49686  1.0000
  H   H1        1.0  0.19680  0.25820  0.52560  1.0000
  H   H2        1.0  0.30320  0.74180  0.02560  1.0000
  H   H3        1.0  0.80320  0.75820  0.97440  1.0000
  H   H4        1.0  0.69680  0.24180  0.47440  1.0000
  H   H5        1.0  0.80320  0.74180  0.47440  1.0000
  H   H6        1.0  0.69680  0.25820  0.97440  1.0000
  H   H7        1.0  0.19680  0.24180  0.02560  1.0000
  H   H8        1.0  0.30320  0.75820  0.52560  1.0000
  C   C17       1.0  0.14340  0.23440  0.45045  1.0000
  C   C18       1.0  0.35660  0.76560  0.95045  1.0000
  C   C19       1.0  0.85660  0.73440  0.04955  1.0000
  C   C20       1.0  0.64340  0.26560  0.54955  1.0000
  C   C21       1.0  0.85660  0.76560  0.54955  1.0000
  C   C22       1.0  0.64340  0.23440  0.04955  1.0000
  C   C23       1.0  0.14340  0.26560  0.95045  1.0000
  C   C24       1.0  0.35660  0.73440  0.45045  1.0000
  C   C25       1.0  0.14290  0.16880  0.40796  1.0000
  C   C26       1.0  0.35710  0.83120  0.90796  1.0000
  C   C27       1.0  0.85710  0.66880  0.09204  1.0000
  C   C28       1.0  0.64290  0.33120  0.59204  1.0000
  C   C29       1.0  0.85710  0.83120  0.59204  1.0000
  C   C30       1.0  0.64290  0.16880  0.09204  1.0000
  C   C31       1.0  0.14290  0.33120  0.90796  1.0000
  C   C32       1.0  0.35710  0.66880  0.40796  1.0000
  H   H9        1.0  0.10750  0.18120  0.37660  1.0000
  H   H10       1.0  0.39250  0.81880  0.87660  1.0000
  H   H11       1.0  0.89250  0.68120  0.12340  1.0000
  H   H12       1.0  0.60750  0.31880  0.62340  1.0000
  H   H13       1.0  0.89250  0.81880  0.62340  1.0000
  H   H14       1.0  0.60750  0.18120  0.12340  1.0000
  H   H15       1.0  0.10750  0.31880  0.87660  1.0000
  H   H16       1.0  0.39250  0.68120  0.37660  1.0000
  C   C33       1.0  0.19460  0.08600  0.41220  1.0000
  C   C34       1.0  0.30540  0.91400  0.91220  1.0000
  C   C35       1.0  0.80540  0.58600  0.08780  1.0000
  C   C36       1.0  0.69460  0.41400  0.58780  1.0000
  C   C37       1.0  0.80540  0.91400  0.58780  1.0000
  C   C38       1.0  0.69460  0.08600  0.08780  1.0000
  C   C39       1.0  0.19460  0.41400  0.91220  1.0000
  C   C40       1.0  0.30540  0.58600  0.41220  1.0000
  H   H17       1.0  0.19260  0.04210  0.38400  1.0000
  H   H18       1.0  0.30740  0.95790  0.88400  1.0000
  H   H19       1.0  0.80740  0.54210  0.11600  1.0000
  H   H20       1.0  0.69260  0.45790  0.61600  1.0000
  H   H21       1.0  0.80740  0.95790  0.61600  1.0000
  H   H22       1.0  0.69260  0.04210  0.11600  1.0000
  H   H23       1.0  0.19260  0.45790  0.88400  1.0000
  H   H24       1.0  0.30740  0.54210  0.38400  1.0000
  C   C41       1.0  0.24940  0.06730  0.45792  1.0000
  C   C42       1.0  0.25060  0.93270  0.95792  1.0000
  C   C43       1.0  0.75060  0.56730  0.04208  1.0000
  C   C44       1.0  0.74940  0.43270  0.54208  1.0000
  C   C45       1.0  0.75060  0.93270  0.54208  1.0000
  C   C46       1.0  0.74940  0.06730  0.04208  1.0000
  C   C47       1.0  0.24940  0.43270  0.95792  1.0000
  C   C48       1.0  0.25060  0.56730  0.45792  1.0000
  H   H25       1.0  0.28510  0.01170  0.46020  1.0000
  H   H26       1.0  0.21490  0.98830  0.96020  1.0000
  H   H27       1.0  0.71490  0.51170  0.03980  1.0000
  H   H28       1.0  0.78510  0.48830  0.53980  1.0000
  H   H29       1.0  0.71490  0.98830  0.53980  1.0000
  H   H30       1.0  0.78510  0.01170  0.03980  1.0000
  H   H31       1.0  0.28510  0.48830  0.96020  1.0000
  H   H32       1.0  0.21490  0.51170  0.46020  1.0000
  C   C49       1.0  0.31510  0.11460  0.54806  1.0000
  C   C50       1.0  0.18490  0.88540  0.04806  1.0000
  C   C51       1.0  0.68490  0.61460  0.95194  1.0000
  C   C52       1.0  0.81510  0.38540  0.45194  1.0000
  C   C53       1.0  0.68490  0.88540  0.45194  1.0000
  C   C54       1.0  0.81510  0.11460  0.95194  1.0000
  C   C55       1.0  0.31510  0.38540  0.04806  1.0000
  C   C56       1.0  0.18490  0.61460  0.54806  1.0000
  C   C57       1.0  0.08470  0.32420  0.44506  1.0000
  C   C58       1.0  0.41530  0.67580  0.94506  1.0000
  C   C59       1.0  0.91530  0.82420  0.05494  1.0000
  C   C60       1.0  0.58470  0.17580  0.55494  1.0000
  C   C61       1.0  0.91530  0.67580  0.55494  1.0000
  C   C62       1.0  0.58470  0.32420  0.05494  1.0000
  C   C63       1.0  0.08470  0.17580  0.94506  1.0000
  C   C64       1.0  0.41530  0.82420  0.44506  1.0000
  C   C65       1.0  0.55290  0.81860  0.63812  1.0000
  C   C66       1.0  0.94710  0.18140  0.13812  1.0000
  C   C67       1.0  0.44710  0.31860  0.86188  1.0000
  C   C68       1.0  0.05290  0.68140  0.36188  1.0000
  C   C69       1.0  0.44710  0.18140  0.36188  1.0000
  C   C70       1.0  0.05290  0.81860  0.86188  1.0000
  C   C71       1.0  0.55290  0.68140  0.13812  1.0000
  C   C72       1.0  0.94710  0.31860  0.63812  1.0000
  C   C73       1.0  0.54670  0.80280  0.69384  1.0000
  C   C74       1.0  0.95330  0.19720  0.19384  1.0000
  C   C75       1.0  0.45330  0.30280  0.80616  1.0000
  C   C76       1.0  0.04670  0.69720  0.30616  1.0000
  C   C77       1.0  0.45330  0.19720  0.30616  1.0000
  C   C78       1.0  0.04670  0.80280  0.80616  1.0000
  C   C79       1.0  0.54670  0.69720  0.19384  1.0000
  C   C80       1.0  0.95330  0.30280  0.69384  1.0000
  H   H33       1.0  0.51900  0.84850  0.71610  1.0000
  H   H34       1.0  0.98100  0.15150  0.21610  1.0000
  H   H35       1.0  0.48100  0.34850  0.78390  1.0000
  H   H36       1.0  0.01900  0.65150  0.28390  1.0000
  H   H37       1.0  0.48100  0.15150  0.28390  1.0000
  H   H38       1.0  0.01900  0.84850  0.78390  1.0000
  H   H39       1.0  0.51900  0.65150  0.21610  1.0000
  H   H40       1.0  0.98100  0.34850  0.71610  1.0000
  C   C81       1.0  0.58150  0.71980  0.71656  1.0000
  C   C82       1.0  0.91850  0.28020  0.21656  1.0000
  C   C83       1.0  0.41850  0.21980  0.78344  1.0000
  C   C84       1.0  0.08150  0.78020  0.28344  1.0000
  C   C85       1.0  0.41850  0.28020  0.28344  1.0000
  C   C86       1.0  0.08150  0.71980  0.78344  1.0000
  C   C87       1.0  0.58150  0.78020  0.21656  1.0000
  C   C88       1.0  0.91850  0.21980  0.71656  1.0000
  C   C89       1.0  0.62220  0.65160  0.68330  1.0000
  C   C90       1.0  0.87780  0.34840  0.18330  1.0000
  C   C91       1.0  0.37780  0.15160  0.81670  1.0000
  C   C92       1.0  0.12220  0.84840  0.31670  1.0000
  C   C93       1.0  0.37780  0.34840  0.31670  1.0000
  C   C94       1.0  0.12220  0.65160  0.81670  1.0000
  C   C95       1.0  0.62220  0.84840  0.18330  1.0000
  C   C96       1.0  0.87780  0.15160  0.68330  1.0000
  H   H41       1.0  0.64530  0.59550  0.69820  1.0000
  H   H42       1.0  0.85470  0.40450  0.19820  1.0000
  H   H43       1.0  0.35470  0.09550  0.80180  1.0000
  H   H44       1.0  0.14530  0.90450  0.30180  1.0000
  H   H45       1.0  0.35470  0.40450  0.30180  1.0000
  H   H46       1.0  0.14530  0.59550  0.80180  1.0000
  H   H47       1.0  0.64530  0.90450  0.19820  1.0000
  H   H48       1.0  0.85470  0.09550  0.69820  1.0000
  C   C97       1.0  0.62870  0.66730  0.62750  1.0000
  C   C98       1.0  0.87130  0.33270  0.12750  1.0000
  C   C99       1.0  0.37130  0.16730  0.87250  1.0000
  C   C100      1.0  0.12870  0.83270  0.37250  1.0000
  C   C101      1.0  0.37130  0.33270  0.37250  1.0000
  C   C102      1.0  0.12870  0.66730  0.87250  1.0000
  C   C103      1.0  0.62870  0.83270  0.12750  1.0000
  C   C104      1.0  0.87130  0.16730  0.62750  1.0000
  H   H49       1.0  0.65550  0.62110  0.60520  1.0000
  H   H50       1.0  0.84450  0.37890  0.10520  1.0000
  H   H51       1.0  0.34450  0.12110  0.89480  1.0000
  H   H52       1.0  0.15550  0.87890  0.39480  1.0000
  H   H53       1.0  0.34450  0.37890  0.39480  1.0000
  H   H54       1.0  0.15550  0.62110  0.89480  1.0000
  H   H55       1.0  0.65550  0.87890  0.10520  1.0000
  H   H56       1.0  0.84450  0.12110  0.60520  1.0000
  C   C105      1.0  0.59550  0.75110  0.60490  1.0000
  C   C106      1.0  0.90450  0.24890  0.10490  1.0000
  C   C107      1.0  0.40450  0.25110  0.89510  1.0000
  C   C108      1.0  0.09550  0.74890  0.39510  1.0000
  C   C109      1.0  0.40450  0.24890  0.39510  1.0000
  C   C110      1.0  0.09550  0.75110  0.89510  1.0000
  C   C111      1.0  0.59550  0.74890  0.10490  1.0000
  C   C112      1.0  0.90450  0.25110  0.60490  1.0000
  H   H57       1.0  0.60170  0.76210  0.56780  1.0000
  H   H58       1.0  0.89830  0.23790  0.06780  1.0000
  H   H59       1.0  0.39830  0.26210  0.93220  1.0000
  H   H60       1.0  0.10170  0.73790  0.43220  1.0000
  H   H61       1.0  0.39830  0.23790  0.43220  1.0000
  H   H62       1.0  0.10170  0.76210  0.93220  1.0000
  H   H63       1.0  0.60170  0.73790  0.06780  1.0000
  H   H64       1.0  0.89830  0.26210  0.56780  1.0000
  C   C113      1.0  0.51730  0.90940  0.61367  1.0000
  C   C114      1.0  0.98270  0.09060  0.11367  1.0000
  C   C115      1.0  0.48270  0.40940  0.88633  1.0000
  C   C116      1.0  0.01730  0.59060  0.38633  1.0000
  C   C117      1.0  0.48270  0.09060  0.38633  1.0000
  C   C118      1.0  0.01730  0.90940  0.88633  1.0000
  C   C119      1.0  0.51730  0.59060  0.11367  1.0000
  C   C120      1.0  0.98270  0.40940  0.61367  1.0000
  C   C121      1.0  0.57480  0.70600  0.77724  1.0000
  C   C122      1.0  0.92520  0.29400  0.27724  1.0000
  C   C123      1.0  0.42520  0.20600  0.72276  1.0000
  C   C124      1.0  0.07480  0.79400  0.22276  1.0000
  C   C125      1.0  0.42520  0.29400  0.22276  1.0000
  C   C126      1.0  0.07480  0.70600  0.72276  1.0000
  C   C127      1.0  0.57480  0.79400  0.27724  1.0000
  C   C128      1.0  0.92520  0.20600  0.77724  1.0000
