data_image0
_chemical_formula_structural       Zn12O64C16H8C16H8C8H8C8H8C32H8C16H8C8H8C8H8C16
_chemical_formula_sum              "Zn12 O64 C128 H64"
_cell_length_a       14.085
_cell_length_b       14.019
_cell_length_c       24.13
_cell_angle_alpha    90
_cell_angle_beta     90
_cell_angle_gamma    90

_space_group_name_H-M_alt    "P 1"
_space_group_IT_number       1

loop_
  _space_group_symop_operation_xyz
  'x, y, z'

loop_
  _atom_site_type_symbol
  _atom_site_label
  _atom_site_symmetry_multiplicity
  _atom_site_fract_x
  _atom_site_fract_y
  _atom_site_fract_z
  _atom_site_occupancy
  Zn  Zn1       1.0  0.43961  0.09067  0.37345  1.0000
  Zn  Zn2       1.0  0.06039  0.90933  0.87345  1.0000
  Zn  Zn3       1.0  0.56039  0.59067  0.12655  1.0000
  Zn  Zn4       1.0  0.93961  0.40933  0.62655  1.0000
  Zn  Zn5       1.0  0.56039  0.90933  0.62655  1.0000
  Zn  Zn6       1.0  0.93961  0.09067  0.12655  1.0000
  Zn  Zn7       1.0  0.43961  0.40933  0.87345  1.0000
  Zn  Zn8       1.0  0.06039  0.59067  0.37345  1.0000
  Zn  Zn9       1.0  0.50000  0.00000  0.50000  1.0000
  Zn  Zn10      1.0  0.00000  0.00000  0.00000  1.0000
  Zn  Zn11      1.0  0.50000  0.50000  0.00000  1.0000
  Zn  Zn12      1.0  0.00000  0.50000  0.50000  1.0000
  O   O1        1.0  0.54910  0.16400  0.39410  1.0000
  O   O2        1.0  0.95090  0.83600  0.89410  1.0000
  O   O3        1.0  0.45090  0.66400  0.10590  1.0000
  O   O4        1.0  0.04910  0.33600  0.60590  1.0000
  O   O5        1.0  0.45090  0.83600  0.60590  1.0000
  O   O6        1.0  0.04910  0.16400  0.10590  1.0000
  O   O7        1.0  0.54910  0.33600  0.89410  1.0000
  O   O8        1.0  0.95090  0.66400  0.39410  1.0000
  O   O9        1.0  0.59100  0.11330  0.47780  1.0000
  O   O10       1.0  0.90900  0.88670  0.97780  1.0000
  O   O11       1.0  0.40900  0.61330  0.02220  1.0000
  O   O12       1.0  0.09100  0.38670  0.52220  1.0000
  O   O13       1.0  0.40900  0.88670  0.52220  1.0000
  O   O14       1.0  0.09100  0.11330  0.02220  1.0000
  O   O15       1.0  0.59100  0.38670  0.97780  1.0000
  O   O16       1.0  0.90900  0.61330  0.47780  1.0000
  O   O17       1.0  0.80700  0.32520  0.59170  1.0000
  O   O18       1.0  0.69300  0.67480  0.09170  1.0000
  O   O19       1.0  0.19300  0.82520  0.90830  1.0000
  O   O20       1.0  0.30700  0.17480  0.40830  1.0000
  O   O21       1.0  0.19300  0.67480  0.40830  1.0000
  O   O22       1.0  0.30700  0.32520  0.90830  1.0000
  O   O23       1.0  0.80700  0.17480  0.09170  1.0000
  O   O24       1.0  0.69300  0.82520  0.59170  1.0000
  O   O25       1.0  0.87890  0.44160  0.55040  1.0000
  O   O26       1.0  0.62110  0.55840  0.05040  1.0000
  O   O27       1.0  0.12110  0.94160  0.94960  1.0000
  O   O28       1.0  0.37890  0.05840  0.44960  1.0000
  O   O29       1.0  0.12110  0.55840  0.44960  1.0000
  O   O30       1.0  0.37890  0.44160  0.94960  1.0000
  O   O31       1.0  0.87890  0.05840  0.05040  1.0000
  O   O32       1.0  0.62110  0.94160  0.55040  1.0000
  O   O33       1.0  0.47980  0.95830  0.35570  1.0000
  O   O34       1.0  0.02020  0.04170  0.85570  1.0000
  O   O35       1.0  0.52020  0.45830  0.14430  1.0000
  O   O36       1.0  0.97980  0.54170  0.64430  1.0000
  O   O37       1.0  0.52020  0.04170  0.64430  1.0000
  O   O38       1.0  0.97980  0.95830  0.14430  1.0000
  O   O39       1.0  0.47980  0.54170  0.85570  1.0000
  O   O40       1.0  0.02020  0.45830  0.35570  1.0000
  O   O41       1.0  0.53600  0.91400  0.43830  1.0000
  O   O42       1.0  0.96400  0.08600  0.93830  1.0000
  O   O43       1.0  0.46400  0.41400  0.06170  1.0000
  O   O44       1.0  0.03600  0.58600  0.56170  1.0000
  O   O45       1.0  0.46400  0.08600  0.56170  1.0000
  O   O46       1.0  0.03600  0.91400  0.06170  1.0000
  O   O47       1.0  0.53600  0.58600  0.93830  1.0000
  O   O48       1.0  0.96400  0.41400  0.43830  1.0000
  O   O49       1.0  0.59330  0.61330  0.20370  1.0000
  O   O50       1.0  0.90670  0.38670  0.70370  1.0000
  O   O51       1.0  0.40670  0.11330  0.29630  1.0000
  O   O52       1.0  0.09330  0.88670  0.79630  1.0000
  O   O53       1.0  0.40670  0.38670  0.79630  1.0000
  O   O54       1.0  0.09330  0.61330  0.29630  1.0000
  O   O55       1.0  0.59330  0.88670  0.70370  1.0000
  O   O56       1.0  0.90670  0.11330  0.20370  1.0000
  O   O57       1.0  0.56330  0.76830  0.19310  1.0000
  O   O58       1.0  0.93670  0.23170  0.69310  1.0000
  O   O59       1.0  0.43670  0.26830  0.30690  1.0000
  O   O60       1.0  0.06330  0.73170  0.80690  1.0000
  O   O61       1.0  0.43670  0.23170  0.80690  1.0000
  O   O62       1.0  0.06330  0.76830  0.30690  1.0000
  O   O63       1.0  0.56330  0.73170  0.69310  1.0000
  O   O64       1.0  0.93670  0.26830  0.19310  1.0000
  C   C1        1.0  0.65060  0.25940  0.44600  1.0000
  C   C2        1.0  0.84940  0.74060  0.94600  1.0000
  C   C3        1.0  0.34940  0.75940  0.05400  1.0000
  C   C4        1.0  0.15060  0.24060  0.55400  1.0000
  C   C5        1.0  0.34940  0.74060  0.55400  1.0000
  C   C6        1.0  0.15060  0.25940  0.05400  1.0000
  C   C7        1.0  0.65060  0.24060  0.94600  1.0000
  C   C8        1.0  0.84940  0.75940  0.44600  1.0000
  C   C9        1.0  0.70220  0.27860  0.49370  1.0000
  C   C10       1.0  0.79780  0.72140  0.99370  1.0000
  C   C11       1.0  0.29780  0.77860  0.00630  1.0000
  C   C12       1.0  0.20220  0.22140  0.50630  1.0000
  C   C13       1.0  0.29780  0.72140  0.50630  1.0000
  C   C14       1.0  0.20220  0.27860  0.00630  1.0000
  C   C15       1.0  0.70220  0.22140  0.99370  1.0000
  C   C16       1.0  0.79780  0.77860  0.49370  1.0000
  H   H1        1.0  0.70030  0.23520  0.52290  1.0000
  H   H2        1.0  0.79970  0.76480  0.02290  1.0000
  H   H3        1.0  0.29970  0.73520  0.97710  1.0000
  H   H4        1.0  0.20030  0.26480  0.47710  1.0000
  H   H5        1.0  0.29970  0.76480  0.47710  1.0000
  H   H6        1.0  0.20030  0.23520  0.97710  1.0000
  H   H7        1.0  0.70030  0.26480  0.02290  1.0000
  H   H8        1.0  0.79970  0.73520  0.52290  1.0000
  C   C17       1.0  0.75660  0.36110  0.49920  1.0000
  C   C18       1.0  0.74340  0.63890  0.99920  1.0000
  C   C19       1.0  0.24340  0.86110  0.00080  1.0000
  C   C20       1.0  0.25660  0.13890  0.50080  1.0000
  C   C21       1.0  0.24340  0.63890  0.50080  1.0000
  C   C22       1.0  0.25660  0.36110  0.00080  1.0000
  C   C23       1.0  0.75660  0.13890  0.99920  1.0000
  C   C24       1.0  0.74340  0.86110  0.49920  1.0000
  C   C25       1.0  0.75590  0.42640  0.45720  1.0000
  C   C26       1.0  0.74410  0.57360  0.95720  1.0000
  C   C27       1.0  0.24410  0.92640  0.04280  1.0000
  C   C28       1.0  0.25590  0.07360  0.54280  1.0000
  C   C29       1.0  0.24410  0.57360  0.54280  1.0000
  C   C30       1.0  0.25590  0.42640  0.04280  1.0000
  C   C31       1.0  0.75590  0.07360  0.95720  1.0000
  C   C32       1.0  0.74410  0.92640  0.45720  1.0000
  H   H9        1.0  0.78930  0.48320  0.46100  1.0000
  H   H10       1.0  0.71070  0.51680  0.96100  1.0000
  H   H11       1.0  0.21070  0.98320  0.03900  1.0000
  H   H12       1.0  0.28930  0.01680  0.53900  1.0000
  H   H13       1.0  0.21070  0.51680  0.53900  1.0000
  H   H14       1.0  0.28930  0.48320  0.03900  1.0000
  H   H15       1.0  0.78930  0.01680  0.96100  1.0000
  H   H16       1.0  0.71070  0.98320  0.46100  1.0000
  C   C33       1.0  0.70610  0.40860  0.40910  1.0000
  C   C34       1.0  0.79390  0.59140  0.90910  1.0000
  C   C35       1.0  0.29390  0.90860  0.09090  1.0000
  C   C36       1.0  0.20610  0.09140  0.59090  1.0000
  C   C37       1.0  0.29390  0.59140  0.59090  1.0000
  C   C38       1.0  0.20610  0.40860  0.09090  1.0000
  C   C39       1.0  0.70610  0.09140  0.90910  1.0000
  C   C40       1.0  0.79390  0.90860  0.40910  1.0000
  H   H17       1.0  0.70730  0.45300  0.38040  1.0000
  H   H18       1.0  0.79270  0.54700  0.88040  1.0000
  H   H19       1.0  0.29270  0.95300  0.11960  1.0000
  H   H20       1.0  0.20730  0.04700  0.61960  1.0000
  H   H21       1.0  0.29270  0.54700  0.61960  1.0000
  H   H22       1.0  0.20730  0.45300  0.11960  1.0000
  H   H23       1.0  0.70730  0.04700  0.88040  1.0000
  H   H24       1.0  0.79270  0.95300  0.38040  1.0000
  C   C41       1.0  0.65470  0.32630  0.40320  1.0000
  C   C42       1.0  0.84530  0.67370  0.90320  1.0000
  C   C43       1.0  0.34530  0.82630  0.09680  1.0000
  C   C44       1.0  0.15470  0.17370  0.59680  1.0000
  C   C45       1.0  0.34530  0.67370  0.59680  1.0000
  C   C46       1.0  0.15470  0.32630  0.09680  1.0000
  C   C47       1.0  0.65470  0.17370  0.90320  1.0000
  C   C48       1.0  0.84530  0.82630  0.40320  1.0000
  H   H25       1.0  0.62220  0.31480  0.37030  1.0000
  H   H26       1.0  0.87780  0.68520  0.87030  1.0000
  H   H27       1.0  0.37780  0.81480  0.12970  1.0000
  H   H28       1.0  0.12220  0.18520  0.62970  1.0000
  H   H29       1.0  0.37780  0.68520  0.62970  1.0000
  H   H30       1.0  0.12220  0.31480  0.12970  1.0000
  H   H31       1.0  0.62220  0.18520  0.87030  1.0000
  H   H32       1.0  0.87780  0.81480  0.37030  1.0000
  C   C49       1.0  0.59200  0.17160  0.43900  1.0000
  C   C50       1.0  0.90800  0.82840  0.93900  1.0000
  C   C51       1.0  0.40800  0.67160  0.06100  1.0000
  C   C52       1.0  0.09200  0.32840  0.56100  1.0000
  C   C53       1.0  0.40800  0.82840  0.56100  1.0000
  C   C54       1.0  0.09200  0.17160  0.06100  1.0000
  C   C55       1.0  0.59200  0.32840  0.93900  1.0000
  C   C56       1.0  0.90800  0.67160  0.43900  1.0000
  C   C57       1.0  0.81720  0.37620  0.55080  1.0000
  C   C58       1.0  0.68280  0.62380  0.05080  1.0000
  C   C59       1.0  0.18280  0.87620  0.94920  1.0000
  C   C60       1.0  0.31720  0.12380  0.44920  1.0000
  C   C61       1.0  0.18280  0.62380  0.44920  1.0000
  C   C62       1.0  0.31720  0.37620  0.94920  1.0000
  C   C63       1.0  0.81720  0.12380  0.05080  1.0000
  C   C64       1.0  0.68280  0.87620  0.55080  1.0000
  C   C65       1.0  0.55540  0.80910  0.36380  1.0000
  C   C66       1.0  0.94460  0.19090  0.86380  1.0000
  C   C67       1.0  0.44460  0.30910  0.13620  1.0000
  C   C68       1.0  0.05540  0.69090  0.63620  1.0000
  C   C69       1.0  0.44460  0.19090  0.63620  1.0000
  C   C70       1.0  0.05540  0.80910  0.13620  1.0000
  C   C71       1.0  0.55540  0.69090  0.86380  1.0000
  C   C72       1.0  0.94460  0.30910  0.36380  1.0000
  C   C73       1.0  0.55220  0.79380  0.30690  1.0000
  C   C74       1.0  0.94780  0.20620  0.80690  1.0000
  C   C75       1.0  0.44780  0.29380  0.19310  1.0000
  C   C76       1.0  0.05220  0.70620  0.69310  1.0000
  C   C77       1.0  0.44780  0.20620  0.69310  1.0000
  C   C78       1.0  0.05220  0.79380  0.19310  1.0000
  C   C79       1.0  0.55220  0.70620  0.80690  1.0000
  C   C80       1.0  0.94780  0.29380  0.30690  1.0000
  H   H33       1.0  0.52740  0.84110  0.28400  1.0000
  H   H34       1.0  0.97260  0.15890  0.78400  1.0000
  H   H35       1.0  0.47260  0.34110  0.21600  1.0000
  H   H36       1.0  0.02740  0.65890  0.71600  1.0000
  H   H37       1.0  0.47260  0.15890  0.71600  1.0000
  H   H38       1.0  0.02740  0.84110  0.21600  1.0000
  H   H39       1.0  0.52740  0.65890  0.78400  1.0000
  H   H40       1.0  0.97260  0.34110  0.28400  1.0000
  C   C81       1.0  0.58480  0.71030  0.28360  1.0000
  C   C82       1.0  0.91520  0.28970  0.78360  1.0000
  C   C83       1.0  0.41520  0.21030  0.21640  1.0000
  C   C84       1.0  0.08480  0.78970  0.71640  1.0000
  C   C85       1.0  0.41520  0.28970  0.71640  1.0000
  C   C86       1.0  0.08480  0.71030  0.21640  1.0000
  C   C87       1.0  0.58480  0.78970  0.78360  1.0000
  C   C88       1.0  0.91520  0.21030  0.28360  1.0000
  C   C89       1.0  0.62090  0.64150  0.31770  1.0000
  C   C90       1.0  0.87910  0.35850  0.81770  1.0000
  C   C91       1.0  0.37910  0.14150  0.18230  1.0000
  C   C92       1.0  0.12090  0.85850  0.68230  1.0000
  C   C93       1.0  0.37910  0.35850  0.68230  1.0000
  C   C94       1.0  0.12090  0.64150  0.18230  1.0000
  C   C95       1.0  0.62090  0.85850  0.81770  1.0000
  C   C96       1.0  0.87910  0.14150  0.31770  1.0000
  H   H41       1.0  0.64210  0.58420  0.30280  1.0000
  H   H42       1.0  0.85790  0.41580  0.80280  1.0000
  H   H43       1.0  0.35790  0.08420  0.19720  1.0000
  H   H44       1.0  0.14210  0.91580  0.69720  1.0000
  H   H45       1.0  0.35790  0.41580  0.69720  1.0000
  H   H46       1.0  0.14210  0.58420  0.19720  1.0000
  H   H47       1.0  0.64210  0.91580  0.80280  1.0000
  H   H48       1.0  0.85790  0.08420  0.30280  1.0000
  C   C97       1.0  0.62620  0.65640  0.37400  1.0000
  C   C98       1.0  0.87380  0.34360  0.87400  1.0000
  C   C99       1.0  0.37380  0.15640  0.12600  1.0000
  C   C100      1.0  0.12620  0.84360  0.62600  1.0000
  C   C101      1.0  0.37380  0.34360  0.62600  1.0000
  C   C102      1.0  0.12620  0.65640  0.12600  1.0000
  C   C103      1.0  0.62620  0.84360  0.87400  1.0000
  C   C104      1.0  0.87380  0.15640  0.37400  1.0000
  H   H49       1.0  0.65380  0.61040  0.39660  1.0000
  H   H50       1.0  0.84620  0.38960  0.89660  1.0000
  H   H51       1.0  0.34620  0.11040  0.10340  1.0000
  H   H52       1.0  0.15380  0.88960  0.60340  1.0000
  H   H53       1.0  0.34620  0.38960  0.60340  1.0000
  H   H54       1.0  0.15380  0.61040  0.10340  1.0000
  H   H55       1.0  0.65380  0.88960  0.89660  1.0000
  H   H56       1.0  0.84620  0.11040  0.39660  1.0000
  C   C105      1.0  0.59080  0.73920  0.39710  1.0000
  C   C106      1.0  0.90920  0.26080  0.89710  1.0000
  C   C107      1.0  0.40920  0.23920  0.10290  1.0000
  C   C108      1.0  0.09080  0.76080  0.60290  1.0000
  C   C109      1.0  0.40920  0.26080  0.60290  1.0000
  C   C110      1.0  0.09080  0.73920  0.10290  1.0000
  C   C111      1.0  0.59080  0.76080  0.89710  1.0000
  C   C112      1.0  0.90920  0.23920  0.39710  1.0000
  H   H57       1.0  0.59110  0.74720  0.43540  1.0000
  H   H58       1.0  0.90890  0.25280  0.93540  1.0000
  H   H59       1.0  0.40890  0.24720  0.06460  1.0000
  H   H60       1.0  0.09110  0.75280  0.56460  1.0000
  H   H61       1.0  0.40890  0.25280  0.56460  1.0000
  H   H62       1.0  0.09110  0.74720  0.06460  1.0000
  H   H63       1.0  0.59110  0.75280  0.93540  1.0000
  H   H64       1.0  0.90890  0.24720  0.43540  1.0000
  C   C113      1.0  0.52080  0.90080  0.38800  1.0000
  C   C114      1.0  0.97920  0.09920  0.88800  1.0000
  C   C115      1.0  0.47920  0.40080  0.11200  1.0000
  C   C116      1.0  0.02080  0.59920  0.61200  1.0000
  C   C117      1.0  0.47920  0.09920  0.61200  1.0000
  C   C118      1.0  0.02080  0.90080  0.11200  1.0000
  C   C119      1.0  0.52080  0.59920  0.88800  1.0000
  C   C120      1.0  0.97920  0.40080  0.38800  1.0000
  C   C121      1.0  0.58040  0.69790  0.22250  1.0000
  C   C122      1.0  0.91960  0.30210  0.72250  1.0000
  C   C123      1.0  0.41960  0.19790  0.27750  1.0000
  C   C124      1.0  0.08040  0.80210  0.77750  1.0000
  C   C125      1.0  0.41960  0.30210  0.77750  1.0000
  C   C126      1.0  0.08040  0.69790  0.27750  1.0000
  C   C127      1.0  0.58040  0.80210  0.72250  1.0000
  C   C128      1.0  0.91960  0.19790  0.22250  1.0000
