data_image0
_chemical_formula_structural       Zn8Cl8O32C16H8C16H8C8H8C8H8C16
_chemical_formula_sum              "Zn8 Cl8 O32 C64 H32"
_cell_length_a       13.6934
_cell_length_b       15.0491
_cell_length_c       15.9793
_cell_angle_alpha    90
_cell_angle_beta     90
_cell_angle_gamma    90

_space_group_name_H-M_alt    "P 1"
_space_group_IT_number       1

loop_
  _space_group_symop_operation_xyz
  'x, y, z'

loop_
  _atom_site_type_symbol
  _atom_site_label
  _atom_site_symmetry_multiplicity
  _atom_site_fract_x
  _atom_site_fract_y
  _atom_site_fract_z
  _atom_site_occupancy
  Zn  Zn1       1.0  0.51984  0.38490  0.56147  1.0000
  Zn  Zn2       1.0  0.98016  0.61510  0.06147  1.0000
  Zn  Zn3       1.0  0.48016  0.88490  0.93853  1.0000
  Zn  Zn4       1.0  0.01984  0.11510  0.43853  1.0000
  Zn  Zn5       1.0  0.48016  0.61510  0.43853  1.0000
  Zn  Zn6       1.0  0.01984  0.38490  0.93853  1.0000
  Zn  Zn7       1.0  0.51984  0.11510  0.06147  1.0000
  Zn  Zn8       1.0  0.98016  0.88490  0.56147  1.0000
  Cl  Cl1       1.0  0.52236  0.42548  0.69438  1.0000
  Cl  Cl2       1.0  0.97764  0.57452  0.19438  1.0000
  Cl  Cl3       1.0  0.47764  0.92548  0.80562  1.0000
  Cl  Cl4       1.0  0.02236  0.07452  0.30562  1.0000
  Cl  Cl5       1.0  0.47764  0.57452  0.30562  1.0000
  Cl  Cl6       1.0  0.02236  0.42548  0.80562  1.0000
  Cl  Cl7       1.0  0.52236  0.07452  0.19438  1.0000
  Cl  Cl8       1.0  0.97764  0.92548  0.69438  1.0000
  O   O1        1.0  0.58700  0.27273  0.53878  1.0000
  O   O2        1.0  0.91300  0.72727  0.03878  1.0000
  O   O3        1.0  0.41300  0.77273  0.96122  1.0000
  O   O4        1.0  0.08700  0.22727  0.46122  1.0000
  O   O5        1.0  0.41300  0.72727  0.46122  1.0000
  O   O6        1.0  0.08700  0.27273  0.96122  1.0000
  O   O7        1.0  0.58700  0.22727  0.03878  1.0000
  O   O8        1.0  0.91300  0.77273  0.53878  1.0000
  O   O9        1.0  0.46096  0.20699  0.59869  1.0000
  O   O10       1.0  0.03904  0.79301  0.09869  1.0000
  O   O11       1.0  0.53904  0.70699  0.90131  1.0000
  O   O12       1.0  0.96096  0.29301  0.40131  1.0000
  O   O13       1.0  0.53904  0.79301  0.40131  1.0000
  O   O14       1.0  0.96096  0.20699  0.90131  1.0000
  O   O15       1.0  0.46096  0.29301  0.09869  1.0000
  O   O16       1.0  0.03904  0.70699  0.59869  1.0000
  O   O17       1.0  0.89054  0.96030  0.49349  1.0000
  O   O18       1.0  0.60946  0.03970  0.99349  1.0000
  O   O19       1.0  0.10946  0.46030  0.00651  1.0000
  O   O20       1.0  0.39054  0.53970  0.50651  1.0000
  O   O21       1.0  0.10946  0.03970  0.50651  1.0000
  O   O22       1.0  0.39054  0.96030  0.00651  1.0000
  O   O23       1.0  0.89054  0.53970  0.99349  1.0000
  O   O24       1.0  0.60946  0.46030  0.49349  1.0000
  O   O25       1.0  0.89060  0.10802  0.49112  1.0000
  O   O26       1.0  0.60940  0.89198  0.99112  1.0000
  O   O27       1.0  0.10940  0.60802  0.00888  1.0000
  O   O28       1.0  0.39060  0.39198  0.50888  1.0000
  O   O29       1.0  0.10940  0.89198  0.50888  1.0000
  O   O30       1.0  0.39060  0.10802  0.00888  1.0000
  O   O31       1.0  0.89060  0.39198  0.99112  1.0000
  O   O32       1.0  0.60940  0.60802  0.49112  1.0000
  C   C1        1.0  0.59870  0.11855  0.56390  1.0000
  C   C2        1.0  0.90130  0.88145  0.06390  1.0000
  C   C3        1.0  0.40130  0.61855  0.93610  1.0000
  C   C4        1.0  0.09870  0.38145  0.43610  1.0000
  C   C5        1.0  0.40130  0.88145  0.43610  1.0000
  C   C6        1.0  0.09870  0.11855  0.93610  1.0000
  C   C7        1.0  0.59870  0.38145  0.06390  1.0000
  C   C8        1.0  0.90130  0.61855  0.56390  1.0000
  C   C9        1.0  0.69477  0.11588  0.53644  1.0000
  C   C10       1.0  0.80523  0.88412  0.03644  1.0000
  C   C11       1.0  0.30523  0.61588  0.96356  1.0000
  C   C12       1.0  0.19477  0.38412  0.46356  1.0000
  C   C13       1.0  0.30523  0.88412  0.46356  1.0000
  C   C14       1.0  0.19477  0.11588  0.96356  1.0000
  C   C15       1.0  0.69477  0.38412  0.03644  1.0000
  C   C16       1.0  0.80523  0.61588  0.53644  1.0000
  H   H1        1.0  0.72530  0.16810  0.51960  1.0000
  H   H2        1.0  0.77470  0.83190  0.01960  1.0000
  H   H3        1.0  0.27470  0.66810  0.98040  1.0000
  H   H4        1.0  0.22530  0.33190  0.48040  1.0000
  H   H5        1.0  0.27470  0.83190  0.48040  1.0000
  H   H6        1.0  0.22530  0.16810  0.98040  1.0000
  H   H7        1.0  0.72530  0.33190  0.01960  1.0000
  H   H8        1.0  0.77470  0.66810  0.51960  1.0000
  C   C17       1.0  0.74610  0.03636  0.53379  1.0000
  C   C18       1.0  0.75390  0.96364  0.03379  1.0000
  C   C19       1.0  0.25390  0.53636  0.96621  1.0000
  C   C20       1.0  0.24610  0.46364  0.46621  1.0000
  C   C21       1.0  0.25390  0.96364  0.46621  1.0000
  C   C22       1.0  0.24610  0.03636  0.96621  1.0000
  C   C23       1.0  0.74610  0.46364  0.03379  1.0000
  C   C24       1.0  0.75390  0.53636  0.53379  1.0000
  C   C25       1.0  0.70010  0.95860  0.55880  1.0000
  C   C26       1.0  0.79990  0.04140  0.05880  1.0000
  C   C27       1.0  0.29990  0.45860  0.94120  1.0000
  C   C28       1.0  0.20010  0.54140  0.44120  1.0000
  C   C29       1.0  0.29990  0.04140  0.44120  1.0000
  C   C30       1.0  0.20010  0.95860  0.94120  1.0000
  C   C31       1.0  0.70010  0.54140  0.05880  1.0000
  C   C32       1.0  0.79990  0.45860  0.55880  1.0000
  H   H9        1.0  0.73370  0.90490  0.55700  1.0000
  H   H10       1.0  0.76630  0.09510  0.05700  1.0000
  H   H11       1.0  0.26630  0.40490  0.94300  1.0000
  H   H12       1.0  0.23370  0.59510  0.44300  1.0000
  H   H13       1.0  0.26630  0.09510  0.44300  1.0000
  H   H14       1.0  0.23370  0.90490  0.94300  1.0000
  H   H15       1.0  0.73370  0.59510  0.05700  1.0000
  H   H16       1.0  0.76630  0.40490  0.55700  1.0000
  C   C33       1.0  0.60490  0.96080  0.58600  1.0000
  C   C34       1.0  0.89510  0.03920  0.08600  1.0000
  C   C35       1.0  0.39510  0.46080  0.91400  1.0000
  C   C36       1.0  0.10490  0.53920  0.41400  1.0000
  C   C37       1.0  0.39510  0.03920  0.41400  1.0000
  C   C38       1.0  0.10490  0.96080  0.91400  1.0000
  C   C39       1.0  0.60490  0.53920  0.08600  1.0000
  C   C40       1.0  0.89510  0.46080  0.58600  1.0000
  H   H17       1.0  0.57400  0.90850  0.60210  1.0000
  H   H18       1.0  0.92600  0.09150  0.10210  1.0000
  H   H19       1.0  0.42600  0.40850  0.89790  1.0000
  H   H20       1.0  0.07400  0.59150  0.39790  1.0000
  H   H21       1.0  0.42600  0.09150  0.39790  1.0000
  H   H22       1.0  0.07400  0.90850  0.89790  1.0000
  H   H23       1.0  0.57400  0.59150  0.10210  1.0000
  H   H24       1.0  0.92600  0.40850  0.60210  1.0000
  C   C41       1.0  0.55540  0.04040  0.58950  1.0000
  C   C42       1.0  0.94460  0.95960  0.08950  1.0000
  C   C43       1.0  0.44460  0.54040  0.91050  1.0000
  C   C44       1.0  0.05540  0.45960  0.41050  1.0000
  C   C45       1.0  0.44460  0.95960  0.41050  1.0000
  C   C46       1.0  0.05540  0.04040  0.91050  1.0000
  C   C47       1.0  0.55540  0.45960  0.08950  1.0000
  C   C48       1.0  0.94460  0.54040  0.58950  1.0000
  H   H25       1.0  0.49160  0.04140  0.60950  1.0000
  H   H26       1.0  0.00840  0.95860  0.10950  1.0000
  H   H27       1.0  0.50840  0.54140  0.89050  1.0000
  H   H28       1.0  0.99160  0.45860  0.39050  1.0000
  H   H29       1.0  0.50840  0.95860  0.39050  1.0000
  H   H30       1.0  0.99160  0.04140  0.89050  1.0000
  H   H31       1.0  0.49160  0.45860  0.10950  1.0000
  H   H32       1.0  0.00840  0.54140  0.60950  1.0000
  C   C49       1.0  0.54440  0.20480  0.56784  1.0000
  C   C50       1.0  0.95560  0.79520  0.06784  1.0000
  C   C51       1.0  0.45560  0.70480  0.93216  1.0000
  C   C52       1.0  0.04440  0.29520  0.43216  1.0000
  C   C53       1.0  0.45560  0.79520  0.43216  1.0000
  C   C54       1.0  0.04440  0.20480  0.93216  1.0000
  C   C55       1.0  0.54440  0.29520  0.06784  1.0000
  C   C56       1.0  0.95560  0.70480  0.56784  1.0000
  C   C57       1.0  0.85000  0.03430  0.50478  1.0000
  C   C58       1.0  0.65000  0.96570  0.00478  1.0000
  C   C59       1.0  0.15000  0.53430  0.99522  1.0000
  C   C60       1.0  0.35000  0.46570  0.49522  1.0000
  C   C61       1.0  0.15000  0.96570  0.49522  1.0000
  C   C62       1.0  0.35000  0.03430  0.99522  1.0000
  C   C63       1.0  0.85000  0.46570  0.00478  1.0000
  C   C64       1.0  0.65000  0.53430  0.50478  1.0000
