data_image0
_chemical_formula_structural       Fe6Cl4O24C8H4C4H4C8H4C4H4C20H4C4H4
_chemical_formula_sum              "Fe6 Cl4 O24 C48 H24"
_cell_length_a       13.434
_cell_length_b       11.284
_cell_length_c       15.127
_cell_angle_alpha    90
_cell_angle_beta     111.01
_cell_angle_gamma    90

_space_group_name_H-M_alt    "P 1"
_space_group_IT_number       1

loop_
  _space_group_symop_operation_xyz
  'x, y, z'

loop_
  _atom_site_type_symbol
  _atom_site_label
  _atom_site_symmetry_multiplicity
  _atom_site_fract_x
  _atom_site_fract_y
  _atom_site_fract_z
  _atom_site_occupancy
  Fe  Fe1       1.0  0.76716  0.09936  0.07018  1.0000
  Fe  Fe2       1.0  0.23284  0.59936  0.42982  1.0000
  Fe  Fe3       1.0  0.23284  0.90064  0.92982  1.0000
  Fe  Fe4       1.0  0.76716  0.40064  0.57018  1.0000
  Fe  Fe5       1.0  0.50000  0.00000  0.00000  1.0000
  Fe  Fe6       1.0  0.50000  0.50000  0.50000  1.0000
  Cl  Cl1       1.0  0.93064  0.19349  0.08833  1.0000
  Cl  Cl2       1.0  0.06936  0.69349  0.41167  1.0000
  Cl  Cl3       1.0  0.06936  0.80651  0.91167  1.0000
  Cl  Cl4       1.0  0.93064  0.30651  0.58833  1.0000
  O   O1        1.0  0.64630  0.99850  0.11720  1.0000
  O   O2        1.0  0.35370  0.49850  0.38280  1.0000
  O   O3        1.0  0.35370  0.00150  0.88280  1.0000
  O   O4        1.0  0.64630  0.50150  0.61720  1.0000
  O   O5        1.0  0.81850  0.97510  0.18310  1.0000
  O   O6        1.0  0.18150  0.47510  0.31690  1.0000
  O   O7        1.0  0.18150  0.02490  0.81690  1.0000
  O   O8        1.0  0.81850  0.52490  0.68310  1.0000
  O   O9        1.0  0.75310  0.51320  0.46320  1.0000
  O   O10       1.0  0.24690  0.01320  0.03680  1.0000
  O   O11       1.0  0.24690  0.48680  0.53680  1.0000
  O   O12       1.0  0.75310  0.98680  0.96320  1.0000
  O   O13       1.0  0.57730  0.54230  0.40570  1.0000
  O   O14       1.0  0.42270  0.04230  0.09430  1.0000
  O   O15       1.0  0.42270  0.45770  0.59430  1.0000
  O   O16       1.0  0.57730  0.95770  0.90570  1.0000
  O   O17       1.0  0.68380  0.24770  0.05770  1.0000
  O   O18       1.0  0.31620  0.74770  0.44230  1.0000
  O   O19       1.0  0.31620  0.75230  0.94230  1.0000
  O   O20       1.0  0.68380  0.25230  0.55770  1.0000
  O   O21       1.0  0.51700  0.18010  0.98580  1.0000
  O   O22       1.0  0.48300  0.68010  0.51420  1.0000
  O   O23       1.0  0.48300  0.81990  0.01420  1.0000
  O   O24       1.0  0.51700  0.31990  0.48580  1.0000
  C   C1        1.0  0.71040  0.84860  0.23760  1.0000
  C   C2        1.0  0.28960  0.34860  0.26240  1.0000
  C   C3        1.0  0.28960  0.15140  0.76240  1.0000
  C   C4        1.0  0.71040  0.65140  0.73760  1.0000
  C   C5        1.0  0.79680  0.78040  0.29060  1.0000
  C   C6        1.0  0.20320  0.28040  0.20940  1.0000
  C   C7        1.0  0.20320  0.21960  0.70940  1.0000
  C   C8        1.0  0.79680  0.71960  0.79060  1.0000
  H   H1        1.0  0.86400  0.79610  0.28870  1.0000
  H   H2        1.0  0.13600  0.29610  0.21130  1.0000
  H   H3        1.0  0.13600  0.20390  0.71130  1.0000
  H   H4        1.0  0.86400  0.70390  0.78870  1.0000
  C   C9        1.0  0.78380  0.68860  0.34640  1.0000
  C   C10       1.0  0.21620  0.18860  0.15360  1.0000
  C   C11       1.0  0.21620  0.31140  0.65360  1.0000
  C   C12       1.0  0.78380  0.81140  0.84640  1.0000
  H   H5        1.0  0.84210  0.64300  0.38190  1.0000
  H   H6        1.0  0.15790  0.14300  0.11810  1.0000
  H   H7        1.0  0.15790  0.35700  0.61810  1.0000
  H   H8        1.0  0.84210  0.85700  0.88190  1.0000
  C   C13       1.0  0.68340  0.66510  0.34930  1.0000
  C   C14       1.0  0.31660  0.16510  0.15070  1.0000
  C   C15       1.0  0.31660  0.33490  0.65070  1.0000
  C   C16       1.0  0.68340  0.83490  0.84930  1.0000
  C   C17       1.0  0.59750  0.73430  0.29630  1.0000
  C   C18       1.0  0.40250  0.23430  0.20370  1.0000
  C   C19       1.0  0.40250  0.26570  0.70370  1.0000
  C   C20       1.0  0.59750  0.76570  0.79630  1.0000
  H   H9        1.0  0.53040  0.71990  0.29880  1.0000
  H   H10       1.0  0.46960  0.21990  0.20120  1.0000
  H   H11       1.0  0.46960  0.28010  0.70120  1.0000
  H   H12       1.0  0.53040  0.78010  0.79880  1.0000
  C   C21       1.0  0.61070  0.82410  0.24020  1.0000
  C   C22       1.0  0.38930  0.32410  0.25980  1.0000
  C   C23       1.0  0.38930  0.17590  0.75980  1.0000
  C   C24       1.0  0.61070  0.67590  0.74020  1.0000
  H   H13       1.0  0.55220  0.86880  0.20370  1.0000
  H   H14       1.0  0.44780  0.36880  0.29630  1.0000
  H   H15       1.0  0.44780  0.13120  0.79630  1.0000
  H   H16       1.0  0.55220  0.63120  0.70370  1.0000
  C   C25       1.0  0.72450  0.94610  0.17480  1.0000
  C   C26       1.0  0.27550  0.44610  0.32520  1.0000
  C   C27       1.0  0.27550  0.05390  0.82520  1.0000
  C   C28       1.0  0.72450  0.55390  0.67480  1.0000
  C   C29       1.0  0.66940  0.56660  0.41100  1.0000
  C   C30       1.0  0.33060  0.06660  0.08900  1.0000
  C   C31       1.0  0.33060  0.43340  0.58900  1.0000
  C   C32       1.0  0.66940  0.93340  0.91100  1.0000
  C   C33       1.0  0.58350  0.26040  0.01810  1.0000
  C   C34       1.0  0.41650  0.76040  0.48190  1.0000
  C   C35       1.0  0.41650  0.73960  0.98190  1.0000
  C   C36       1.0  0.58350  0.23960  0.51810  1.0000
  C   C37       1.0  0.54080  0.38590  0.00910  1.0000
  C   C38       1.0  0.45920  0.88590  0.49090  1.0000
  C   C39       1.0  0.45920  0.61410  0.99090  1.0000
  C   C40       1.0  0.54080  0.11410  0.50910  1.0000
  C   C41       1.0  0.43290  0.40490  0.97120  1.0000
  C   C42       1.0  0.56710  0.90490  0.52880  1.0000
  C   C43       1.0  0.56710  0.59510  0.02880  1.0000
  C   C44       1.0  0.43290  0.09510  0.47120  1.0000
  H   H17       1.0  0.38690  0.34040  0.95270  1.0000
  H   H18       1.0  0.61310  0.84040  0.54730  1.0000
  H   H19       1.0  0.61310  0.65960  0.04730  1.0000
  H   H20       1.0  0.38690  0.15960  0.45270  1.0000
  C   C45       1.0  0.39070  0.51950  0.95980  1.0000
  C   C46       1.0  0.60930  0.01950  0.54020  1.0000
  C   C47       1.0  0.60930  0.48050  0.04020  1.0000
  C   C48       1.0  0.39070  0.98050  0.45980  1.0000
  H   H21       1.0  0.31750  0.53170  0.93180  1.0000
  H   H22       1.0  0.68250  0.03170  0.56820  1.0000
  H   H23       1.0  0.68250  0.46830  0.06820  1.0000
  H   H24       1.0  0.31750  0.96830  0.43180  1.0000
