data_image0
_chemical_formula_structural       Zn4S4O28C12H4C4H4C8H4C4H4C16H4C4H4C4H12C4H12
_chemical_formula_sum              "Zn4 S4 O28 C56 H48"
_cell_length_a       11.1722
_cell_length_b       24.8188
_cell_length_c       13.9443
_cell_angle_alpha    90
_cell_angle_beta     97.968
_cell_angle_gamma    90

_space_group_name_H-M_alt    "P 1"
_space_group_IT_number       1

loop_
  _space_group_symop_operation_xyz
  'x, y, z'

loop_
  _atom_site_type_symbol
  _atom_site_label
  _atom_site_symmetry_multiplicity
  _atom_site_fract_x
  _atom_site_fract_y
  _atom_site_fract_z
  _atom_site_occupancy
  Zn  Zn1       1.0  0.85601  0.14287  0.16492  1.0000
  Zn  Zn2       1.0  0.64399  0.64287  0.33508  1.0000
  Zn  Zn3       1.0  0.14399  0.85713  0.83508  1.0000
  Zn  Zn4       1.0  0.35601  0.35713  0.66492  1.0000
  S   S1        1.0  0.88991  0.92700  0.82477  1.0000
  S   S2        1.0  0.61009  0.42700  0.67523  1.0000
  S   S3        1.0  0.11009  0.07300  0.17523  1.0000
  S   S4        1.0  0.38991  0.57300  0.32477  1.0000
  O   O1        1.0  0.40073  0.32120  0.54995  1.0000
  O   O2        1.0  0.09927  0.82120  0.95005  1.0000
  O   O3        1.0  0.59927  0.67880  0.45005  1.0000
  O   O4        1.0  0.90073  0.17880  0.04995  1.0000
  O   O5        1.0  0.48490  0.25988  0.65341  1.0000
  O   O6        1.0  0.01510  0.75988  0.84659  1.0000
  O   O7        1.0  0.51510  0.74012  0.34659  1.0000
  O   O8        1.0  0.98490  0.24012  0.15341  1.0000
  O   O9        1.0  0.81100  0.16348  0.29338  1.0000
  O   O10       1.0  0.68900  0.66348  0.20662  1.0000
  O   O11       1.0  0.18900  0.83652  0.70662  1.0000
  O   O12       1.0  0.31100  0.33652  0.79338  1.0000
  O   O13       1.0  0.19510  0.28816  0.68522  1.0000
  O   O14       1.0  0.30490  0.78816  0.81478  1.0000
  O   O15       1.0  0.80490  0.71184  0.31478  1.0000
  O   O16       1.0  0.69510  0.21184  0.18522  1.0000
  O   O17       1.0  0.73270  0.08738  0.12520  1.0000
  O   O18       1.0  0.76730  0.58738  0.37480  1.0000
  O   O19       1.0  0.26730  0.91262  0.87480  1.0000
  O   O20       1.0  0.23270  0.41262  0.62520  1.0000
  O   O21       1.0  0.81230  0.04688  0.00593  1.0000
  O   O22       1.0  0.68770  0.54688  0.49407  1.0000
  O   O23       1.0  0.18770  0.95312  0.99407  1.0000
  O   O24       1.0  0.31230  0.45312  0.50593  1.0000
  O   O25       1.0  0.98240  0.89253  0.78330  1.0000
  O   O26       1.0  0.51760  0.39253  0.71670  1.0000
  O   O27       1.0  0.01760  0.10747  0.21670  1.0000
  O   O28       1.0  0.48240  0.60747  0.28330  1.0000
  C   C1        1.0  0.46740  0.28000  0.57280  1.0000
  C   C2        1.0  0.03260  0.78000  0.92720  1.0000
  C   C3        1.0  0.53260  0.72000  0.42720  1.0000
  C   C4        1.0  0.96740  0.22000  0.07280  1.0000
  C   C5        1.0  0.53140  0.25745  0.49230  1.0000
  C   C6        1.0  0.96860  0.75745  0.00770  1.0000
  C   C7        1.0  0.46860  0.74255  0.50770  1.0000
  C   C8        1.0  0.03140  0.24255  0.99230  1.0000
  C   C9        1.0  0.51660  0.28041  0.40130  1.0000
  C   C10       1.0  0.98340  0.78041  0.09870  1.0000
  C   C11       1.0  0.48340  0.71959  0.59870  1.0000
  C   C12       1.0  0.01660  0.21959  0.90130  1.0000
  H   H1        1.0  0.46400  0.30990  0.38780  1.0000
  H   H2        1.0  0.03600  0.80990  0.11220  1.0000
  H   H3        1.0  0.53600  0.69010  0.61220  1.0000
  H   H4        1.0  0.96400  0.19010  0.88780  1.0000
  C   C13       1.0  0.57860  0.26037  0.32960  1.0000
  C   C14       1.0  0.92140  0.76037  0.17040  1.0000
  C   C15       1.0  0.42140  0.73963  0.67040  1.0000
  C   C16       1.0  0.07860  0.23963  0.82960  1.0000
  H   H5        1.0  0.56610  0.27580  0.26740  1.0000
  H   H6        1.0  0.93390  0.77580  0.23260  1.0000
  H   H7        1.0  0.43390  0.72420  0.73260  1.0000
  H   H8        1.0  0.06610  0.22420  0.76740  1.0000
  C   C17       1.0  0.65880  0.21791  0.34850  1.0000
  C   C18       1.0  0.84120  0.71791  0.15150  1.0000
  C   C19       1.0  0.34120  0.78209  0.65150  1.0000
  C   C20       1.0  0.15880  0.28209  0.84850  1.0000
  C   C21       1.0  0.67490  0.19543  0.44020  1.0000
  C   C22       1.0  0.82510  0.69543  0.05980  1.0000
  C   C23       1.0  0.32510  0.80457  0.55980  1.0000
  C   C24       1.0  0.17490  0.30457  0.94020  1.0000
  H   H9        1.0  0.72960  0.16680  0.45430  1.0000
  H   H10       1.0  0.77040  0.66680  0.04570  1.0000
  H   H11       1.0  0.27040  0.83320  0.54570  1.0000
  H   H12       1.0  0.22960  0.33320  0.95430  1.0000
  C   C25       1.0  0.61120  0.21475  0.51130  1.0000
  C   C26       1.0  0.88880  0.71475  0.98870  1.0000
  C   C27       1.0  0.38880  0.78525  0.48870  1.0000
  C   C28       1.0  0.11120  0.28525  0.01130  1.0000
  H   H13       1.0  0.62210  0.19880  0.57300  1.0000
  H   H14       1.0  0.87790  0.69880  0.92700  1.0000
  H   H15       1.0  0.37790  0.80120  0.42700  1.0000
  H   H16       1.0  0.12210  0.30120  0.07300  1.0000
  C   C29       1.0  0.72600  0.19663  0.26920  1.0000
  C   C30       1.0  0.77400  0.69663  0.23080  1.0000
  C   C31       1.0  0.27400  0.80337  0.73080  1.0000
  C   C32       1.0  0.22600  0.30337  0.76920  1.0000
  C   C33       1.0  0.72990  0.05514  0.05380  1.0000
  C   C34       1.0  0.77010  0.55514  0.44620  1.0000
  C   C35       1.0  0.27010  0.94486  0.94620  1.0000
  C   C36       1.0  0.22990  0.44486  0.55380  1.0000
  C   C37       1.0  0.61060  0.02593  0.02680  1.0000
  C   C38       1.0  0.88940  0.52593  0.47320  1.0000
  C   C39       1.0  0.38940  0.97407  0.97320  1.0000
  C   C40       1.0  0.11060  0.47407  0.52680  1.0000
  C   C41       1.0  0.52000  0.02863  0.08590  1.0000
  C   C42       1.0  0.98000  0.52863  0.41410  1.0000
  C   C43       1.0  0.48000  0.97137  0.91410  1.0000
  C   C44       1.0  0.02000  0.47137  0.58590  1.0000
  H   H17       1.0  0.53350  0.04800  0.14440  1.0000
  H   H18       1.0  0.96650  0.54800  0.35560  1.0000
  H   H19       1.0  0.46650  0.95200  0.85560  1.0000
  H   H20       1.0  0.03350  0.45200  0.64440  1.0000
  C   C45       1.0  0.41050  0.00312  0.05940  1.0000
  C   C46       1.0  0.08950  0.50312  0.44060  1.0000
  C   C47       1.0  0.58950  0.99688  0.94060  1.0000
  C   C48       1.0  0.91050  0.49688  0.55940  1.0000
  H   H21       1.0  0.65010  0.99460  0.90030  1.0000
  H   H22       1.0  0.84990  0.49460  0.59970  1.0000
  H   H23       1.0  0.34990  0.00540  0.09970  1.0000
  H   H24       1.0  0.15010  0.50540  0.40030  1.0000
  C   C49       1.0  0.90110  0.91415  0.95050  1.0000
  C   C50       1.0  0.59890  0.41415  0.54950  1.0000
  C   C51       1.0  0.09890  0.08585  0.04950  1.0000
  C   C52       1.0  0.40110  0.58585  0.45050  1.0000
  H   H25       1.0  0.86990  0.87840  0.96070  1.0000
  H   H26       1.0  0.63010  0.37840  0.53930  1.0000
  H   H27       1.0  0.13010  0.12160  0.03930  1.0000
  H   H28       1.0  0.36990  0.62160  0.46070  1.0000
  H   H29       1.0  0.98500  0.91620  0.97940  1.0000
  H   H30       1.0  0.51500  0.41620  0.52060  1.0000
  H   H31       1.0  0.01500  0.08380  0.02060  1.0000
  H   H32       1.0  0.48500  0.58380  0.47940  1.0000
  H   H33       1.0  0.85430  0.94070  0.98030  1.0000
  H   H34       1.0  0.64570  0.44070  0.51970  1.0000
  H   H35       1.0  0.14570  0.05930  0.01970  1.0000
  H   H36       1.0  0.35430  0.55930  0.48030  1.0000
  C   C53       1.0  0.95210  0.99330  0.83250  1.0000
  C   C54       1.0  0.54790  0.49330  0.66750  1.0000
  C   C55       1.0  0.04790  0.00670  0.16750  1.0000
  C   C56       1.0  0.45210  0.50670  0.33250  1.0000
  H   H37       1.0  0.95360  0.00740  0.76780  1.0000
  H   H38       1.0  0.54640  0.50740  0.73220  1.0000
  H   H39       1.0  0.04640  0.99260  0.23220  1.0000
  H   H40       1.0  0.45360  0.49260  0.26780  1.0000
  H   H41       1.0  0.90280  0.01650  0.86710  1.0000
  H   H42       1.0  0.59720  0.51650  0.63290  1.0000
  H   H43       1.0  0.09720  0.98350  0.13290  1.0000
  H   H44       1.0  0.40280  0.48350  0.36710  1.0000
  H   H45       1.0  0.03380  0.99210  0.86680  1.0000
  H   H46       1.0  0.46620  0.49210  0.63320  1.0000
  H   H47       1.0  0.96620  0.00790  0.13320  1.0000
  H   H48       1.0  0.53380  0.50790  0.36680  1.0000
