data_image0
_chemical_formula_structural       Co4O32C4H4C20H4C16O8H16
_chemical_formula_sum              "Co4 O40 C40 H24"
_cell_length_a       16.4011
_cell_length_b       7.1786
_cell_length_c       14.2586
_cell_angle_alpha    90
_cell_angle_beta     90
_cell_angle_gamma    90

_space_group_name_H-M_alt    "P 1"
_space_group_IT_number       1

loop_
  _space_group_symop_operation_xyz
  'x, y, z'

loop_
  _atom_site_type_symbol
  _atom_site_label
  _atom_site_symmetry_multiplicity
  _atom_site_fract_x
  _atom_site_fract_y
  _atom_site_fract_z
  _atom_site_occupancy
  Co  Co1       1.0  0.50000  0.50000  0.82749  1.0000
  Co  Co2       1.0  0.00000  0.50000  0.82749  1.0000
  Co  Co3       1.0  0.00000  0.00000  0.32749  1.0000
  Co  Co4       1.0  0.50000  0.00000  0.32749  1.0000
  O   O1        1.0  0.59187  0.56111  0.73336  1.0000
  O   O2        1.0  0.40813  0.43889  0.73336  1.0000
  O   O3        1.0  0.09187  0.43889  0.73336  1.0000
  O   O4        1.0  0.90813  0.56111  0.73336  1.0000
  O   O5        1.0  0.09187  0.06111  0.23336  1.0000
  O   O6        1.0  0.90813  0.93889  0.23336  1.0000
  O   O7        1.0  0.59187  0.93889  0.23336  1.0000
  O   O8        1.0  0.40813  0.06111  0.23336  1.0000
  O   O9        1.0  0.54019  0.80989  0.65830  1.0000
  O   O10       1.0  0.45981  0.19011  0.65830  1.0000
  O   O11       1.0  0.04019  0.19011  0.65830  1.0000
  O   O12       1.0  0.95981  0.80989  0.65830  1.0000
  O   O13       1.0  0.04019  0.30989  0.15830  1.0000
  O   O14       1.0  0.95981  0.69011  0.15830  1.0000
  O   O15       1.0  0.54019  0.69011  0.15830  1.0000
  O   O16       1.0  0.45981  0.30989  0.15830  1.0000
  O   O17       1.0  0.56026  0.63816  0.46344  1.0000
  O   O18       1.0  0.43974  0.36184  0.46344  1.0000
  O   O19       1.0  0.06026  0.36184  0.46344  1.0000
  O   O20       1.0  0.93974  0.63816  0.46344  1.0000
  O   O21       1.0  0.06026  0.13816  0.96344  1.0000
  O   O22       1.0  0.93974  0.86184  0.96344  1.0000
  O   O23       1.0  0.56026  0.86184  0.96344  1.0000
  O   O24       1.0  0.43974  0.13816  0.96344  1.0000
  O   O25       1.0  0.58410  0.94104  0.43363  1.0000
  O   O26       1.0  0.41590  0.05896  0.43363  1.0000
  O   O27       1.0  0.08410  0.05896  0.43363  1.0000
  O   O28       1.0  0.91590  0.94104  0.43363  1.0000
  O   O29       1.0  0.08410  0.44104  0.93363  1.0000
  O   O30       1.0  0.91590  0.55896  0.93363  1.0000
  O   O31       1.0  0.58410  0.55896  0.93363  1.0000
  O   O32       1.0  0.41590  0.44104  0.93363  1.0000
  C   C1        1.0  0.75000  0.69080  0.67061  1.0000
  C   C2        1.0  0.25000  0.30920  0.67061  1.0000
  C   C3        1.0  0.25000  0.19080  0.17061  1.0000
  C   C4        1.0  0.75000  0.80920  0.17061  1.0000
  H   H1        1.0  0.75000  0.65170  0.73430  1.0000
  H   H2        1.0  0.25000  0.34830  0.73430  1.0000
  H   H3        1.0  0.25000  0.15170  0.23430  1.0000
  H   H4        1.0  0.75000  0.84830  0.23430  1.0000
  C   C5        1.0  0.67589  0.71908  0.62452  1.0000
  C   C6        1.0  0.32411  0.28092  0.62452  1.0000
  C   C7        1.0  0.17589  0.28092  0.62452  1.0000
  C   C8        1.0  0.82411  0.71908  0.62452  1.0000
  C   C9        1.0  0.17589  0.21908  0.12452  1.0000
  C   C10       1.0  0.82411  0.78092  0.12452  1.0000
  C   C11       1.0  0.67589  0.78092  0.12452  1.0000
  C   C12       1.0  0.32411  0.21908  0.12452  1.0000
  C   C13       1.0  0.67626  0.77558  0.53074  1.0000
  C   C14       1.0  0.32374  0.22442  0.53074  1.0000
  C   C15       1.0  0.17626  0.22442  0.53074  1.0000
  C   C16       1.0  0.82374  0.77558  0.53074  1.0000
  C   C17       1.0  0.17626  0.27558  0.03074  1.0000
  C   C18       1.0  0.82374  0.72442  0.03074  1.0000
  C   C19       1.0  0.67626  0.72442  0.03074  1.0000
  C   C20       1.0  0.32374  0.27558  0.03074  1.0000
  C   C21       1.0  0.75000  0.80560  0.48435  1.0000
  C   C22       1.0  0.25000  0.19440  0.48435  1.0000
  C   C23       1.0  0.25000  0.30560  0.98435  1.0000
  C   C24       1.0  0.75000  0.69440  0.98435  1.0000
  H   H5        1.0  0.75000  0.84650  0.42100  1.0000
  H   H6        1.0  0.25000  0.15350  0.42100  1.0000
  H   H7        1.0  0.25000  0.34650  0.92100  1.0000
  H   H8        1.0  0.75000  0.65350  0.92100  1.0000
  C   C25       1.0  0.59580  0.69471  0.67606  1.0000
  C   C26       1.0  0.40420  0.30529  0.67606  1.0000
  C   C27       1.0  0.09580  0.30529  0.67606  1.0000
  C   C28       1.0  0.90420  0.69471  0.67606  1.0000
  C   C29       1.0  0.09580  0.19471  0.17606  1.0000
  C   C30       1.0  0.90420  0.80529  0.17606  1.0000
  C   C31       1.0  0.59580  0.80529  0.17606  1.0000
  C   C32       1.0  0.40420  0.19471  0.17606  1.0000
  C   C33       1.0  0.59980  0.78639  0.47228  1.0000
  C   C34       1.0  0.40020  0.21361  0.47228  1.0000
  C   C35       1.0  0.09980  0.21361  0.47228  1.0000
  C   C36       1.0  0.90020  0.78639  0.47228  1.0000
  C   C37       1.0  0.09980  0.28639  0.97228  1.0000
  C   C38       1.0  0.90020  0.71361  0.97228  1.0000
  C   C39       1.0  0.59980  0.71361  0.97228  1.0000
  C   C40       1.0  0.40020  0.28639  0.97228  1.0000
  O   O33       1.0  0.45721  0.77721  0.82396  1.0000
  O   O34       1.0  0.54279  0.22279  0.82396  1.0000
  O   O35       1.0  0.95721  0.22279  0.82396  1.0000
  O   O36       1.0  0.04279  0.77721  0.82396  1.0000
  O   O37       1.0  0.95721  0.27721  0.32396  1.0000
  O   O38       1.0  0.04279  0.72279  0.32396  1.0000
  O   O39       1.0  0.45721  0.72279  0.32396  1.0000
  O   O40       1.0  0.54279  0.27721  0.32396  1.0000
  H   H9        1.0  0.47700  0.81920  0.87810  1.0000
  H   H10       1.0  0.52300  0.18080  0.87810  1.0000
  H   H11       1.0  0.97700  0.18080  0.87810  1.0000
  H   H12       1.0  0.02300  0.81920  0.87810  1.0000
  H   H13       1.0  0.97700  0.31920  0.37810  1.0000
  H   H14       1.0  0.02300  0.68080  0.37810  1.0000
  H   H15       1.0  0.47700  0.68080  0.37810  1.0000
  H   H16       1.0  0.52300  0.31920  0.37810  1.0000
  H   H17       1.0  0.48060  0.82550  0.77320  1.0000
  H   H18       1.0  0.51940  0.17450  0.77320  1.0000
  H   H19       1.0  0.98060  0.17450  0.77320  1.0000
  H   H20       1.0  0.01940  0.82550  0.77320  1.0000
  H   H21       1.0  0.98060  0.32550  0.27320  1.0000
  H   H22       1.0  0.01940  0.67450  0.27320  1.0000
  H   H23       1.0  0.48060  0.67450  0.27320  1.0000
  H   H24       1.0  0.51940  0.32550  0.27320  1.0000
