data_image0
_chemical_formula_structural       U4P4C8H4C4H4C4H4C4H4C4H4P4O24H4O8C8H4C4H4C4H4C4H4C4H4
_chemical_formula_sum              "U4 P8 C48 H44 O32"
_cell_length_a       10.225
_cell_length_b       10.197
_cell_length_c       23.917
_cell_angle_alpha    90
_cell_angle_beta     99.794
_cell_angle_gamma    90

_space_group_name_H-M_alt    "P 1"
_space_group_IT_number       1

loop_
  _space_group_symop_operation_xyz
  'x, y, z'

loop_
  _atom_site_type_symbol
  _atom_site_label
  _atom_site_symmetry_multiplicity
  _atom_site_fract_x
  _atom_site_fract_y
  _atom_site_fract_z
  _atom_site_occupancy
  U   U1        1.0  0.25437  0.42228  0.49216  1.0000
  U   U2        1.0  0.74563  0.92228  0.00784  1.0000
  U   U3        1.0  0.74563  0.57772  0.50784  1.0000
  U   U4        1.0  0.25437  0.07772  0.99216  1.0000
  P   P1        1.0  0.50464  0.41335  0.40271  1.0000
  P   P2        1.0  0.49536  0.91335  0.09729  1.0000
  P   P3        1.0  0.49536  0.58665  0.59729  1.0000
  P   P4        1.0  0.50464  0.08665  0.90271  1.0000
  C   C1        1.0  0.43120  0.48210  0.33523  1.0000
  C   C2        1.0  0.56880  0.98210  0.16477  1.0000
  C   C3        1.0  0.56880  0.51790  0.66477  1.0000
  C   C4        1.0  0.43120  0.01790  0.83523  1.0000
  C   C5        1.0  0.51200  0.51240  0.29625  1.0000
  C   C6        1.0  0.48800  0.01240  0.20375  1.0000
  C   C7        1.0  0.48800  0.48760  0.70375  1.0000
  C   C8        1.0  0.51200  0.98760  0.79625  1.0000
  H   H1        1.0  0.60040  0.48610  0.30330  1.0000
  H   H2        1.0  0.39960  0.98610  0.19670  1.0000
  H   H3        1.0  0.39960  0.51390  0.69670  1.0000
  H   H4        1.0  0.60040  0.01390  0.80330  1.0000
  C   C9        1.0  0.29830  0.51840  0.32270  1.0000
  C   C10       1.0  0.70170  0.01840  0.17730  1.0000
  C   C11       1.0  0.70170  0.48160  0.67730  1.0000
  C   C12       1.0  0.29830  0.98160  0.82270  1.0000
  H   H5        1.0  0.24150  0.49800  0.34800  1.0000
  H   H6        1.0  0.75850  0.99800  0.15200  1.0000
  H   H7        1.0  0.75850  0.50200  0.65200  1.0000
  H   H8        1.0  0.24150  0.00200  0.84800  1.0000
  C   C13       1.0  0.46440  0.58100  0.24690  1.0000
  C   C14       1.0  0.53560  0.08100  0.25310  1.0000
  C   C15       1.0  0.53560  0.41900  0.75310  1.0000
  C   C16       1.0  0.46440  0.91900  0.74690  1.0000
  H   H9        1.0  0.52090  0.60230  0.22160  1.0000
  H   H10       1.0  0.47910  0.10230  0.27840  1.0000
  H   H11       1.0  0.47910  0.39770  0.77840  1.0000
  H   H12       1.0  0.52090  0.89770  0.72160  1.0000
  C   C17       1.0  0.24970  0.58470  0.27290  1.0000
  C   C18       1.0  0.75030  0.08470  0.22710  1.0000
  C   C19       1.0  0.75030  0.41530  0.72710  1.0000
  C   C20       1.0  0.24970  0.91530  0.77290  1.0000
  H   H13       1.0  0.16040  0.60730  0.26450  1.0000
  H   H14       1.0  0.83960  0.10730  0.23550  1.0000
  H   H15       1.0  0.83960  0.39270  0.73550  1.0000
  H   H16       1.0  0.16040  0.89270  0.76450  1.0000
  C   C21       1.0  0.33390  0.61720  0.23570  1.0000
  C   C22       1.0  0.66610  0.11720  0.26430  1.0000
  C   C23       1.0  0.66610  0.38280  0.76430  1.0000
  C   C24       1.0  0.33390  0.88280  0.73570  1.0000
  H   H17       1.0  0.30170  0.66380  0.20280  1.0000
  H   H18       1.0  0.69830  0.16380  0.29720  1.0000
  H   H19       1.0  0.69830  0.33620  0.79720  1.0000
  H   H20       1.0  0.30170  0.83620  0.70280  1.0000
  P   P5        1.0  0.92773  0.42224  0.40660  1.0000
  P   P6        1.0  0.07227  0.92224  0.09340  1.0000
  P   P7        1.0  0.07227  0.57776  0.59340  1.0000
  P   P8        1.0  0.92773  0.07776  0.90660  1.0000
  O   O1        1.0  0.25590  0.25650  0.51592  1.0000
  O   O2        1.0  0.74410  0.75650  0.98408  1.0000
  O   O3        1.0  0.74410  0.74350  0.48408  1.0000
  O   O4        1.0  0.25590  0.24350  0.01592  1.0000
  O   O5        1.0  0.39300  0.36080  0.43162  1.0000
  O   O6        1.0  0.60700  0.86080  0.06838  1.0000
  O   O7        1.0  0.60700  0.63920  0.56838  1.0000
  O   O8        1.0  0.39300  0.13920  0.93162  1.0000
  O   O9        1.0  0.25710  0.58710  0.46785  1.0000
  O   O10       1.0  0.74290  0.08710  0.03215  1.0000
  O   O11       1.0  0.74290  0.41290  0.53215  1.0000
  O   O12       1.0  0.25710  0.91290  0.96785  1.0000
  O   O13       1.0  0.59960  0.30660  0.39241  1.0000
  O   O14       1.0  0.40040  0.80660  0.10759  1.0000
  O   O15       1.0  0.40040  0.69340  0.60759  1.0000
  O   O16       1.0  0.59960  0.19340  0.89241  1.0000
  O   O17       1.0  0.57380  0.53020  0.43632  1.0000
  O   O18       1.0  0.42620  0.03020  0.06368  1.0000
  O   O19       1.0  0.42620  0.46980  0.56368  1.0000
  O   O20       1.0  0.57380  0.96980  0.93632  1.0000
  O   O21       1.0  0.84280  0.29680  0.40290  1.0000
  O   O22       1.0  0.15720  0.79680  0.09710  1.0000
  O   O23       1.0  0.15720  0.70320  0.59710  1.0000
  O   O24       1.0  0.84280  0.20320  0.90290  1.0000
  H   H21       1.0  0.76390  0.31670  0.39660  1.0000
  H   H22       1.0  0.23610  0.81670  0.10340  1.0000
  H   H23       1.0  0.23610  0.68330  0.60340  1.0000
  H   H24       1.0  0.76390  0.18330  0.89660  1.0000
  O   O25       1.0  0.88260  0.52430  0.44518  1.0000
  O   O26       1.0  0.11740  0.02430  0.05482  1.0000
  O   O27       1.0  0.11740  0.47570  0.55482  1.0000
  O   O28       1.0  0.88260  0.97570  0.94518  1.0000
  O   O29       1.0  0.07140  0.38220  0.42370  1.0000
  O   O30       1.0  0.92860  0.88220  0.07630  1.0000
  O   O31       1.0  0.92860  0.61780  0.57630  1.0000
  O   O32       1.0  0.07140  0.11780  0.92370  1.0000
  C   C25       1.0  0.90270  0.49190  0.33680  1.0000
  C   C26       1.0  0.09730  0.99190  0.16320  1.0000
  C   C27       1.0  0.09730  0.50810  0.66320  1.0000
  C   C28       1.0  0.90270  0.00810  0.83680  1.0000
  C   C29       1.0  0.89840  0.41420  0.28890  1.0000
  C   C30       1.0  0.10160  0.91420  0.21110  1.0000
  C   C31       1.0  0.10160  0.58580  0.71110  1.0000
  C   C32       1.0  0.89840  0.08580  0.78890  1.0000
  H   H25       1.0  0.91540  0.32480  0.29290  1.0000
  H   H26       1.0  0.08460  0.82480  0.20710  1.0000
  H   H27       1.0  0.08460  0.67520  0.70710  1.0000
  H   H28       1.0  0.91540  0.17520  0.79290  1.0000
  C   C33       1.0  0.87840  0.62560  0.32880  1.0000
  C   C34       1.0  0.12160  0.12560  0.17120  1.0000
  C   C35       1.0  0.12160  0.37440  0.67120  1.0000
  C   C36       1.0  0.87840  0.87440  0.82880  1.0000
  H   H29       1.0  0.88110  0.67990  0.36030  1.0000
  H   H30       1.0  0.11890  0.17990  0.13970  1.0000
  H   H31       1.0  0.11890  0.32010  0.63970  1.0000
  H   H32       1.0  0.88110  0.82010  0.86030  1.0000
  C   C37       1.0  0.86890  0.46910  0.23500  1.0000
  C   C38       1.0  0.13110  0.96910  0.26500  1.0000
  C   C39       1.0  0.13110  0.53090  0.76500  1.0000
  C   C40       1.0  0.86890  0.03090  0.73500  1.0000
  H   H33       1.0  0.86550  0.41590  0.20320  1.0000
  H   H34       1.0  0.13450  0.91590  0.29680  1.0000
  H   H35       1.0  0.13450  0.58410  0.79680  1.0000
  H   H36       1.0  0.86550  0.08410  0.70320  1.0000
  C   C41       1.0  0.84480  0.60090  0.22830  1.0000
  C   C42       1.0  0.15520  0.10090  0.27170  1.0000
  C   C43       1.0  0.15520  0.39910  0.77170  1.0000
  C   C44       1.0  0.84480  0.89910  0.72830  1.0000
  H   H37       1.0  0.82500  0.63690  0.19210  1.0000
  H   H38       1.0  0.17500  0.13690  0.30790  1.0000
  H   H39       1.0  0.17500  0.36310  0.80790  1.0000
  H   H40       1.0  0.82500  0.86310  0.69210  1.0000
  C   C45       1.0  0.85010  0.67900  0.27470  1.0000
  C   C46       1.0  0.14990  0.17900  0.22530  1.0000
  C   C47       1.0  0.14990  0.32100  0.72530  1.0000
  C   C48       1.0  0.85010  0.82100  0.77470  1.0000
  H   H41       1.0  0.83460  0.76850  0.27020  1.0000
  H   H42       1.0  0.16540  0.26850  0.22980  1.0000
  H   H43       1.0  0.16540  0.23150  0.72980  1.0000
  H   H44       1.0  0.83460  0.73150  0.77020  1.0000
