data_image0
_chemical_formula_structural       U4P4Cl4O4C4U4P4Cl4O4C4H4O4C4H4O4C4H4O4C4H4O4C4H4O4C4O4C4H4O4C4H4O4C4H4C4H4C4H4
_chemical_formula_sum              "U8 P8 Cl8 O40 C48 H40"
_cell_length_a       10.6043
_cell_length_b       16.4306
_cell_length_c       21.8094
_cell_angle_alpha    90
_cell_angle_beta     90.493
_cell_angle_gamma    90

_space_group_name_H-M_alt    "P 1"
_space_group_IT_number       1

loop_
  _space_group_symop_operation_xyz
  'x, y, z'

loop_
  _atom_site_type_symbol
  _atom_site_label
  _atom_site_symmetry_multiplicity
  _atom_site_fract_x
  _atom_site_fract_y
  _atom_site_fract_z
  _atom_site_occupancy
  U   U1        1.0  0.25732  0.48458  0.02675  1.0000
  U   U2        1.0  0.74268  0.98458  0.47325  1.0000
  U   U3        1.0  0.74268  0.51542  0.97325  1.0000
  U   U4        1.0  0.25732  0.01542  0.52675  1.0000
  P   P1        1.0  0.97723  0.58609  0.08546  1.0000
  P   P2        1.0  0.02277  0.08609  0.41454  1.0000
  P   P3        1.0  0.02277  0.41391  0.91454  1.0000
  P   P4        1.0  0.97723  0.91391  0.58546  1.0000
  Cl  Cl1       1.0  0.58476  0.56333  0.30074  1.0000
  Cl  Cl2       1.0  0.41524  0.06333  0.19926  1.0000
  Cl  Cl3       1.0  0.41524  0.43667  0.69926  1.0000
  Cl  Cl4       1.0  0.58476  0.93667  0.80074  1.0000
  O   O1        1.0  0.25140  0.40430  0.08148  1.0000
  O   O2        1.0  0.74860  0.90430  0.41852  1.0000
  O   O3        1.0  0.74860  0.59570  0.91852  1.0000
  O   O4        1.0  0.25140  0.09570  0.58148  1.0000
  C   C1        1.0  0.98280  0.69500  0.09540  1.0000
  C   C2        1.0  0.01720  0.19500  0.40460  1.0000
  C   C3        1.0  0.01720  0.30500  0.90460  1.0000
  C   C4        1.0  0.98280  0.80500  0.59540  1.0000
  U   U5        1.0  0.76514  0.55168  0.21548  1.0000
  U   U6        1.0  0.23486  0.05168  0.28452  1.0000
  U   U7        1.0  0.23486  0.44832  0.78452  1.0000
  U   U8        1.0  0.76514  0.94832  0.71548  1.0000
  P   P5        1.0  0.46537  0.40668  0.91116  1.0000
  P   P6        1.0  0.53463  0.90668  0.58884  1.0000
  P   P7        1.0  0.53463  0.59332  0.08884  1.0000
  P   P8        1.0  0.46537  0.09332  0.41116  1.0000
  Cl  Cl5       1.0  0.95284  0.53292  0.29711  1.0000
  Cl  Cl6       1.0  0.04716  0.03292  0.20289  1.0000
  Cl  Cl7       1.0  0.04716  0.46708  0.70289  1.0000
  Cl  Cl8       1.0  0.95284  0.96708  0.79711  1.0000
  O   O5        1.0  0.26710  0.56420  0.97173  1.0000
  O   O6        1.0  0.73290  0.06420  0.52827  1.0000
  O   O7        1.0  0.73290  0.43580  0.02827  1.0000
  O   O8        1.0  0.26710  0.93580  0.47173  1.0000
  C   C5        1.0  0.86960  0.73790  0.09960  1.0000
  C   C6        1.0  0.13040  0.23790  0.40040  1.0000
  C   C7        1.0  0.13040  0.26210  0.90040  1.0000
  C   C8        1.0  0.86960  0.76210  0.59960  1.0000
  H   H1        1.0  0.79170  0.70930  0.09890  1.0000
  H   H2        1.0  0.20830  0.20930  0.40110  1.0000
  H   H3        1.0  0.20830  0.29070  0.90110  1.0000
  H   H4        1.0  0.79170  0.79070  0.59890  1.0000
  O   O9        1.0  0.74550  0.44404  0.21252  1.0000
  O   O10       1.0  0.25450  0.94404  0.28748  1.0000
  O   O11       1.0  0.25450  0.55596  0.78748  1.0000
  O   O12       1.0  0.74550  0.05596  0.71252  1.0000
  C   C9        1.0  0.87000  0.82170  0.10470  1.0000
  C   C10       1.0  0.13000  0.32170  0.39530  1.0000
  C   C11       1.0  0.13000  0.17830  0.89530  1.0000
  C   C12       1.0  0.87000  0.67830  0.60470  1.0000
  H   H5        1.0  0.79250  0.85020  0.10830  1.0000
  H   H6        1.0  0.20750  0.35020  0.39170  1.0000
  H   H7        1.0  0.20750  0.14980  0.89170  1.0000
  H   H8        1.0  0.79250  0.64980  0.60830  1.0000
  O   O13       1.0  0.78420  0.65908  0.22140  1.0000
  O   O14       1.0  0.21580  0.15908  0.27860  1.0000
  O   O15       1.0  0.21580  0.34092  0.77860  1.0000
  O   O16       1.0  0.78420  0.84092  0.72140  1.0000
  C   C13       1.0  0.98060  0.86390  0.10480  1.0000
  C   C14       1.0  0.01940  0.36390  0.39520  1.0000
  C   C15       1.0  0.01940  0.13610  0.89520  1.0000
  C   C16       1.0  0.98060  0.63610  0.60480  1.0000
  H   H9        1.0  0.98020  0.92150  0.10880  1.0000
  H   H10       1.0  0.01980  0.42150  0.39120  1.0000
  H   H11       1.0  0.01980  0.07850  0.89120  1.0000
  H   H12       1.0  0.98020  0.57850  0.60880  1.0000
  O   O17       1.0  0.11190  0.55520  0.08266  1.0000
  O   O18       1.0  0.88810  0.05520  0.41734  1.0000
  O   O19       1.0  0.88810  0.44480  0.91734  1.0000
  O   O20       1.0  0.11190  0.94480  0.58266  1.0000
  C   C17       1.0  0.09280  0.82280  0.09900  1.0000
  C   C18       1.0  0.90720  0.32280  0.40100  1.0000
  C   C19       1.0  0.90720  0.17720  0.90100  1.0000
  C   C20       1.0  0.09280  0.67720  0.59900  1.0000
  H   H13       1.0  0.16990  0.85230  0.09820  1.0000
  H   H14       1.0  0.83010  0.35230  0.40180  1.0000
  H   H15       1.0  0.83010  0.14770  0.90180  1.0000
  H   H16       1.0  0.16990  0.64770  0.59820  1.0000
  O   O21       1.0  0.90560  0.57268  0.02516  1.0000
  O   O22       1.0  0.09440  0.07268  0.47484  1.0000
  O   O23       1.0  0.09440  0.42732  0.97484  1.0000
  O   O24       1.0  0.90560  0.92732  0.52516  1.0000
  C   C21       1.0  0.09420  0.73780  0.09430  1.0000
  C   C22       1.0  0.90580  0.23780  0.40570  1.0000
  C   C23       1.0  0.90580  0.26220  0.90570  1.0000
  C   C24       1.0  0.09420  0.76220  0.59430  1.0000
  H   H17       1.0  0.17200  0.70980  0.09030  1.0000
  H   H18       1.0  0.82800  0.20980  0.40970  1.0000
  H   H19       1.0  0.82800  0.29020  0.90970  1.0000
  H   H20       1.0  0.17200  0.79020  0.59030  1.0000
  O   O25       1.0  0.39220  0.40425  0.97077  1.0000
  O   O26       1.0  0.60780  0.90425  0.52923  1.0000
  O   O27       1.0  0.60780  0.59575  0.02923  1.0000
  O   O28       1.0  0.39220  0.09575  0.47077  1.0000
  C   C25       1.0  0.51070  0.30470  0.89130  1.0000
  C   C26       1.0  0.48930  0.80470  0.60870  1.0000
  C   C27       1.0  0.48930  0.69530  0.10870  1.0000
  C   C28       1.0  0.51070  0.19530  0.39130  1.0000
  O   O29       1.0  0.58440  0.45827  0.91615  1.0000
  O   O30       1.0  0.41560  0.95827  0.58385  1.0000
  O   O31       1.0  0.41560  0.54173  0.08385  1.0000
  O   O32       1.0  0.58440  0.04173  0.41615  1.0000
  C   C29       1.0  0.47460  0.23880  0.92430  1.0000
  C   C30       1.0  0.52540  0.73880  0.57570  1.0000
  C   C31       1.0  0.52540  0.76120  0.07570  1.0000
  C   C32       1.0  0.47460  0.26120  0.42430  1.0000
  H   H21       1.0  0.42670  0.24590  0.96050  1.0000
  H   H22       1.0  0.57330  0.74590  0.53950  1.0000
  H   H23       1.0  0.57330  0.75410  0.03950  1.0000
  H   H24       1.0  0.42670  0.25410  0.46050  1.0000
  O   O33       1.0  0.90630  0.54843  0.13924  1.0000
  O   O34       1.0  0.09370  0.04843  0.36076  1.0000
  O   O35       1.0  0.09370  0.45157  0.86076  1.0000
  O   O36       1.0  0.90630  0.95157  0.63924  1.0000
  C   C33       1.0  0.50760  0.16070  0.90520  1.0000
  C   C34       1.0  0.49240  0.66070  0.59480  1.0000
  C   C35       1.0  0.49240  0.83930  0.09480  1.0000
  C   C36       1.0  0.50760  0.33930  0.40520  1.0000
  H   H25       1.0  0.48510  0.11500  0.92940  1.0000
  H   H26       1.0  0.51490  0.61500  0.57060  1.0000
  H   H27       1.0  0.51490  0.88500  0.07060  1.0000
  H   H28       1.0  0.48510  0.38500  0.42940  1.0000
  O   O37       1.0  0.38490  0.43770  0.85785  1.0000
  O   O38       1.0  0.61510  0.93770  0.64215  1.0000
  O   O39       1.0  0.61510  0.56230  0.14215  1.0000
  O   O40       1.0  0.38490  0.06230  0.35785  1.0000
  C   C37       1.0  0.57010  0.14970  0.85340  1.0000
  C   C38       1.0  0.42990  0.64970  0.64660  1.0000
  C   C39       1.0  0.42990  0.85030  0.14660  1.0000
  C   C40       1.0  0.57010  0.35030  0.35340  1.0000
  H   H29       1.0  0.58980  0.09600  0.84050  1.0000
  H   H30       1.0  0.41020  0.59600  0.65950  1.0000
  H   H31       1.0  0.41020  0.90400  0.15950  1.0000
  H   H32       1.0  0.58980  0.40400  0.34050  1.0000
  C   C41       1.0  0.60610  0.21260  0.81890  1.0000
  C   C42       1.0  0.39390  0.71260  0.68110  1.0000
  C   C43       1.0  0.39390  0.78740  0.18110  1.0000
  C   C44       1.0  0.60610  0.28740  0.31890  1.0000
  H   H33       1.0  0.65300  0.20400  0.78260  1.0000
  H   H34       1.0  0.34700  0.70400  0.71740  1.0000
  H   H35       1.0  0.34700  0.79600  0.21740  1.0000
  H   H36       1.0  0.65300  0.29600  0.28260  1.0000
  C   C45       1.0  0.57340  0.29140  0.83730  1.0000
  C   C46       1.0  0.42660  0.79140  0.66270  1.0000
  C   C47       1.0  0.42660  0.70860  0.16270  1.0000
  C   C48       1.0  0.57340  0.20860  0.33730  1.0000
  H   H37       1.0  0.59480  0.33640  0.81200  1.0000
  H   H38       1.0  0.40520  0.83640  0.68800  1.0000
  H   H39       1.0  0.40520  0.66360  0.18800  1.0000
  H   H40       1.0  0.59480  0.16360  0.31200  1.0000
