data_image0
_chemical_formula_structural       U2P2O2C2H4P2O2C2H4O2C2H4O8H2O2
_chemical_formula_sum              "U2 P4 O16 C6 H14"
_cell_length_a       9.8611
_cell_length_b       10.0415
_cell_length_c       10.7103
_cell_angle_alpha    71.712
_cell_angle_beta     65.666
_cell_angle_gamma    68.082

_space_group_name_H-M_alt    "P 1"
_space_group_IT_number       1

loop_
  _space_group_symop_operation_xyz
  'x, y, z'

loop_
  _atom_site_type_symbol
  _atom_site_label
  _atom_site_symmetry_multiplicity
  _atom_site_fract_x
  _atom_site_fract_y
  _atom_site_fract_z
  _atom_site_occupancy
  U   U1        1.0  0.28797  0.40059  0.50455  1.0000
  U   U2        1.0  0.71203  0.59941  0.49545  1.0000
  P   P1        1.0  0.90434  0.39814  0.75199  1.0000
  P   P2        1.0  0.09566  0.60186  0.24801  1.0000
  O   O1        1.0  0.20980  0.57930  0.54610  1.0000
  O   O2        1.0  0.79020  0.42070  0.45390  1.0000
  C   C1        1.0  0.71950  0.56970  0.11560  1.0000
  C   C2        1.0  0.28050  0.43030  0.88440  1.0000
  H   H1        1.0  0.75430  0.65710  0.07310  1.0000
  H   H2        1.0  0.24570  0.34290  0.92690  1.0000
  H   H3        1.0  0.79490  0.49770  0.15700  1.0000
  H   H4        1.0  0.20510  0.50230  0.84300  1.0000
  P   P3        1.0  0.53747  0.61309  0.25222  1.0000
  P   P4        1.0  0.46253  0.38691  0.74778  1.0000
  O   O3        1.0  0.37180  0.22190  0.46470  1.0000
  O   O4        1.0  0.62820  0.77810  0.53530  1.0000
  C   C3        1.0  0.71880  0.51020  0.99980  1.0000
  C   C4        1.0  0.28120  0.48980  0.00020  1.0000
  H   H5        1.0  0.67600  0.42750  0.04100  1.0000
  H   H6        1.0  0.32400  0.57250  0.95900  1.0000
  H   H7        1.0  0.65410  0.58540  0.94910  1.0000
  H   H8        1.0  0.34590  0.41460  0.05090  1.0000
  O   O5        1.0  0.07830  0.33660  0.67880  1.0000
  O   O6        1.0  0.92170  0.66340  0.32120  1.0000
  C   C5        1.0  0.88490  0.46270  0.89930  1.0000
  C   C6        1.0  0.11510  0.53730  0.10070  1.0000
  H   H9        1.0  0.92810  0.54490  0.86450  1.0000
  H   H10       1.0  0.07190  0.45510  0.13550  1.0000
  H   H11       1.0  0.94680  0.38570  0.95150  1.0000
  H   H12       1.0  0.05320  0.61430  0.04850  1.0000
  O   O7        1.0  0.83120  0.52980  0.65790  1.0000
  O   O8        1.0  0.16880  0.47020  0.34210  1.0000
  O   O9        1.0  0.56600  0.67350  0.35170  1.0000
  O   O10       1.0  0.43400  0.32650  0.64830  1.0000
  O   O11       1.0  0.48890  0.47240  0.32250  1.0000
  O   O12       1.0  0.51110  0.52760  0.67750  1.0000
  O   O13       1.0  0.82450  0.27720  0.80770  1.0000
  O   O14       1.0  0.17550  0.72280  0.19230  1.0000
  H   H13       1.0  0.74600  0.30570  0.78630  1.0000
  H   H14       1.0  0.25400  0.69430  0.21370  1.0000
  O   O15       1.0  0.42020  0.73180  0.18820  1.0000
  O   O16       1.0  0.57980  0.26820  0.81180  1.0000
