data_image0
_chemical_formula_structural       U2P2O2U2P2O2UP2O2P2O8C2H4O2C2H4O2C2H4O2C2H4C2H4O2C2H4O8H2O2H2O2
_chemical_formula_sum              "U5 P8 O34 C12 H28"
_cell_length_a       9.4611
_cell_length_b       13.424
_cell_length_c       13.453
_cell_angle_alpha    67.36
_cell_angle_beta     70.649
_cell_angle_gamma    88.418

_space_group_name_H-M_alt    "P 1"
_space_group_IT_number       1

loop_
  _space_group_symop_operation_xyz
  'x, y, z'

loop_
  _atom_site_type_symbol
  _atom_site_label
  _atom_site_symmetry_multiplicity
  _atom_site_fract_x
  _atom_site_fract_y
  _atom_site_fract_z
  _atom_site_occupancy
  U   U1        1.0  0.97713  0.07786  0.34607  1.0000
  U   U2        1.0  0.02287  0.92214  0.65393  1.0000
  P   P1        1.0  0.26631  0.14845  0.38341  1.0000
  P   P2        1.0  0.73369  0.85155  0.61659  1.0000
  O   O1        1.0  0.07490  0.97770  0.30390  1.0000
  O   O2        1.0  0.92510  0.02230  0.69610  1.0000
  U   U3        1.0  0.29129  0.32084  0.07727  1.0000
  U   U4        1.0  0.70871  0.67915  0.92273  1.0000
  P   P3        1.0  0.52524  0.43247  0.18082  1.0000
  P   P4        1.0  0.47476  0.56753  0.81918  1.0000
  O   O3        1.0  0.87750  0.17550  0.39050  1.0000
  O   O4        1.0  0.12250  0.82450  0.60950  1.0000
  U   U5        1.0  0.00000  0.00000  0.00000  1.0000
  P   P5        1.0  0.72121  0.94458  0.28023  1.0000
  P   P6        1.0  0.27879  0.05542  0.71977  1.0000
  O   O5        1.0  0.13590  0.05620  0.46680  1.0000
  O   O6        1.0  0.86410  0.94380  0.53320  1.0000
  P   P7        1.0  0.99951  0.25095  0.04756  1.0000
  P   P8        1.0  0.00049  0.74905  0.95244  1.0000
  O   O7        1.0  0.21560  0.19800  0.27780  1.0000
  O   O8        1.0  0.78440  0.80200  0.72220  1.0000
  O   O9        1.0  0.04800  0.19670  0.15480  1.0000
  O   O10       1.0  0.95200  0.80330  0.84520  1.0000
  O   O11       1.0  0.76580  0.02310  0.32480  1.0000
  O   O12       1.0  0.23420  0.97690  0.67520  1.0000
  O   O13       1.0  0.19520  0.42090  0.11930  1.0000
  O   O14       1.0  0.80480  0.57910  0.88070  1.0000
  C   C1        1.0  0.43070  0.01000  0.28980  1.0000
  C   C2        1.0  0.56930  0.99000  0.71020  1.0000
  H   H1        1.0  0.36400  0.03350  0.24370  1.0000
  H   H2        1.0  0.63600  0.96650  0.75630  1.0000
  H   H3        1.0  0.38520  0.93830  0.35260  1.0000
  H   H4        1.0  0.61480  0.06170  0.64740  1.0000
  O   O15       1.0  0.39030  0.22050  0.03710  1.0000
  O   O16       1.0  0.60970  0.77950  0.96290  1.0000
  C   C3        1.0  0.67710  0.38870  0.23320  1.0000
  C   C4        1.0  0.32290  0.61130  0.76680  1.0000
  H   H5        1.0  0.69390  0.43740  0.26890  1.0000
  H   H6        1.0  0.30610  0.56260  0.73110  1.0000
  H   H7        1.0  0.64350  0.31510  0.29500  1.0000
  H   H8        1.0  0.35650  0.68490  0.70500  1.0000
  O   O17       1.0  0.48530  0.35420  0.13460  1.0000
  O   O18       1.0  0.51470  0.64580  0.86540  1.0000
  C   C5        1.0  0.82940  0.38480  0.14800  1.0000
  C   C6        1.0  0.17060  0.61520  0.85200  1.0000
  H   H9        1.0  0.90390  0.36650  0.18760  1.0000
  H   H10       1.0  0.09610  0.63350  0.81240  1.0000
  H   H11       1.0  0.86450  0.45780  0.08510  1.0000
  H   H12       1.0  0.13550  0.54220  0.91490  1.0000
  O   O19       1.0  0.12980  0.33830  0.96400  1.0000
  O   O20       1.0  0.87020  0.66170  0.03600  1.0000
  C   C7        1.0  0.58540  0.99760  0.21330  1.0000
  C   C8        1.0  0.41460  0.00240  0.78670  1.0000
  H   H13       1.0  0.62950  0.06990  0.15130  1.0000
  H   H14       1.0  0.37050  0.93010  0.84870  1.0000
  H   H15       1.0  0.56950  0.94970  0.17650  1.0000
  H   H16       1.0  0.43050  0.05030  0.82350  1.0000
  C   C9        1.0  0.82430  0.30210  0.09600  1.0000
  C   C10       1.0  0.17570  0.69790  0.90400  1.0000
  H   H17       1.0  0.78900  0.33640  0.03030  1.0000
  H   H18       1.0  0.21100  0.66360  0.96970  1.0000
  H   H19       1.0  0.74870  0.24000  0.15430  1.0000
  H   H20       1.0  0.25130  0.76000  0.84570  1.0000
  O   O21       1.0  0.56260  0.54970  0.09590  1.0000
  O   O22       1.0  0.43740  0.45030  0.90410  1.0000
  C   C11       1.0  0.43840  0.09190  0.34210  1.0000
  C   C12       1.0  0.56160  0.90810  0.65790  1.0000
  H   H21       1.0  0.51850  0.15180  0.28570  1.0000
  H   H22       1.0  0.48150  0.84820  0.71430  1.0000
  H   H23       1.0  0.46780  0.05550  0.41060  1.0000
  H   H24       1.0  0.53220  0.94450  0.58940  1.0000
  O   O23       1.0  0.16470  0.99480  0.03610  1.0000
  O   O24       1.0  0.83530  0.00520  0.96390  1.0000
  O   O25       1.0  0.96690  0.16810  0.00410  1.0000
  O   O26       1.0  0.03310  0.83190  0.99590  1.0000
  O   O27       1.0  0.85430  0.92340  0.19360  1.0000
  O   O28       1.0  0.14570  0.07660  0.80640  1.0000
  O   O29       1.0  0.38930  0.43130  0.28780  1.0000
  O   O30       1.0  0.61070  0.56870  0.71220  1.0000
  H   H25       1.0  0.36300  0.36740  0.33740  1.0000
  H   H26       1.0  0.63700  0.63260  0.66260  1.0000
  O   O31       1.0  0.63980  0.83550  0.38250  1.0000
  O   O32       1.0  0.36020  0.16450  0.61750  1.0000
  H   H27       1.0  0.67090  0.82500  0.43700  1.0000
  H   H28       1.0  0.32910  0.17500  0.56300  1.0000
  O   O33       1.0  0.28860  0.22730  0.43320  1.0000
  O   O34       1.0  0.71140  0.77270  0.56680  1.0000
