data_image0
_chemical_formula_structural       W4Se16Ag8Br4P8C8H16C16H8C8H8C8H8C8H8C8H8C16H8C8H8C8H8C8H8C8H8
_chemical_formula_sum              "W4 Se16 Ag8 Br4 P8 C104 H96"
_cell_length_a       11.354
_cell_length_b       17.356
_cell_length_c       21.544
_cell_angle_alpha    90
_cell_angle_beta     90
_cell_angle_gamma    90

_space_group_name_H-M_alt    "P 1"
_space_group_IT_number       1

loop_
  _space_group_symop_operation_xyz
  'x, y, z'

loop_
  _atom_site_type_symbol
  _atom_site_label
  _atom_site_symmetry_multiplicity
  _atom_site_fract_x
  _atom_site_fract_y
  _atom_site_fract_z
  _atom_site_occupancy
  W   W1        1.0  0.78647  0.25000  0.57030  1.0000
  W   W2        1.0  0.71353  0.75000  0.07030  1.0000
  W   W3        1.0  0.21353  0.75000  0.42970  1.0000
  W   W4        1.0  0.28647  0.25000  0.92970  1.0000
  Se  Se1       1.0  0.84090  0.25000  0.67149  1.0000
  Se  Se2       1.0  0.65910  0.75000  0.17149  1.0000
  Se  Se3       1.0  0.15910  0.75000  0.32851  1.0000
  Se  Se4       1.0  0.34090  0.25000  0.82851  1.0000
  Se  Se5       1.0  0.96674  0.25000  0.51401  1.0000
  Se  Se6       1.0  0.53326  0.75000  0.01401  1.0000
  Se  Se7       1.0  0.03326  0.75000  0.48599  1.0000
  Se  Se8       1.0  0.46674  0.25000  0.98599  1.0000
  Se  Se9       1.0  0.67569  0.13971  0.54889  1.0000
  Se  Se10      1.0  0.82431  0.86029  0.04889  1.0000
  Se  Se11      1.0  0.32431  0.63971  0.45111  1.0000
  Se  Se12      1.0  0.17569  0.36029  0.95111  1.0000
  Se  Se13      1.0  0.32431  0.86029  0.45111  1.0000
  Se  Se14      1.0  0.17569  0.13971  0.95111  1.0000
  Se  Se15      1.0  0.67569  0.36029  0.54889  1.0000
  Se  Se16      1.0  0.82431  0.63971  0.04889  1.0000
  Ag  Ag1       1.0  0.81976  0.15658  0.45363  1.0000
  Ag  Ag2       1.0  0.68024  0.84342  0.95363  1.0000
  Ag  Ag3       1.0  0.18024  0.65658  0.54637  1.0000
  Ag  Ag4       1.0  0.31976  0.34342  0.04637  1.0000
  Ag  Ag5       1.0  0.18024  0.84342  0.54637  1.0000
  Ag  Ag6       1.0  0.31976  0.15658  0.04637  1.0000
  Ag  Ag7       1.0  0.81976  0.34342  0.45363  1.0000
  Ag  Ag8       1.0  0.68024  0.65658  0.95363  1.0000
  Br  Br1       1.0  0.73515  0.25000  0.35777  1.0000
  Br  Br2       1.0  0.76485  0.75000  0.85777  1.0000
  Br  Br3       1.0  0.26485  0.75000  0.64223  1.0000
  Br  Br4       1.0  0.23515  0.25000  0.14223  1.0000
  P   P1        1.0  0.90160  0.03723  0.41553  1.0000
  P   P2        1.0  0.59840  0.96277  0.91553  1.0000
  P   P3        1.0  0.09840  0.53723  0.58447  1.0000
  P   P4        1.0  0.40160  0.46277  0.08447  1.0000
  P   P5        1.0  0.09840  0.96277  0.58447  1.0000
  P   P6        1.0  0.40160  0.03723  0.08447  1.0000
  P   P7        1.0  0.90160  0.46277  0.41553  1.0000
  P   P8        1.0  0.59840  0.53723  0.91553  1.0000
  C   C1        1.0  0.95620  0.98020  0.48010  1.0000
  C   C2        1.0  0.54380  0.01980  0.98010  1.0000
  C   C3        1.0  0.04380  0.48020  0.51990  1.0000
  C   C4        1.0  0.45620  0.51980  0.01990  1.0000
  C   C5        1.0  0.04380  0.01980  0.51990  1.0000
  C   C6        1.0  0.45620  0.98020  0.01990  1.0000
  C   C7        1.0  0.95620  0.51980  0.48010  1.0000
  C   C8        1.0  0.54380  0.48020  0.98010  1.0000
  H   H1        1.0  0.88990  0.96500  0.50560  1.0000
  H   H2        1.0  0.61010  0.03500  0.00560  1.0000
  H   H3        1.0  0.11010  0.46500  0.49440  1.0000
  H   H4        1.0  0.38990  0.53500  0.99440  1.0000
  H   H5        1.0  0.11010  0.03500  0.49440  1.0000
  H   H6        1.0  0.38990  0.96500  0.99440  1.0000
  H   H7        1.0  0.88990  0.53500  0.50560  1.0000
  H   H8        1.0  0.61010  0.46500  0.00560  1.0000
  H   H9        1.0  0.99170  0.93360  0.46370  1.0000
  H   H10       1.0  0.50830  0.06640  0.96370  1.0000
  H   H11       1.0  0.00830  0.43360  0.53630  1.0000
  H   H12       1.0  0.49170  0.56640  0.03630  1.0000
  H   H13       1.0  0.00830  0.06640  0.53630  1.0000
  H   H14       1.0  0.49170  0.93360  0.03630  1.0000
  H   H15       1.0  0.99170  0.56640  0.46370  1.0000
  H   H16       1.0  0.50830  0.43360  0.96370  1.0000
  C   C9        1.0  0.79990  0.97220  0.37680  1.0000
  C   C10       1.0  0.70010  0.02780  0.87680  1.0000
  C   C11       1.0  0.20010  0.47220  0.62320  1.0000
  C   C12       1.0  0.29990  0.52780  0.12320  1.0000
  C   C13       1.0  0.20010  0.02780  0.62320  1.0000
  C   C14       1.0  0.29990  0.97220  0.12320  1.0000
  C   C15       1.0  0.79990  0.52780  0.37680  1.0000
  C   C16       1.0  0.70010  0.47220  0.87680  1.0000
  C   C17       1.0  0.68120  0.98650  0.38420  1.0000
  C   C18       1.0  0.81880  0.01350  0.88420  1.0000
  C   C19       1.0  0.31880  0.48650  0.61580  1.0000
  C   C20       1.0  0.18120  0.51350  0.11580  1.0000
  C   C21       1.0  0.31880  0.01350  0.61580  1.0000
  C   C22       1.0  0.18120  0.98650  0.11580  1.0000
  C   C23       1.0  0.68120  0.51350  0.38420  1.0000
  C   C24       1.0  0.81880  0.48650  0.88420  1.0000
  H   H17       1.0  0.65650  0.02890  0.40720  1.0000
  H   H18       1.0  0.84350  0.97110  0.90720  1.0000
  H   H19       1.0  0.34350  0.52890  0.59280  1.0000
  H   H20       1.0  0.15650  0.47110  0.09280  1.0000
  H   H21       1.0  0.34350  0.97110  0.59280  1.0000
  H   H22       1.0  0.15650  0.02890  0.09280  1.0000
  H   H23       1.0  0.65650  0.47110  0.40720  1.0000
  H   H24       1.0  0.84350  0.52890  0.90720  1.0000
  C   C25       1.0  0.59830  0.93790  0.35740  1.0000
  C   C26       1.0  0.90170  0.06210  0.85740  1.0000
  C   C27       1.0  0.40170  0.43790  0.64260  1.0000
  C   C28       1.0  0.09830  0.56210  0.14260  1.0000
  C   C29       1.0  0.40170  0.06210  0.64260  1.0000
  C   C30       1.0  0.09830  0.93790  0.14260  1.0000
  C   C31       1.0  0.59830  0.56210  0.35740  1.0000
  C   C32       1.0  0.90170  0.43790  0.85740  1.0000
  H   H25       1.0  0.51860  0.94680  0.36430  1.0000
  H   H26       1.0  0.98140  0.05320  0.86430  1.0000
  H   H27       1.0  0.48140  0.44680  0.63570  1.0000
  H   H28       1.0  0.01860  0.55320  0.13570  1.0000
  H   H29       1.0  0.48140  0.05320  0.63570  1.0000
  H   H30       1.0  0.01860  0.94680  0.13570  1.0000
  H   H31       1.0  0.51860  0.55320  0.36430  1.0000
  H   H32       1.0  0.98140  0.44680  0.86430  1.0000
  C   C33       1.0  0.63200  0.87790  0.32130  1.0000
  C   C34       1.0  0.86800  0.12210  0.82130  1.0000
  C   C35       1.0  0.36800  0.37790  0.67870  1.0000
  C   C36       1.0  0.13200  0.62210  0.17870  1.0000
  C   C37       1.0  0.36800  0.12210  0.67870  1.0000
  C   C38       1.0  0.13200  0.87790  0.17870  1.0000
  C   C39       1.0  0.63200  0.62210  0.32130  1.0000
  C   C40       1.0  0.86800  0.37790  0.82130  1.0000
  H   H33       1.0  0.57700  0.84590  0.30230  1.0000
  H   H34       1.0  0.92300  0.15410  0.80230  1.0000
  H   H35       1.0  0.42300  0.34590  0.69770  1.0000
  H   H36       1.0  0.07700  0.65410  0.19770  1.0000
  H   H37       1.0  0.42300  0.15410  0.69770  1.0000
  H   H38       1.0  0.07700  0.84590  0.19770  1.0000
  H   H39       1.0  0.57700  0.65410  0.30230  1.0000
  H   H40       1.0  0.92300  0.34590  0.80230  1.0000
  C   C41       1.0  0.74500  0.86680  0.31450  1.0000
  C   C42       1.0  0.75500  0.13320  0.81450  1.0000
  C   C43       1.0  0.25500  0.36680  0.68550  1.0000
  C   C44       1.0  0.24500  0.63320  0.18550  1.0000
  C   C45       1.0  0.25500  0.13320  0.68550  1.0000
  C   C46       1.0  0.24500  0.86680  0.18550  1.0000
  C   C47       1.0  0.74500  0.63320  0.31450  1.0000
  C   C48       1.0  0.75500  0.36680  0.81450  1.0000
  H   H41       1.0  0.76950  0.82570  0.29000  1.0000
  H   H42       1.0  0.73050  0.17430  0.79000  1.0000
  H   H43       1.0  0.23050  0.32570  0.71000  1.0000
  H   H44       1.0  0.26950  0.67430  0.21000  1.0000
  H   H45       1.0  0.23050  0.17430  0.71000  1.0000
  H   H46       1.0  0.26950  0.82570  0.21000  1.0000
  H   H47       1.0  0.76950  0.67430  0.29000  1.0000
  H   H48       1.0  0.73050  0.32570  0.79000  1.0000
  C   C49       1.0  0.82870  0.91170  0.34090  1.0000
  C   C50       1.0  0.67130  0.08830  0.84090  1.0000
  C   C51       1.0  0.17130  0.41170  0.65910  1.0000
  C   C52       1.0  0.32870  0.58830  0.15910  1.0000
  C   C53       1.0  0.17130  0.08830  0.65910  1.0000
  C   C54       1.0  0.32870  0.91170  0.15910  1.0000
  C   C55       1.0  0.82870  0.58830  0.34090  1.0000
  C   C56       1.0  0.67130  0.41170  0.84090  1.0000
  H   H49       1.0  0.90780  0.90050  0.33400  1.0000
  H   H50       1.0  0.59220  0.09950  0.83400  1.0000
  H   H51       1.0  0.09220  0.40050  0.66600  1.0000
  H   H52       1.0  0.40780  0.59950  0.16600  1.0000
  H   H53       1.0  0.09220  0.09950  0.66600  1.0000
  H   H54       1.0  0.40780  0.90050  0.16600  1.0000
  H   H55       1.0  0.90780  0.59950  0.33400  1.0000
  H   H56       1.0  0.59220  0.40050  0.83400  1.0000
  C   C57       1.0  0.02250  0.04450  0.36100  1.0000
  C   C58       1.0  0.47750  0.95550  0.86100  1.0000
  C   C59       1.0  0.97750  0.54450  0.63900  1.0000
  C   C60       1.0  0.52250  0.45550  0.13900  1.0000
  C   C61       1.0  0.97750  0.95550  0.63900  1.0000
  C   C62       1.0  0.52250  0.04450  0.13900  1.0000
  C   C63       1.0  0.02250  0.45550  0.36100  1.0000
  C   C64       1.0  0.47750  0.54450  0.86100  1.0000
  C   C65       1.0  0.02160  0.10730  0.32290  1.0000
  C   C66       1.0  0.47840  0.89270  0.82290  1.0000
  C   C67       1.0  0.97840  0.60730  0.67710  1.0000
  C   C68       1.0  0.52160  0.39270  0.17710  1.0000
  C   C69       1.0  0.97840  0.89270  0.67710  1.0000
  C   C70       1.0  0.52160  0.10730  0.17710  1.0000
  C   C71       1.0  0.02160  0.39270  0.32290  1.0000
  C   C72       1.0  0.47840  0.60730  0.82290  1.0000
  H   H57       1.0  0.96230  0.14410  0.32590  1.0000
  H   H58       1.0  0.53770  0.85590  0.82590  1.0000
  H   H59       1.0  0.03770  0.64410  0.67410  1.0000
  H   H60       1.0  0.46230  0.35590  0.17410  1.0000
  H   H61       1.0  0.03770  0.85590  0.67410  1.0000
  H   H62       1.0  0.46230  0.14410  0.17410  1.0000
  H   H63       1.0  0.96230  0.35590  0.32590  1.0000
  H   H64       1.0  0.53770  0.64410  0.82590  1.0000
  C   C73       1.0  0.11340  0.11510  0.27860  1.0000
  C   C74       1.0  0.38660  0.88490  0.77860  1.0000
  C   C75       1.0  0.88660  0.61510  0.72140  1.0000
  C   C76       1.0  0.61340  0.38490  0.22140  1.0000
  C   C77       1.0  0.88660  0.88490  0.72140  1.0000
  C   C78       1.0  0.61340  0.11510  0.22140  1.0000
  C   C79       1.0  0.11340  0.38490  0.27860  1.0000
  C   C80       1.0  0.38660  0.61510  0.77860  1.0000
  H   H65       1.0  0.11440  0.15700  0.25160  1.0000
  H   H66       1.0  0.38560  0.84300  0.75160  1.0000
  H   H67       1.0  0.88560  0.65700  0.74840  1.0000
  H   H68       1.0  0.61440  0.34300  0.24840  1.0000
  H   H69       1.0  0.88560  0.84300  0.74840  1.0000
  H   H70       1.0  0.61440  0.15700  0.24840  1.0000
  H   H71       1.0  0.11440  0.34300  0.25160  1.0000
  H   H72       1.0  0.38560  0.65700  0.75160  1.0000
  C   C81       1.0  0.20160  0.05990  0.27570  1.0000
  C   C82       1.0  0.29840  0.94010  0.77570  1.0000
  C   C83       1.0  0.79840  0.55990  0.72430  1.0000
  C   C84       1.0  0.70160  0.44010  0.22430  1.0000
  C   C85       1.0  0.79840  0.94010  0.72430  1.0000
  C   C86       1.0  0.70160  0.05990  0.22430  1.0000
  C   C87       1.0  0.20160  0.44010  0.27570  1.0000
  C   C88       1.0  0.29840  0.55990  0.77570  1.0000
  H   H73       1.0  0.26130  0.06480  0.24640  1.0000
  H   H74       1.0  0.23870  0.93520  0.74640  1.0000
  H   H75       1.0  0.73870  0.56480  0.75360  1.0000
  H   H76       1.0  0.76130  0.43520  0.25360  1.0000
  H   H77       1.0  0.73870  0.93520  0.75360  1.0000
  H   H78       1.0  0.76130  0.06480  0.25360  1.0000
  H   H79       1.0  0.26130  0.43520  0.24640  1.0000
  H   H80       1.0  0.23870  0.56480  0.74640  1.0000
  C   C89       1.0  0.20180  0.99780  0.31580  1.0000
  C   C90       1.0  0.29820  0.00220  0.81580  1.0000
  C   C91       1.0  0.79820  0.49780  0.68420  1.0000
  C   C92       1.0  0.70180  0.50220  0.18420  1.0000
  C   C93       1.0  0.79820  0.00220  0.68420  1.0000
  C   C94       1.0  0.70180  0.99780  0.18420  1.0000
  C   C95       1.0  0.20180  0.50220  0.31580  1.0000
  C   C96       1.0  0.29820  0.49780  0.81580  1.0000
  H   H81       1.0  0.26110  0.96090  0.31490  1.0000
  H   H82       1.0  0.23890  0.03910  0.81490  1.0000
  H   H83       1.0  0.73890  0.46090  0.68510  1.0000
  H   H84       1.0  0.76110  0.53910  0.18510  1.0000
  H   H85       1.0  0.73890  0.03910  0.68510  1.0000
  H   H86       1.0  0.76110  0.96090  0.18510  1.0000
  H   H87       1.0  0.26110  0.53910  0.31490  1.0000
  H   H88       1.0  0.23890  0.46090  0.81490  1.0000
  C   C97       1.0  0.11160  0.99340  0.35650  1.0000
  C   C98       1.0  0.38840  0.00660  0.85650  1.0000
  C   C99       1.0  0.88840  0.49340  0.64350  1.0000
  C   C100      1.0  0.61160  0.50660  0.14350  1.0000
  C   C101      1.0  0.88840  0.00660  0.64350  1.0000
  C   C102      1.0  0.61160  0.99340  0.14350  1.0000
  C   C103      1.0  0.11160  0.50660  0.35650  1.0000
  C   C104      1.0  0.38840  0.49340  0.85650  1.0000
  H   H89       1.0  0.11080  0.95160  0.38350  1.0000
  H   H90       1.0  0.38920  0.04840  0.88350  1.0000
  H   H91       1.0  0.88920  0.45160  0.61650  1.0000
  H   H92       1.0  0.61080  0.54840  0.11650  1.0000
  H   H93       1.0  0.88920  0.04840  0.61650  1.0000
  H   H94       1.0  0.61080  0.95160  0.11650  1.0000
  H   H95       1.0  0.11080  0.54840  0.38350  1.0000
  H   H96       1.0  0.38920  0.45160  0.88350  1.0000
