data_image0
_chemical_formula_structural       W4Se16Ag12Br4C4H8C4H8C8H4C4H4C4H4C4H4C4H4C8H4C4H4C4H4C4H4C4H4C8H4C4H4C4H4C4H4C4H4C8H4C4H4C4H4C4H4C4H4Cl4P8
_chemical_formula_sum              "W4 Se16 Ag12 Br4 C104 H96 Cl4 P8"
_cell_length_a       22.155
_cell_length_b       11.8665
_cell_length_c       18.844
_cell_angle_alpha    90
_cell_angle_beta     106.054
_cell_angle_gamma    90

_space_group_name_H-M_alt    "P 1"
_space_group_IT_number       1

loop_
  _space_group_symop_operation_xyz
  'x, y, z'

loop_
  _atom_site_type_symbol
  _atom_site_label
  _atom_site_symmetry_multiplicity
  _atom_site_fract_x
  _atom_site_fract_y
  _atom_site_fract_z
  _atom_site_occupancy
  W   W1        1.0  0.14466  0.22798  0.35367  1.0000
  W   W2        1.0  0.14466  0.77202  0.85367  1.0000
  W   W3        1.0  0.64466  0.72798  0.35367  1.0000
  W   W4        1.0  0.64466  0.27202  0.85367  1.0000
  Se  Se1       1.0  0.21040  0.08450  0.34580  1.0000
  Se  Se2       1.0  0.21040  0.91550  0.84580  1.0000
  Se  Se3       1.0  0.71040  0.58450  0.34580  1.0000
  Se  Se4       1.0  0.71040  0.41550  0.84580  1.0000
  Se  Se5       1.0  0.04542  0.19810  0.26570  1.0000
  Se  Se6       1.0  0.04542  0.80190  0.76570  1.0000
  Se  Se7       1.0  0.54542  0.69810  0.26570  1.0000
  Se  Se8       1.0  0.54542  0.30190  0.76570  1.0000
  Se  Se9       1.0  0.19050  0.40610  0.32775  1.0000
  Se  Se10      1.0  0.19050  0.59390  0.82775  1.0000
  Se  Se11      1.0  0.69050  0.90610  0.32775  1.0000
  Se  Se12      1.0  0.69050  0.09390  0.82775  1.0000
  Se  Se13      1.0  0.13760  0.22690  0.47680  1.0000
  Se  Se14      1.0  0.13760  0.77310  0.97680  1.0000
  Se  Se15      1.0  0.63760  0.72690  0.47680  1.0000
  Se  Se16      1.0  0.63760  0.27310  0.97680  1.0000
  Ag  Ag1       1.0  0.06309  0.41690  0.26346  1.0000
  Ag  Ag2       1.0  0.06309  0.58310  0.76346  1.0000
  Ag  Ag3       1.0  0.56309  0.91690  0.26346  1.0000
  Ag  Ag4       1.0  0.56309  0.08310  0.76346  1.0000
  Ag  Ag5       1.0  0.14985  0.44367  0.44271  1.0000
  Ag  Ag6       1.0  0.14985  0.55633  0.94271  1.0000
  Ag  Ag7       1.0  0.64985  0.94367  0.44271  1.0000
  Ag  Ag8       1.0  0.64985  0.05633  0.94271  1.0000
  Ag  Ag9       1.0  0.03246  0.24070  0.38830  1.0000
  Ag  Ag10      1.0  0.03246  0.75930  0.88830  1.0000
  Ag  Ag11      1.0  0.53246  0.74070  0.38830  1.0000
  Ag  Ag12      1.0  0.53246  0.25930  0.88830  1.0000
  Br  Br1       1.0  0.02250  0.49200  0.37830  1.0000
  Br  Br2       1.0  0.02250  0.50800  0.87830  1.0000
  Br  Br3       1.0  0.52250  0.99200  0.37830  1.0000
  Br  Br4       1.0  0.52250  0.00800  0.87830  1.0000
  C   C1        1.0  0.15020  0.49200  0.62270  1.0000
  C   C2        1.0  0.15020  0.50800  0.12270  1.0000
  C   C3        1.0  0.65020  0.99200  0.62270  1.0000
  C   C4        1.0  0.65020  0.00800  0.12270  1.0000
  H   H1        1.0  0.16450  0.41610  0.63660  1.0000
  H   H2        1.0  0.16450  0.58390  0.13660  1.0000
  H   H3        1.0  0.66450  0.91610  0.63660  1.0000
  H   H4        1.0  0.66450  0.08390  0.13660  1.0000
  H   H5        1.0  0.16170  0.53880  0.66670  1.0000
  H   H6        1.0  0.16170  0.46120  0.16670  1.0000
  H   H7        1.0  0.66170  0.03880  0.66670  1.0000
  H   H8        1.0  0.66170  0.96120  0.16670  1.0000
  C   C5        1.0  0.07510  0.49200  0.58940  1.0000
  C   C6        1.0  0.07510  0.50800  0.08940  1.0000
  C   C7        1.0  0.57510  0.99200  0.58940  1.0000
  C   C8        1.0  0.57510  0.00800  0.08940  1.0000
  H   H9        1.0  0.06330  0.43760  0.54970  1.0000
  H   H10       1.0  0.06330  0.56240  0.04970  1.0000
  H   H11       1.0  0.56330  0.93760  0.54970  1.0000
  H   H12       1.0  0.56330  0.06240  0.04970  1.0000
  H   H13       1.0  0.06160  0.56610  0.56880  1.0000
  H   H14       1.0  0.06160  0.43390  0.06880  1.0000
  H   H15       1.0  0.56160  0.06610  0.56880  1.0000
  H   H16       1.0  0.56160  0.93390  0.06880  1.0000
  C   C9        1.0  0.05990  0.31500  0.68150  1.0000
  C   C10       1.0  0.05990  0.68500  0.18150  1.0000
  C   C11       1.0  0.55990  0.81500  0.68150  1.0000
  C   C12       1.0  0.55990  0.18500  0.18150  1.0000
  C   C13       1.0  0.10030  0.29200  0.74580  1.0000
  C   C14       1.0  0.10030  0.70800  0.24580  1.0000
  C   C15       1.0  0.60030  0.79200  0.74580  1.0000
  C   C16       1.0  0.60030  0.20800  0.24580  1.0000
  H   H17       1.0  0.11850  0.34670  0.78020  1.0000
  H   H18       1.0  0.11850  0.65330  0.28020  1.0000
  H   H19       1.0  0.61850  0.84670  0.78020  1.0000
  H   H20       1.0  0.61850  0.15330  0.28020  1.0000
  C   C17       1.0  0.11500  0.16200  0.75900  1.0000
  C   C18       1.0  0.11500  0.83800  0.25900  1.0000
  C   C19       1.0  0.61500  0.66200  0.75900  1.0000
  C   C20       1.0  0.61500  0.33800  0.25900  1.0000
  H   H21       1.0  0.13920  0.13800  0.80460  1.0000
  H   H22       1.0  0.13920  0.86200  0.30460  1.0000
  H   H23       1.0  0.63920  0.63800  0.80460  1.0000
  H   H24       1.0  0.63920  0.36200  0.30460  1.0000
  C   C21       1.0  0.09200  0.08000  0.70100  1.0000
  C   C22       1.0  0.09200  0.92000  0.20100  1.0000
  C   C23       1.0  0.59200  0.58000  0.70100  1.0000
  C   C24       1.0  0.59200  0.42000  0.20100  1.0000
  H   H25       1.0  0.09830  0.00340  0.70990  1.0000
  H   H26       1.0  0.09830  0.99660  0.20990  1.0000
  H   H27       1.0  0.59830  0.50340  0.70990  1.0000
  H   H28       1.0  0.59830  0.49660  0.20990  1.0000
  C   C25       1.0  0.06280  0.11600  0.64200  1.0000
  C   C26       1.0  0.06280  0.88400  0.14200  1.0000
  C   C27       1.0  0.56280  0.61600  0.64200  1.0000
  C   C28       1.0  0.56280  0.38400  0.14200  1.0000
  H   H29       1.0  0.05600  0.06720  0.60190  1.0000
  H   H30       1.0  0.05600  0.93280  0.10190  1.0000
  H   H31       1.0  0.55600  0.56720  0.60190  1.0000
  H   H32       1.0  0.55600  0.43280  0.10190  1.0000
  C   C29       1.0  0.03800  0.23000  0.62700  1.0000
  C   C30       1.0  0.03800  0.77000  0.12700  1.0000
  C   C31       1.0  0.53800  0.73000  0.62700  1.0000
  C   C32       1.0  0.53800  0.27000  0.12700  1.0000
  H   H33       1.0  0.00840  0.24660  0.58260  1.0000
  H   H34       1.0  0.00840  0.75340  0.08260  1.0000
  H   H35       1.0  0.50840  0.74660  0.58260  1.0000
  H   H36       1.0  0.50840  0.25340  0.08260  1.0000
  C   C33       1.0  0.95640  0.45400  0.60960  1.0000
  C   C34       1.0  0.95640  0.54600  0.10960  1.0000
  C   C35       1.0  0.45640  0.95400  0.60960  1.0000
  C   C36       1.0  0.45640  0.04600  0.10960  1.0000
  C   C37       1.0  0.91020  0.43200  0.64600  1.0000
  C   C38       1.0  0.91020  0.56800  0.14600  1.0000
  C   C39       1.0  0.41020  0.93200  0.64600  1.0000
  C   C40       1.0  0.41020  0.06800  0.14600  1.0000
  H   H37       1.0  0.92400  0.41810  0.69670  1.0000
  H   H38       1.0  0.92400  0.58190  0.19670  1.0000
  H   H39       1.0  0.42400  0.91810  0.69670  1.0000
  H   H40       1.0  0.42400  0.08190  0.19670  1.0000
  C   C41       1.0  0.84530  0.43100  0.61300  1.0000
  C   C42       1.0  0.84530  0.56900  0.11300  1.0000
  C   C43       1.0  0.34530  0.93100  0.61300  1.0000
  C   C44       1.0  0.34530  0.06900  0.11300  1.0000
  H   H41       1.0  0.81600  0.43050  0.64050  1.0000
  H   H42       1.0  0.81600  0.56950  0.14050  1.0000
  H   H43       1.0  0.31600  0.93050  0.64050  1.0000
  H   H44       1.0  0.31600  0.06950  0.14050  1.0000
  C   C45       1.0  0.82820  0.42900  0.53600  1.0000
  C   C46       1.0  0.82820  0.57100  0.03600  1.0000
  C   C47       1.0  0.32820  0.92900  0.53600  1.0000
  C   C48       1.0  0.32820  0.07100  0.03600  1.0000
  H   H45       1.0  0.78550  0.42770  0.51150  1.0000
  H   H46       1.0  0.78550  0.57230  0.01150  1.0000
  H   H47       1.0  0.28550  0.92770  0.51150  1.0000
  H   H48       1.0  0.28550  0.07230  0.01150  1.0000
  C   C49       1.0  0.86940  0.43100  0.49200  1.0000
  C   C50       1.0  0.86940  0.56900  0.99200  1.0000
  C   C51       1.0  0.36940  0.93100  0.49200  1.0000
  C   C52       1.0  0.36940  0.06900  0.99200  1.0000
  H   H49       1.0  0.85640  0.42390  0.44080  1.0000
  H   H50       1.0  0.85640  0.57610  0.94080  1.0000
  H   H51       1.0  0.35640  0.92390  0.44080  1.0000
  H   H52       1.0  0.35640  0.07610  0.94080  1.0000
  C   C53       1.0  0.93420  0.44300  0.53300  1.0000
  C   C54       1.0  0.93420  0.55700  0.03300  1.0000
  C   C55       1.0  0.43420  0.94300  0.53300  1.0000
  C   C56       1.0  0.43420  0.05700  0.03300  1.0000
  H   H53       1.0  0.96390  0.44440  0.50680  1.0000
  H   H54       1.0  0.96390  0.55560  0.00680  1.0000
  H   H55       1.0  0.46390  0.94440  0.50680  1.0000
  H   H56       1.0  0.46390  0.05560  0.00680  1.0000
  C   C57       1.0  0.17410  0.70100  0.55690  1.0000
  C   C58       1.0  0.17410  0.29900  0.05690  1.0000
  C   C59       1.0  0.67410  0.20100  0.55690  1.0000
  C   C60       1.0  0.67410  0.79900  0.05690  1.0000
  C   C61       1.0  0.18520  0.76300  0.62140  1.0000
  C   C62       1.0  0.18520  0.23700  0.12140  1.0000
  C   C63       1.0  0.68520  0.26300  0.62140  1.0000
  C   C64       1.0  0.68520  0.73700  0.12140  1.0000
  H   H57       1.0  0.20010  0.72320  0.66510  1.0000
  H   H58       1.0  0.20010  0.27680  0.16510  1.0000
  H   H59       1.0  0.70010  0.22320  0.66510  1.0000
  H   H60       1.0  0.70010  0.77680  0.16510  1.0000
  C   C65       1.0  0.17760  0.87000  0.62850  1.0000
  C   C66       1.0  0.17760  0.13000  0.12850  1.0000
  C   C67       1.0  0.67760  0.37000  0.62850  1.0000
  C   C68       1.0  0.67760  0.63000  0.12850  1.0000
  H   H61       1.0  0.18570  0.90460  0.67450  1.0000
  H   H62       1.0  0.18570  0.09540  0.17450  1.0000
  H   H63       1.0  0.68570  0.40460  0.67450  1.0000
  H   H64       1.0  0.68570  0.59540  0.17450  1.0000
  C   C69       1.0  0.15640  0.93000  0.56300  1.0000
  C   C70       1.0  0.15640  0.07000  0.06300  1.0000
  C   C71       1.0  0.65640  0.43000  0.56300  1.0000
  C   C72       1.0  0.65640  0.57000  0.06300  1.0000
  H   H65       1.0  0.14820  0.00670  0.56350  1.0000
  H   H66       1.0  0.14820  0.99330  0.06350  1.0000
  H   H67       1.0  0.64820  0.50670  0.56350  1.0000
  H   H68       1.0  0.64820  0.49330  0.06350  1.0000
  C   C73       1.0  0.14710  0.86500  0.49200  1.0000
  C   C74       1.0  0.14710  0.13500  0.99200  1.0000
  C   C75       1.0  0.64710  0.36500  0.49200  1.0000
  C   C76       1.0  0.64710  0.63500  0.99200  1.0000
  H   H69       1.0  0.13500  0.90520  0.44800  1.0000
  H   H70       1.0  0.13500  0.09480  0.94800  1.0000
  H   H71       1.0  0.63500  0.40520  0.44800  1.0000
  H   H72       1.0  0.63500  0.59480  0.94800  1.0000
  C   C77       1.0  0.15530  0.75500  0.48830  1.0000
  C   C78       1.0  0.15530  0.24500  0.98830  1.0000
  C   C79       1.0  0.65530  0.25500  0.48830  1.0000
  C   C80       1.0  0.65530  0.74500  0.98830  1.0000
  H   H73       1.0  0.14900  0.71660  0.44380  1.0000
  H   H74       1.0  0.14900  0.28340  0.94380  1.0000
  H   H75       1.0  0.64900  0.21660  0.44380  1.0000
  H   H76       1.0  0.64900  0.78340  0.94380  1.0000
  C   C81       1.0  0.27320  0.54100  0.60400  1.0000
  C   C82       1.0  0.27320  0.45900  0.10400  1.0000
  C   C83       1.0  0.77320  0.04100  0.60400  1.0000
  C   C84       1.0  0.77320  0.95900  0.10400  1.0000
  C   C85       1.0  0.31140  0.60400  0.57100  1.0000
  C   C86       1.0  0.31140  0.39600  0.07100  1.0000
  C   C87       1.0  0.81140  0.10400  0.57100  1.0000
  C   C88       1.0  0.81140  0.89600  0.07100  1.0000
  H   H77       1.0  0.29590  0.65270  0.53180  1.0000
  H   H78       1.0  0.29590  0.34730  0.03180  1.0000
  H   H79       1.0  0.79590  0.15270  0.53180  1.0000
  H   H80       1.0  0.79590  0.84730  0.03180  1.0000
  C   C89       1.0  0.38000  0.58500  0.60600  1.0000
  C   C90       1.0  0.38000  0.41500  0.10600  1.0000
  C   C91       1.0  0.88000  0.08500  0.60600  1.0000
  C   C92       1.0  0.88000  0.91500  0.10600  1.0000
  H   H81       1.0  0.40680  0.62240  0.58410  1.0000
  H   H82       1.0  0.40680  0.37760  0.08410  1.0000
  H   H83       1.0  0.90680  0.12240  0.58410  1.0000
  H   H84       1.0  0.90680  0.87760  0.08410  1.0000
  C   C93       1.0  0.40500  0.52600  0.65900  1.0000
  C   C94       1.0  0.40500  0.47400  0.15900  1.0000
  C   C95       1.0  0.90500  0.02600  0.65900  1.0000
  C   C96       1.0  0.90500  0.97400  0.15900  1.0000
  H   H85       1.0  0.44850  0.51540  0.67560  1.0000
  H   H86       1.0  0.44850  0.48460  0.17560  1.0000
  H   H87       1.0  0.94850  0.01540  0.67560  1.0000
  H   H88       1.0  0.94850  0.98460  0.17560  1.0000
  C   C97       1.0  0.36470  0.48000  0.69100  1.0000
  C   C98       1.0  0.36470  0.52000  0.19100  1.0000
  C   C99       1.0  0.86470  0.98000  0.69100  1.0000
  C   C100      1.0  0.86470  0.02000  0.19100  1.0000
  H   H89       1.0  0.38220  0.44450  0.73630  1.0000
  H   H90       1.0  0.38220  0.55550  0.23630  1.0000
  H   H91       1.0  0.88220  0.94450  0.73630  1.0000
  H   H92       1.0  0.88220  0.05550  0.23630  1.0000
  C   C101      1.0  0.29750  0.47900  0.66600  1.0000
  C   C102      1.0  0.29750  0.52100  0.16600  1.0000
  C   C103      1.0  0.79750  0.97900  0.66600  1.0000
  C   C104      1.0  0.79750  0.02100  0.16600  1.0000
  H   H93       1.0  0.27260  0.43850  0.68920  1.0000
  H   H94       1.0  0.27260  0.56150  0.18920  1.0000
  H   H95       1.0  0.77260  0.93850  0.68920  1.0000
  H   H96       1.0  0.77260  0.06150  0.18920  1.0000
  Cl  Cl1       1.0  0.94080  0.16370  0.43160  1.0000
  Cl  Cl2       1.0  0.94080  0.83630  0.93160  1.0000
  Cl  Cl3       1.0  0.44080  0.66370  0.43160  1.0000
  Cl  Cl4       1.0  0.44080  0.33630  0.93160  1.0000
  P   P1        1.0  0.18810  0.54530  0.55630  1.0000
  P   P2        1.0  0.18810  0.45470  0.05630  1.0000
  P   P3        1.0  0.68810  0.04530  0.55630  1.0000
  P   P4        1.0  0.68810  0.95470  0.05630  1.0000
  P   P5        1.0  0.03580  0.45940  0.65810  1.0000
  P   P6        1.0  0.03580  0.54060  0.15810  1.0000
  P   P7        1.0  0.53580  0.95940  0.65810  1.0000
  P   P8        1.0  0.53580  0.04060  0.15810  1.0000
