data_image0
_chemical_formula_structural       Sn4O24C76Sn4O24C76H232
_chemical_formula_sum              "Sn8 O48 C152 H232"
_cell_length_a       18.1212
_cell_length_b       18.0363
_cell_length_c       21.8937
_cell_angle_alpha    90
_cell_angle_beta     98.454
_cell_angle_gamma    90

_space_group_name_H-M_alt    "P 1"
_space_group_IT_number       1

loop_
  _space_group_symop_operation_xyz
  'x, y, z'

loop_
  _atom_site_type_symbol
  _atom_site_label
  _atom_site_symmetry_multiplicity
  _atom_site_fract_x
  _atom_site_fract_y
  _atom_site_fract_z
  _atom_site_occupancy
  Sn  Sn1       1.0  0.38443  0.24258  0.98120  1.0000
  Sn  Sn2       1.0  0.38443  0.25742  0.48120  1.0000
  Sn  Sn3       1.0  0.61557  0.75742  0.01880  1.0000
  Sn  Sn4       1.0  0.61557  0.74258  0.51880  1.0000
  O   O1        1.0  0.37380  0.18350  0.07180  1.0000
  O   O2        1.0  0.37380  0.31650  0.57180  1.0000
  O   O3        1.0  0.62620  0.81650  0.92820  1.0000
  O   O4        1.0  0.62620  0.68350  0.42820  1.0000
  O   O5        1.0  0.42800  0.27290  0.13290  1.0000
  O   O6        1.0  0.42800  0.22710  0.63290  1.0000
  O   O7        1.0  0.57200  0.72710  0.86710  1.0000
  O   O8        1.0  0.57200  0.77290  0.36710  1.0000
  O   O9        1.0  0.38240  0.19680  0.38900  1.0000
  O   O10       1.0  0.38240  0.30320  0.88900  1.0000
  O   O11       1.0  0.61760  0.80320  0.61100  1.0000
  O   O12       1.0  0.61760  0.69680  0.11100  1.0000
  O   O13       1.0  0.44610  0.27550  0.33720  1.0000
  O   O14       1.0  0.44610  0.22450  0.83720  1.0000
  O   O15       1.0  0.55390  0.72450  0.66280  1.0000
  O   O16       1.0  0.55390  0.77550  0.16280  1.0000
  O   O17       1.0  0.39990  0.20440  0.23240  1.0000
  O   O18       1.0  0.39990  0.29560  0.73240  1.0000
  O   O19       1.0  0.60010  0.79560  0.76760  1.0000
  O   O20       1.0  0.60010  0.70440  0.26760  1.0000
  O   O21       1.0  0.31310  0.99690  0.22970  1.0000
  O   O22       1.0  0.31310  0.50310  0.72970  1.0000
  O   O23       1.0  0.68690  0.00310  0.77030  1.0000
  O   O24       1.0  0.68690  0.49690  0.27030  1.0000
  C   C1        1.0  0.32740  0.15000  0.93630  1.0000
  C   C2        1.0  0.32740  0.35000  0.43630  1.0000
  C   C3        1.0  0.67260  0.85000  0.06370  1.0000
  C   C4        1.0  0.67260  0.65000  0.56370  1.0000
  C   C5        1.0  0.24410  0.15420  0.94010  1.0000
  C   C6        1.0  0.24410  0.34580  0.44010  1.0000
  C   C7        1.0  0.75590  0.84580  0.05990  1.0000
  C   C8        1.0  0.75590  0.65420  0.55990  1.0000
  C   C9        1.0  0.20250  0.08560  0.91470  1.0000
  C   C10       1.0  0.20250  0.41440  0.41470  1.0000
  C   C11       1.0  0.79750  0.91440  0.08530  1.0000
  C   C12       1.0  0.79750  0.58560  0.58530  1.0000
  C   C13       1.0  0.11950  0.10010  0.90960  1.0000
  C   C14       1.0  0.11950  0.39990  0.40960  1.0000
  C   C15       1.0  0.88050  0.89990  0.09040  1.0000
  C   C16       1.0  0.88050  0.60010  0.59040  1.0000
  C   C17       1.0  0.50300  0.23880  0.00000  1.0000
  C   C18       1.0  0.50300  0.26120  0.50000  1.0000
  C   C19       1.0  0.49700  0.76120  0.00000  1.0000
  C   C20       1.0  0.49700  0.73880  0.50000  1.0000
  C   C21       1.0  0.52560  0.15620  0.00110  1.0000
  C   C22       1.0  0.52560  0.34380  0.50110  1.0000
  C   C23       1.0  0.47440  0.84380  0.99890  1.0000
  C   C24       1.0  0.47440  0.65620  0.49890  1.0000
  C   C25       1.0  0.60770  0.14080  0.01000  1.0000
  C   C26       1.0  0.60770  0.35920  0.51000  1.0000
  C   C27       1.0  0.39230  0.85920  0.99000  1.0000
  C   C28       1.0  0.39230  0.64080  0.49000  1.0000
  C   C29       1.0  0.61400  0.05900  0.99300  1.0000
  C   C30       1.0  0.61400  0.44100  0.49300  1.0000
  C   C31       1.0  0.38600  0.94100  0.00700  1.0000
  C   C32       1.0  0.38600  0.55900  0.50700  1.0000
  C   C33       1.0  0.31910  0.32910  0.00630  1.0000
  C   C34       1.0  0.31910  0.17090  0.50630  1.0000
  C   C35       1.0  0.68090  0.67090  0.99370  1.0000
  C   C36       1.0  0.68090  0.82910  0.49370  1.0000
  C   C37       1.0  0.32400  0.41060  0.99300  1.0000
  C   C38       1.0  0.32400  0.08940  0.49300  1.0000
  C   C39       1.0  0.67600  0.58940  0.00700  1.0000
  C   C40       1.0  0.67600  0.91060  0.50700  1.0000
  C   C41       1.0  0.40300  0.43600  0.02100  1.0000
  C   C42       1.0  0.40300  0.06400  0.52100  1.0000
  C   C43       1.0  0.59700  0.56400  0.97900  1.0000
  C   C44       1.0  0.59700  0.93600  0.47900  1.0000
  C   C45       1.0  0.40800  0.51200  0.98600  1.0000
  C   C46       1.0  0.40800  0.98800  0.48600  1.0000
  C   C47       1.0  0.59200  0.48800  0.01400  1.0000
  C   C48       1.0  0.59200  0.01200  0.51400  1.0000
  C   C49       1.0  0.39500  0.21370  0.12310  1.0000
  C   C50       1.0  0.39500  0.28630  0.62310  1.0000
  C   C51       1.0  0.60500  0.78630  0.87690  1.0000
  C   C52       1.0  0.60500  0.71370  0.37690  1.0000
  C   C53       1.0  0.37900  0.16780  0.17800  1.0000
  C   C54       1.0  0.37900  0.33220  0.67800  1.0000
  C   C55       1.0  0.62100  0.83220  0.82200  1.0000
  C   C56       1.0  0.62100  0.66780  0.32200  1.0000
  C   C57       1.0  0.34830  0.10130  0.17480  1.0000
  C   C58       1.0  0.34830  0.39870  0.67480  1.0000
  C   C59       1.0  0.65170  0.89870  0.82520  1.0000
  C   C60       1.0  0.65170  0.60130  0.32520  1.0000
  C   C61       1.0  0.33600  0.06050  0.23040  1.0000
  C   C62       1.0  0.33600  0.43950  0.73040  1.0000
  C   C63       1.0  0.66400  0.93950  0.76960  1.0000
  C   C64       1.0  0.66400  0.56050  0.26960  1.0000
  C   C65       1.0  0.35490  0.10380  0.28620  1.0000
  C   C66       1.0  0.35490  0.39620  0.78620  1.0000
  C   C67       1.0  0.64510  0.89620  0.71380  1.0000
  C   C68       1.0  0.64510  0.60380  0.21380  1.0000
  C   C69       1.0  0.38520  0.17000  0.28530  1.0000
  C   C70       1.0  0.38520  0.33000  0.78530  1.0000
  C   C71       1.0  0.61480  0.83000  0.71470  1.0000
  C   C72       1.0  0.61480  0.67000  0.21470  1.0000
  C   C73       1.0  0.40820  0.22090  0.34170  1.0000
  C   C74       1.0  0.40820  0.27910  0.84170  1.0000
  C   C75       1.0  0.59180  0.77910  0.65830  1.0000
  C   C76       1.0  0.59180  0.72090  0.15830  1.0000
  Sn  Sn5       1.0  0.88239  0.27728  0.45858  1.0000
  Sn  Sn6       1.0  0.88239  0.22272  0.95858  1.0000
  Sn  Sn7       1.0  0.11761  0.72272  0.54142  1.0000
  Sn  Sn8       1.0  0.11761  0.77728  0.04142  1.0000
  O   O25       1.0  0.87090  0.22070  0.36420  1.0000
  O   O26       1.0  0.87090  0.27930  0.86420  1.0000
  O   O27       1.0  0.12910  0.77930  0.63580  1.0000
  O   O28       1.0  0.12910  0.72070  0.13580  1.0000
  O   O29       1.0  0.93370  0.29650  0.31010  1.0000
  O   O30       1.0  0.93370  0.20350  0.81010  1.0000
  O   O31       1.0  0.06630  0.70350  0.68990  1.0000
  O   O32       1.0  0.06630  0.79650  0.18990  1.0000
  O   O33       1.0  0.88570  0.16920  0.05390  1.0000
  O   O34       1.0  0.88570  0.33080  0.55390  1.0000
  O   O35       1.0  0.11430  0.83080  0.94610  1.0000
  O   O36       1.0  0.11430  0.66920  0.44610  1.0000
  O   O37       1.0  0.93510  0.26620  0.10760  1.0000
  O   O38       1.0  0.93510  0.23380  0.60760  1.0000
  O   O39       1.0  0.06490  0.73380  0.89240  1.0000
  O   O40       1.0  0.06490  0.76620  0.39240  1.0000
  O   O41       1.0  0.90120  0.21090  0.21100  1.0000
  O   O42       1.0  0.90120  0.28910  0.71100  1.0000
  O   O43       1.0  0.09880  0.78910  0.78900  1.0000
  O   O44       1.0  0.09880  0.71090  0.28900  1.0000
  O   O45       1.0  0.82100  0.00270  0.22340  1.0000
  O   O46       1.0  0.82100  0.49730  0.72340  1.0000
  O   O47       1.0  0.17900  0.99730  0.77660  1.0000
  O   O48       1.0  0.17900  0.50270  0.27660  1.0000
  C   C77       1.0  0.80830  0.19140  0.48680  1.0000
  C   C78       1.0  0.80830  0.30860  0.98680  1.0000
  C   C79       1.0  0.19170  0.80860  0.51320  1.0000
  C   C80       1.0  0.19170  0.69140  0.01320  1.0000
  C   C81       1.0  0.73640  0.20100  0.44160  1.0000
  C   C82       1.0  0.73640  0.29900  0.94160  1.0000
  C   C83       1.0  0.26360  0.79900  0.55840  1.0000
  C   C84       1.0  0.26360  0.70100  0.05840  1.0000
  C   C85       1.0  0.68700  0.13400  0.44700  1.0000
  C   C86       1.0  0.68700  0.36600  0.94700  1.0000
  C   C87       1.0  0.31300  0.86600  0.55300  1.0000
  C   C88       1.0  0.31300  0.63400  0.05300  1.0000
  C   C89       1.0  0.61700  0.13700  0.39800  1.0000
  C   C90       1.0  0.61700  0.36300  0.89800  1.0000
  C   C91       1.0  0.38300  0.86300  0.60200  1.0000
  C   C92       1.0  0.38300  0.63700  0.10200  1.0000
  C   C93       1.0  0.99930  0.24980  0.47120  1.0000
  C   C94       1.0  0.99930  0.25020  0.97120  1.0000
  C   C95       1.0  0.00070  0.75020  0.52880  1.0000
  C   C96       1.0  0.00070  0.74980  0.02880  1.0000
  C   C97       1.0  0.00860  0.16420  0.47330  1.0000
  C   C98       1.0  0.00860  0.33580  0.97330  1.0000
  C   C99       1.0  0.99140  0.83580  0.52670  1.0000
  C   C100      1.0  0.99140  0.66420  0.02670  1.0000
  C   C101      1.0  0.09040  0.14190  0.47380  1.0000
  C   C102      1.0  0.09040  0.35810  0.97380  1.0000
  C   C103      1.0  0.90960  0.85810  0.52620  1.0000
  C   C104      1.0  0.90960  0.64190  0.02620  1.0000
  C   C105      1.0  0.09800  0.05790  0.49300  1.0000
  C   C106      1.0  0.09800  0.44210  0.99300  1.0000
  C   C107      1.0  0.90200  0.94210  0.50700  1.0000
  C   C108      1.0  0.90200  0.55790  0.00700  1.0000
  C   C109      1.0  0.83530  0.37950  0.42190  1.0000
  C   C110      1.0  0.83530  0.12050  0.92190  1.0000
  C   C111      1.0  0.16470  0.62050  0.57810  1.0000
  C   C112      1.0  0.16470  0.87950  0.07810  1.0000
  C   C113      1.0  0.89240  0.44170  0.42780  1.0000
  C   C114      1.0  0.89240  0.05830  0.92780  1.0000
  C   C115      1.0  0.10760  0.55830  0.57220  1.0000
  C   C116      1.0  0.10760  0.94170  0.07220  1.0000
  C   C117      1.0  0.85620  0.51630  0.40560  1.0000
  C   C118      1.0  0.85620  0.98370  0.90560  1.0000
  C   C119      1.0  0.14380  0.48370  0.59440  1.0000
  C   C120      1.0  0.14380  0.01630  0.09440  1.0000
  C   C121      1.0  0.92000  0.57240  0.40790  1.0000
  C   C122      1.0  0.92000  0.92760  0.90790  1.0000
  C   C123      1.0  0.08000  0.42760  0.59210  1.0000
  C   C124      1.0  0.08000  0.07240  0.09210  1.0000
  C   C125      1.0  0.89780  0.24050  0.31700  1.0000
  C   C126      1.0  0.89780  0.25950  0.81700  1.0000
  C   C127      1.0  0.10220  0.75950  0.68300  1.0000
  C   C128      1.0  0.10220  0.74050  0.18300  1.0000
  C   C129      1.0  0.88220  0.18490  0.26530  1.0000
  C   C130      1.0  0.88220  0.31510  0.76530  1.0000
  C   C131      1.0  0.11780  0.81510  0.73470  1.0000
  C   C132      1.0  0.11780  0.68490  0.23470  1.0000
  C   C133      1.0  0.85430  0.11750  0.27050  1.0000
  C   C134      1.0  0.85430  0.38250  0.77050  1.0000
  C   C135      1.0  0.14570  0.88250  0.72950  1.0000
  C   C136      1.0  0.14570  0.61750  0.22950  1.0000
  C   C137      1.0  0.84150  0.06680  0.21890  1.0000
  C   C138      1.0  0.84150  0.43320  0.71890  1.0000
  C   C139      1.0  0.15850  0.93320  0.78110  1.0000
  C   C140      1.0  0.15850  0.56680  0.28110  1.0000
  C   C141      1.0  0.85800  0.09890  0.16240  1.0000
  C   C142      1.0  0.85800  0.40110  0.66240  1.0000
  C   C143      1.0  0.14200  0.90110  0.83760  1.0000
  C   C144      1.0  0.14200  0.59890  0.33760  1.0000
  C   C145      1.0  0.88630  0.16650  0.16000  1.0000
  C   C146      1.0  0.88630  0.33350  0.66000  1.0000
  C   C147      1.0  0.11370  0.83350  0.84000  1.0000
  C   C148      1.0  0.11370  0.66650  0.34000  1.0000
  C   C149      1.0  0.90560  0.20540  0.10290  1.0000
  C   C150      1.0  0.90560  0.29460  0.60290  1.0000
  C   C151      1.0  0.09440  0.79460  0.89710  1.0000
  C   C152      1.0  0.09440  0.70540  0.39710  1.0000
  H   H1        1.0  0.33490  0.14910  0.89340  1.0000
  H   H2        1.0  0.33490  0.35090  0.39340  1.0000
  H   H3        1.0  0.66510  0.85090  0.10660  1.0000
  H   H4        1.0  0.66510  0.64910  0.60660  1.0000
  H   H5        1.0  0.34770  0.10460  0.95570  1.0000
  H   H6        1.0  0.34770  0.39540  0.45570  1.0000
  H   H7        1.0  0.65230  0.89540  0.04430  1.0000
  H   H8        1.0  0.65230  0.60460  0.54430  1.0000
  H   H9        1.0  0.23720  0.16080  0.98290  1.0000
  H   H10       1.0  0.23720  0.33920  0.48290  1.0000
  H   H11       1.0  0.76280  0.83920  0.01710  1.0000
  H   H12       1.0  0.76280  0.66080  0.51710  1.0000
  H   H13       1.0  0.22320  0.19720  0.91710  1.0000
  H   H14       1.0  0.22320  0.30280  0.41710  1.0000
  H   H15       1.0  0.77680  0.80280  0.08290  1.0000
  H   H16       1.0  0.77680  0.69720  0.58290  1.0000
  H   H17       1.0  0.21620  0.04380  0.94190  1.0000
  H   H18       1.0  0.21620  0.45620  0.44190  1.0000
  H   H19       1.0  0.78380  0.95620  0.05810  1.0000
  H   H20       1.0  0.78380  0.54380  0.55810  1.0000
  H   H21       1.0  0.21540  0.07380  0.87430  1.0000
  H   H22       1.0  0.21540  0.42620  0.37430  1.0000
  H   H23       1.0  0.78460  0.92620  0.12570  1.0000
  H   H24       1.0  0.78460  0.57380  0.62570  1.0000
  H   H25       1.0  0.09260  0.05710  0.89270  1.0000
  H   H26       1.0  0.09260  0.44290  0.39270  1.0000
  H   H27       1.0  0.90740  0.94290  0.10730  1.0000
  H   H28       1.0  0.90740  0.55710  0.60730  1.0000
  H   H29       1.0  0.10650  0.14180  0.88300  1.0000
  H   H30       1.0  0.10650  0.35820  0.38300  1.0000
  H   H31       1.0  0.89350  0.85820  0.11700  1.0000
  H   H32       1.0  0.89350  0.64180  0.61700  1.0000
  H   H33       1.0  0.10690  0.11040  0.94980  1.0000
  H   H34       1.0  0.10690  0.38960  0.44980  1.0000
  H   H35       1.0  0.89310  0.88960  0.05020  1.0000
  H   H36       1.0  0.89310  0.61040  0.55020  1.0000
  H   H37       1.0  0.52460  0.26500  0.96820  1.0000
  H   H38       1.0  0.52460  0.23500  0.46820  1.0000
  H   H39       1.0  0.47540  0.73500  0.03180  1.0000
  H   H40       1.0  0.47540  0.76500  0.53180  1.0000
  H   H41       1.0  0.52050  0.26180  0.03950  1.0000
  H   H42       1.0  0.52050  0.23820  0.53950  1.0000
  H   H43       1.0  0.47950  0.73820  0.96050  1.0000
  H   H44       1.0  0.47950  0.76180  0.46050  1.0000
  H   H45       1.0  0.50430  0.13190  0.03400  1.0000
  H   H46       1.0  0.50430  0.36810  0.53400  1.0000
  H   H47       1.0  0.49570  0.86810  0.96600  1.0000
  H   H48       1.0  0.49570  0.63190  0.46600  1.0000
  H   H49       1.0  0.50350  0.13380  0.96250  1.0000
  H   H50       1.0  0.50350  0.36620  0.46250  1.0000
  H   H51       1.0  0.49650  0.86620  0.03750  1.0000
  H   H52       1.0  0.49650  0.63380  0.53750  1.0000
  H   H53       1.0  0.62950  0.14920  0.05280  1.0000
  H   H54       1.0  0.62950  0.35080  0.55280  1.0000
  H   H55       1.0  0.37050  0.85080  0.94720  1.0000
  H   H56       1.0  0.37050  0.64920  0.44720  1.0000
  H   H57       1.0  0.63270  0.17220  0.98370  1.0000
  H   H58       1.0  0.63270  0.32780  0.48370  1.0000
  H   H59       1.0  0.36730  0.82780  0.01630  1.0000
  H   H60       1.0  0.36730  0.67220  0.51630  1.0000
  H   H61       1.0  0.66540  0.04640  0.99390  1.0000
  H   H62       1.0  0.66540  0.45360  0.49390  1.0000
  H   H63       1.0  0.33460  0.95360  0.00610  1.0000
  H   H64       1.0  0.33460  0.54640  0.50610  1.0000
  H   H65       1.0  0.58770  0.05130  0.95190  1.0000
  H   H66       1.0  0.58770  0.44870  0.45190  1.0000
  H   H67       1.0  0.41230  0.94870  0.04810  1.0000
  H   H68       1.0  0.41230  0.55130  0.54810  1.0000
  H   H69       1.0  0.59220  0.02890  0.02150  1.0000
  H   H70       1.0  0.59220  0.47110  0.52150  1.0000
  H   H71       1.0  0.40780  0.97110  0.97850  1.0000
  H   H72       1.0  0.40780  0.52890  0.47850  1.0000
  H   H73       1.0  0.26820  0.31550  0.99000  1.0000
  H   H74       1.0  0.26820  0.18450  0.49000  1.0000
  H   H75       1.0  0.73180  0.68450  0.01000  1.0000
  H   H76       1.0  0.73180  0.81550  0.51000  1.0000
  H   H77       1.0  0.32280  0.32570  0.05080  1.0000
  H   H78       1.0  0.32280  0.17430  0.55080  1.0000
  H   H79       1.0  0.67720  0.67430  0.94920  1.0000
  H   H80       1.0  0.67720  0.82570  0.44920  1.0000
  H   H81       1.0  0.28710  0.43780  0.01140  1.0000
  H   H82       1.0  0.28710  0.06220  0.51140  1.0000
  H   H83       1.0  0.71290  0.56220  0.98860  1.0000
  H   H84       1.0  0.71290  0.93780  0.48860  1.0000
  H   H85       1.0  0.31590  0.41930  0.94870  1.0000
  H   H86       1.0  0.31590  0.08070  0.44870  1.0000
  H   H87       1.0  0.68410  0.58070  0.05130  1.0000
  H   H88       1.0  0.68410  0.91930  0.55130  1.0000
  H   H89       1.0  0.44100  0.40160  0.01170  1.0000
  H   H90       1.0  0.44100  0.09840  0.51170  1.0000
  H   H91       1.0  0.55900  0.59840  0.98830  1.0000
  H   H92       1.0  0.55900  0.90160  0.48830  1.0000
  H   H93       1.0  0.40750  0.44360  0.06490  1.0000
  H   H94       1.0  0.40750  0.05640  0.56490  1.0000
  H   H95       1.0  0.59250  0.55640  0.93510  1.0000
  H   H96       1.0  0.59250  0.94360  0.43510  1.0000
  H   H97       1.0  0.45470  0.53520  0.00040  1.0000
  H   H98       1.0  0.45470  0.96480  0.50040  1.0000
  H   H99       1.0  0.54530  0.46480  0.99960  1.0000
  H   H100      1.0  0.54530  0.03520  0.49960  1.0000
  H   H101      1.0  0.36770  0.54310  0.99330  1.0000
  H   H102      1.0  0.36770  0.95690  0.49330  1.0000
  H   H103      1.0  0.63230  0.45690  0.00670  1.0000
  H   H104      1.0  0.63230  0.04310  0.50670  1.0000
  H   H105      1.0  0.40460  0.50220  0.94230  1.0000
  H   H106      1.0  0.40460  0.99780  0.44230  1.0000
  H   H107      1.0  0.59540  0.49780  0.05770  1.0000
  H   H108      1.0  0.59540  0.00220  0.55770  1.0000
  H   H109      1.0  0.33400  0.07980  0.13630  1.0000
  H   H110      1.0  0.33400  0.42020  0.63630  1.0000
  H   H111      1.0  0.66600  0.92020  0.86370  1.0000
  H   H112      1.0  0.66600  0.57980  0.36370  1.0000
  H   H113      1.0  0.34530  0.08440  0.32360  1.0000
  H   H114      1.0  0.34530  0.41560  0.82360  1.0000
  H   H115      1.0  0.65470  0.91560  0.67640  1.0000
  H   H116      1.0  0.65470  0.58440  0.17640  1.0000
  H   H117      1.0  0.82920  0.14240  0.48330  1.0000
  H   H118      1.0  0.82920  0.35760  0.98330  1.0000
  H   H119      1.0  0.17080  0.85760  0.51670  1.0000
  H   H120      1.0  0.17080  0.64240  0.01670  1.0000
  H   H121      1.0  0.79970  0.19910  0.52900  1.0000
  H   H122      1.0  0.79970  0.30090  0.02900  1.0000
  H   H123      1.0  0.20030  0.80090  0.47100  1.0000
  H   H124      1.0  0.20030  0.69910  0.97100  1.0000
  H   H125      1.0  0.71060  0.24570  0.45150  1.0000
  H   H126      1.0  0.71060  0.25430  0.95150  1.0000
  H   H127      1.0  0.28940  0.75430  0.54850  1.0000
  H   H128      1.0  0.28940  0.74570  0.04850  1.0000
  H   H129      1.0  0.74760  0.20550  0.39980  1.0000
  H   H130      1.0  0.74760  0.29450  0.89980  1.0000
  H   H131      1.0  0.25240  0.79450  0.60020  1.0000
  H   H132      1.0  0.25240  0.70550  0.10020  1.0000
  H   H133      1.0  0.67330  0.13160  0.48780  1.0000
  H   H134      1.0  0.67330  0.36840  0.98780  1.0000
  H   H135      1.0  0.32670  0.86840  0.51220  1.0000
  H   H136      1.0  0.32670  0.63160  0.01220  1.0000
  H   H137      1.0  0.71530  0.08890  0.44070  1.0000
  H   H138      1.0  0.71530  0.41110  0.94070  1.0000
  H   H139      1.0  0.28470  0.91110  0.55930  1.0000
  H   H140      1.0  0.28470  0.58890  0.05930  1.0000
  H   H141      1.0  0.59070  0.09050  0.39740  1.0000
  H   H142      1.0  0.59070  0.40950  0.89740  1.0000
  H   H143      1.0  0.40930  0.90950  0.60260  1.0000
  H   H144      1.0  0.40930  0.59050  0.10260  1.0000
  H   H145      1.0  0.63050  0.14650  0.35820  1.0000
  H   H146      1.0  0.63050  0.35350  0.85820  1.0000
  H   H147      1.0  0.36950  0.85350  0.64180  1.0000
  H   H148      1.0  0.36950  0.64650  0.14180  1.0000
  H   H149      1.0  0.58480  0.17610  0.40860  1.0000
  H   H150      1.0  0.58480  0.32390  0.90860  1.0000
  H   H151      1.0  0.41520  0.82390  0.59140  1.0000
  H   H152      1.0  0.41520  0.67610  0.09140  1.0000
  H   H153      1.0  0.02220  0.27000  0.43740  1.0000
  H   H154      1.0  0.02220  0.23000  0.93740  1.0000
  H   H155      1.0  0.97780  0.73000  0.56260  1.0000
  H   H156      1.0  0.97780  0.77000  0.06260  1.0000
  H   H157      1.0  0.02400  0.27130  0.50940  1.0000
  H   H158      1.0  0.02400  0.22870  0.00940  1.0000
  H   H159      1.0  0.97600  0.72870  0.49060  1.0000
  H   H160      1.0  0.97600  0.77130  0.99060  1.0000
  H   H161      1.0  0.99120  0.14500  0.51000  1.0000
  H   H162      1.0  0.99120  0.35500  0.01000  1.0000
  H   H163      1.0  0.00880  0.85500  0.49000  1.0000
  H   H164      1.0  0.00880  0.64500  0.99000  1.0000
  H   H165      1.0  0.97820  0.14250  0.43750  1.0000
  H   H166      1.0  0.97820  0.35750  0.93750  1.0000
  H   H167      1.0  0.02180  0.85750  0.56250  1.0000
  H   H168      1.0  0.02180  0.64250  0.06250  1.0000
  H   H169      1.0  0.12270  0.17200  0.50310  1.0000
  H   H170      1.0  0.12270  0.32800  0.00310  1.0000
  H   H171      1.0  0.87730  0.82800  0.49690  1.0000
  H   H172      1.0  0.87730  0.67200  0.99690  1.0000
  H   H173      1.0  0.10460  0.14900  0.43310  1.0000
  H   H174      1.0  0.10460  0.35100  0.93310  1.0000
  H   H175      1.0  0.89540  0.85100  0.56690  1.0000
  H   H176      1.0  0.89540  0.64900  0.06690  1.0000
  H   H177      1.0  0.14880  0.04250  0.49450  1.0000
  H   H178      1.0  0.14880  0.45750  0.99450  1.0000
  H   H179      1.0  0.85120  0.95750  0.50550  1.0000
  H   H180      1.0  0.85120  0.54250  0.00550  1.0000
  H   H181      1.0  0.06660  0.02840  0.46280  1.0000
  H   H182      1.0  0.06660  0.47160  0.96280  1.0000
  H   H183      1.0  0.93340  0.97160  0.53720  1.0000
  H   H184      1.0  0.93340  0.52840  0.03720  1.0000
  H   H185      1.0  0.08250  0.05130  0.53260  1.0000
  H   H186      1.0  0.08250  0.44870  0.03260  1.0000
  H   H187      1.0  0.91750  0.94870  0.46740  1.0000
  H   H188      1.0  0.91750  0.55130  0.96740  1.0000
  H   H189      1.0  0.81530  0.37270  0.37870  1.0000
  H   H190      1.0  0.81530  0.12730  0.87870  1.0000
  H   H191      1.0  0.18470  0.62730  0.62130  1.0000
  H   H192      1.0  0.18470  0.87270  0.12130  1.0000
  H   H193      1.0  0.79440  0.39330  0.44360  1.0000
  H   H194      1.0  0.79440  0.10670  0.94360  1.0000
  H   H195      1.0  0.20560  0.60670  0.55640  1.0000
  H   H196      1.0  0.20560  0.89330  0.05640  1.0000
  H   H197      1.0  0.93140  0.42970  0.40350  1.0000
  H   H198      1.0  0.93140  0.07030  0.90350  1.0000
  H   H199      1.0  0.06860  0.57030  0.59650  1.0000
  H   H200      1.0  0.06860  0.92970  0.09650  1.0000
  H   H201      1.0  0.91510  0.44620  0.47060  1.0000
  H   H202      1.0  0.91510  0.05380  0.97060  1.0000
  H   H203      1.0  0.08490  0.55380  0.52940  1.0000
  H   H204      1.0  0.08490  0.94620  0.02940  1.0000
  H   H205      1.0  0.83010  0.51180  0.36380  1.0000
  H   H206      1.0  0.83010  0.98820  0.86380  1.0000
  H   H207      1.0  0.16990  0.48820  0.63620  1.0000
  H   H208      1.0  0.16990  0.01180  0.13620  1.0000
  H   H209      1.0  0.82100  0.53200  0.43230  1.0000
  H   H210      1.0  0.82100  0.96800  0.93230  1.0000
  H   H211      1.0  0.17900  0.46800  0.56770  1.0000
  H   H212      1.0  0.17900  0.03200  0.06770  1.0000
  H   H213      1.0  0.90030  0.61980  0.39390  1.0000
  H   H214      1.0  0.90030  0.88020  0.89390  1.0000
  H   H215      1.0  0.09970  0.38020  0.60610  1.0000
  H   H216      1.0  0.09970  0.11980  0.10610  1.0000
  H   H217      1.0  0.95490  0.55580  0.38180  1.0000
  H   H218      1.0  0.95490  0.94420  0.88180  1.0000
  H   H219      1.0  0.04510  0.44420  0.61820  1.0000
  H   H220      1.0  0.04510  0.05580  0.11820  1.0000
  H   H221      1.0  0.94500  0.57670  0.44960  1.0000
  H   H222      1.0  0.94500  0.92330  0.94960  1.0000
  H   H223      1.0  0.05500  0.42330  0.55040  1.0000
  H   H224      1.0  0.05500  0.07670  0.05040  1.0000
  H   H225      1.0  0.84260  0.10250  0.30860  1.0000
  H   H226      1.0  0.84260  0.39750  0.80860  1.0000
  H   H227      1.0  0.15740  0.89750  0.69140  1.0000
  H   H228      1.0  0.15740  0.60250  0.19140  1.0000
  H   H229      1.0  0.84860  0.07130  0.12620  1.0000
  H   H230      1.0  0.84860  0.42870  0.62620  1.0000
  H   H231      1.0  0.15140  0.92870  0.87380  1.0000
  H   H232      1.0  0.15140  0.57130  0.37380  1.0000
