data_image0
_chemical_formula_structural       Zn16Br8O52C40H8C8H8C32H8C16H8C8H8C8H8C8H8
_chemical_formula_sum              "Zn16 Br8 O52 C120 H56"
_cell_length_a       12.2066
_cell_length_b       17.7543
_cell_length_c       23.7868
_cell_angle_alpha    90
_cell_angle_beta     90
_cell_angle_gamma    90

_space_group_name_H-M_alt    "P 1"
_space_group_IT_number       1

loop_
  _space_group_symop_operation_xyz
  'x, y, z'

loop_
  _atom_site_type_symbol
  _atom_site_label
  _atom_site_symmetry_multiplicity
  _atom_site_fract_x
  _atom_site_fract_y
  _atom_site_fract_z
  _atom_site_occupancy
  Zn  Zn1       1.0  0.23744  0.55033  0.44857  1.0000
  Zn  Zn2       1.0  0.76256  0.44967  0.94857  1.0000
  Zn  Zn3       1.0  0.76256  0.55033  0.05143  1.0000
  Zn  Zn4       1.0  0.23744  0.44967  0.55143  1.0000
  Zn  Zn5       1.0  0.73744  0.05033  0.44857  1.0000
  Zn  Zn6       1.0  0.26256  0.94967  0.94857  1.0000
  Zn  Zn7       1.0  0.26256  0.05033  0.05143  1.0000
  Zn  Zn8       1.0  0.73744  0.94967  0.55143  1.0000
  Zn  Zn9       1.0  0.05988  0.42125  0.45853  1.0000
  Zn  Zn10      1.0  0.94012  0.57875  0.95853  1.0000
  Zn  Zn11      1.0  0.94012  0.42125  0.04147  1.0000
  Zn  Zn12      1.0  0.05988  0.57875  0.54147  1.0000
  Zn  Zn13      1.0  0.55988  0.92125  0.45853  1.0000
  Zn  Zn14      1.0  0.44012  0.07875  0.95853  1.0000
  Zn  Zn15      1.0  0.44012  0.92125  0.04147  1.0000
  Zn  Zn16      1.0  0.55988  0.07875  0.54147  1.0000
  Br  Br1       1.0  0.87488  0.42685  0.43134  1.0000
  Br  Br2       1.0  0.12512  0.57315  0.93134  1.0000
  Br  Br3       1.0  0.12512  0.42685  0.06866  1.0000
  Br  Br4       1.0  0.87488  0.57315  0.56866  1.0000
  Br  Br5       1.0  0.37488  0.92685  0.43134  1.0000
  Br  Br6       1.0  0.62512  0.07315  0.93134  1.0000
  Br  Br7       1.0  0.62512  0.92685  0.06866  1.0000
  Br  Br8       1.0  0.37488  0.07315  0.56866  1.0000
  O   O1        1.0  0.31180  0.15160  0.07620  1.0000
  O   O2        1.0  0.68820  0.84840  0.57620  1.0000
  O   O3        1.0  0.68820  0.15160  0.42380  1.0000
  O   O4        1.0  0.31180  0.84840  0.92380  1.0000
  O   O5        1.0  0.81180  0.65160  0.07620  1.0000
  O   O6        1.0  0.18820  0.34840  0.57620  1.0000
  O   O7        1.0  0.18820  0.65160  0.42380  1.0000
  O   O8        1.0  0.81180  0.34840  0.92380  1.0000
  O   O9        1.0  0.63350  0.48460  0.07280  1.0000
  O   O10       1.0  0.36650  0.51540  0.57280  1.0000
  O   O11       1.0  0.36650  0.48460  0.42720  1.0000
  O   O12       1.0  0.63350  0.51540  0.92720  1.0000
  O   O13       1.0  0.13350  0.98460  0.07280  1.0000
  O   O14       1.0  0.86650  0.01540  0.57280  1.0000
  O   O15       1.0  0.86650  0.98460  0.42720  1.0000
  O   O16       1.0  0.13350  0.01540  0.92720  1.0000
  O   O17       1.0  0.13420  0.50000  0.50000  1.0000
  O   O18       1.0  0.86580  0.50000  0.00000  1.0000
  O   O19       1.0  0.63420  0.00000  0.50000  1.0000
  O   O20       1.0  0.36580  0.00000  0.00000  1.0000
  O   O21       1.0  0.14900  0.38810  0.39190  1.0000
  O   O22       1.0  0.85100  0.61190  0.89190  1.0000
  O   O23       1.0  0.85100  0.38810  0.10810  1.0000
  O   O24       1.0  0.14900  0.61190  0.60810  1.0000
  O   O25       1.0  0.64900  0.88810  0.39190  1.0000
  O   O26       1.0  0.35100  0.11190  0.89190  1.0000
  O   O27       1.0  0.35100  0.88810  0.10810  1.0000
  O   O28       1.0  0.64900  0.11190  0.60810  1.0000
  O   O29       1.0  0.16890  0.50910  0.37070  1.0000
  O   O30       1.0  0.83110  0.49090  0.87070  1.0000
  O   O31       1.0  0.83110  0.50910  0.12930  1.0000
  O   O32       1.0  0.16890  0.49090  0.62930  1.0000
  O   O33       1.0  0.66890  0.00910  0.37070  1.0000
  O   O34       1.0  0.33110  0.99090  0.87070  1.0000
  O   O35       1.0  0.33110  0.00910  0.12930  1.0000
  O   O36       1.0  0.66890  0.99090  0.62930  1.0000
  O   O37       1.0  0.42460  0.17420  0.00410  1.0000
  O   O38       1.0  0.57540  0.82580  0.50410  1.0000
  O   O39       1.0  0.57540  0.17420  0.49590  1.0000
  O   O40       1.0  0.42460  0.82580  0.99590  1.0000
  O   O41       1.0  0.92460  0.67420  0.00410  1.0000
  O   O42       1.0  0.07540  0.32580  0.50410  1.0000
  O   O43       1.0  0.07540  0.67420  0.49590  1.0000
  O   O44       1.0  0.92460  0.32580  0.99590  1.0000
  O   O45       1.0  0.65900  0.39620  0.00740  1.0000
  O   O46       1.0  0.34100  0.60380  0.50740  1.0000
  O   O47       1.0  0.34100  0.39620  0.49260  1.0000
  O   O48       1.0  0.65900  0.60380  0.99260  1.0000
  O   O49       1.0  0.15900  0.89620  0.00740  1.0000
  O   O50       1.0  0.84100  0.10380  0.50740  1.0000
  O   O51       1.0  0.84100  0.89620  0.49260  1.0000
  O   O52       1.0  0.15900  0.10380  0.99260  1.0000
  C   C1        1.0  0.34170  0.37730  0.20630  1.0000
  C   C2        1.0  0.65830  0.62270  0.70630  1.0000
  C   C3        1.0  0.65830  0.37730  0.29370  1.0000
  C   C4        1.0  0.34170  0.62270  0.79370  1.0000
  C   C5        1.0  0.84170  0.87730  0.20630  1.0000
  C   C6        1.0  0.15830  0.12270  0.70630  1.0000
  C   C7        1.0  0.15830  0.87730  0.29370  1.0000
  C   C8        1.0  0.84170  0.12270  0.79370  1.0000
  C   C9        1.0  0.52240  0.37670  0.07600  1.0000
  C   C10       1.0  0.47760  0.62330  0.57600  1.0000
  C   C11       1.0  0.47760  0.37670  0.42400  1.0000
  C   C12       1.0  0.52240  0.62330  0.92400  1.0000
  C   C13       1.0  0.02240  0.87670  0.07600  1.0000
  C   C14       1.0  0.97760  0.12330  0.57600  1.0000
  C   C15       1.0  0.97760  0.87670  0.42400  1.0000
  C   C16       1.0  0.02240  0.12330  0.92400  1.0000
  C   C17       1.0  0.37850  0.19150  0.04940  1.0000
  C   C18       1.0  0.62150  0.80850  0.54940  1.0000
  C   C19       1.0  0.62150  0.19150  0.45060  1.0000
  C   C20       1.0  0.37850  0.80850  0.95060  1.0000
  C   C21       1.0  0.87850  0.69150  0.04940  1.0000
  C   C22       1.0  0.12150  0.30850  0.54940  1.0000
  C   C23       1.0  0.12150  0.69150  0.45060  1.0000
  C   C24       1.0  0.87850  0.30850  0.95060  1.0000
  C   C25       1.0  0.61130  0.42270  0.04940  1.0000
  C   C26       1.0  0.38870  0.57730  0.54940  1.0000
  C   C27       1.0  0.38870  0.42270  0.45060  1.0000
  C   C28       1.0  0.61130  0.57730  0.95060  1.0000
  C   C29       1.0  0.11130  0.92270  0.04940  1.0000
  C   C30       1.0  0.88870  0.07730  0.54940  1.0000
  C   C31       1.0  0.88870  0.92270  0.45060  1.0000
  C   C32       1.0  0.11130  0.07730  0.95060  1.0000
  C   C33       1.0  0.47500  0.39860  0.12650  1.0000
  C   C34       1.0  0.52500  0.60140  0.62650  1.0000
  C   C35       1.0  0.52500  0.39860  0.37350  1.0000
  C   C36       1.0  0.47500  0.60140  0.87350  1.0000
  C   C37       1.0  0.97500  0.89860  0.12650  1.0000
  C   C38       1.0  0.02500  0.10140  0.62650  1.0000
  C   C39       1.0  0.02500  0.89860  0.37350  1.0000
  C   C40       1.0  0.97500  0.10140  0.87350  1.0000
  H   H1        1.0  0.49760  0.44300  0.14360  1.0000
  H   H2        1.0  0.50240  0.55700  0.64360  1.0000
  H   H3        1.0  0.50240  0.44300  0.35640  1.0000
  H   H4        1.0  0.49760  0.55700  0.85640  1.0000
  H   H5        1.0  0.99760  0.94300  0.14360  1.0000
  H   H6        1.0  0.00240  0.05700  0.64360  1.0000
  H   H7        1.0  0.00240  0.94300  0.35640  1.0000
  H   H8        1.0  0.99760  0.05700  0.85640  1.0000
  C   C41       1.0  0.36260  0.28860  0.12520  1.0000
  C   C42       1.0  0.63740  0.71140  0.62520  1.0000
  C   C43       1.0  0.63740  0.28860  0.37480  1.0000
  C   C44       1.0  0.36260  0.71140  0.87480  1.0000
  C   C45       1.0  0.86260  0.78860  0.12520  1.0000
  C   C46       1.0  0.13740  0.21140  0.62520  1.0000
  C   C47       1.0  0.13740  0.78860  0.37480  1.0000
  C   C48       1.0  0.86260  0.21140  0.87480  1.0000
  H   H9        1.0  0.30910  0.25840  0.14150  1.0000
  H   H10       1.0  0.69090  0.74160  0.64150  1.0000
  H   H11       1.0  0.69090  0.25840  0.35850  1.0000
  H   H12       1.0  0.30910  0.74160  0.85850  1.0000
  H   H13       1.0  0.80910  0.75840  0.14150  1.0000
  H   H14       1.0  0.19090  0.24160  0.64150  1.0000
  H   H15       1.0  0.19090  0.75840  0.35850  1.0000
  H   H16       1.0  0.80910  0.24160  0.85850  1.0000
  C   C49       1.0  0.39260  0.35410  0.15220  1.0000
  C   C50       1.0  0.60740  0.64590  0.65220  1.0000
  C   C51       1.0  0.60740  0.35410  0.34780  1.0000
  C   C52       1.0  0.39260  0.64590  0.84780  1.0000
  C   C53       1.0  0.89260  0.85410  0.15220  1.0000
  C   C54       1.0  0.10740  0.14590  0.65220  1.0000
  C   C55       1.0  0.10740  0.85410  0.34780  1.0000
  C   C56       1.0  0.89260  0.14590  0.84780  1.0000
  C   C57       1.0  0.18110  0.44040  0.35960  1.0000
  C   C58       1.0  0.81890  0.55960  0.85960  1.0000
  C   C59       1.0  0.81890  0.44040  0.14040  1.0000
  C   C60       1.0  0.18110  0.55960  0.64040  1.0000
  C   C61       1.0  0.68110  0.94040  0.35960  1.0000
  C   C62       1.0  0.31890  0.05960  0.85960  1.0000
  C   C63       1.0  0.31890  0.94040  0.14040  1.0000
  C   C64       1.0  0.68110  0.05960  0.64040  1.0000
  C   C65       1.0  0.40860  0.26590  0.07510  1.0000
  C   C66       1.0  0.59140  0.73410  0.57510  1.0000
  C   C67       1.0  0.59140  0.26590  0.42490  1.0000
  C   C68       1.0  0.40860  0.73410  0.92490  1.0000
  C   C69       1.0  0.90860  0.76590  0.07510  1.0000
  C   C70       1.0  0.09140  0.23410  0.57510  1.0000
  C   C71       1.0  0.09140  0.76590  0.42490  1.0000
  C   C72       1.0  0.90860  0.23410  0.92490  1.0000
  C   C73       1.0  0.48920  0.31030  0.05010  1.0000
  C   C74       1.0  0.51080  0.68970  0.55010  1.0000
  C   C75       1.0  0.51080  0.31030  0.44990  1.0000
  C   C76       1.0  0.48920  0.68970  0.94990  1.0000
  C   C77       1.0  0.98920  0.81030  0.05010  1.0000
  C   C78       1.0  0.01080  0.18970  0.55010  1.0000
  C   C79       1.0  0.01080  0.81030  0.44990  1.0000
  C   C80       1.0  0.98920  0.18970  0.94990  1.0000
  H   H17       1.0  0.52070  0.29560  0.01620  1.0000
  H   H18       1.0  0.47930  0.70440  0.51620  1.0000
  H   H19       1.0  0.47930  0.29560  0.48380  1.0000
  H   H20       1.0  0.52070  0.70440  0.98380  1.0000
  H   H21       1.0  0.02070  0.79560  0.01620  1.0000
  H   H22       1.0  0.97930  0.20440  0.51620  1.0000
  H   H23       1.0  0.97930  0.79560  0.48380  1.0000
  H   H24       1.0  0.02070  0.20440  0.98380  1.0000
  C   C81       1.0  0.23740  0.41850  0.30640  1.0000
  C   C82       1.0  0.76260  0.58150  0.80640  1.0000
  C   C83       1.0  0.76260  0.41850  0.19360  1.0000
  C   C84       1.0  0.23740  0.58150  0.69360  1.0000
  C   C85       1.0  0.73740  0.91850  0.30640  1.0000
  C   C86       1.0  0.26260  0.08150  0.80640  1.0000
  C   C87       1.0  0.26260  0.91850  0.19360  1.0000
  C   C88       1.0  0.73740  0.08150  0.69360  1.0000
  C   C89       1.0  0.27620  0.47010  0.27080  1.0000
  C   C90       1.0  0.72380  0.52990  0.77080  1.0000
  C   C91       1.0  0.72380  0.47010  0.22920  1.0000
  C   C92       1.0  0.27620  0.52990  0.72920  1.0000
  C   C93       1.0  0.77620  0.97010  0.27080  1.0000
  C   C94       1.0  0.22380  0.02990  0.77080  1.0000
  C   C95       1.0  0.22380  0.97010  0.22920  1.0000
  C   C96       1.0  0.77620  0.02990  0.72920  1.0000
  H   H25       1.0  0.26910  0.52090  0.27980  1.0000
  H   H26       1.0  0.73090  0.47910  0.77980  1.0000
  H   H27       1.0  0.73090  0.52090  0.22020  1.0000
  H   H28       1.0  0.26910  0.47910  0.72020  1.0000
  H   H29       1.0  0.76910  0.02090  0.27980  1.0000
  H   H30       1.0  0.23090  0.97910  0.77980  1.0000
  H   H31       1.0  0.23090  0.02090  0.22020  1.0000
  H   H32       1.0  0.76910  0.97910  0.72020  1.0000
  C   C97       1.0  0.25680  0.34410  0.29360  1.0000
  C   C98       1.0  0.74320  0.65590  0.79360  1.0000
  C   C99       1.0  0.74320  0.34410  0.20640  1.0000
  C   C100      1.0  0.25680  0.65590  0.70640  1.0000
  C   C101      1.0  0.75680  0.84410  0.29360  1.0000
  C   C102      1.0  0.24320  0.15590  0.79360  1.0000
  C   C103      1.0  0.24320  0.84410  0.20640  1.0000
  C   C104      1.0  0.75680  0.15590  0.70640  1.0000
  H   H33       1.0  0.23310  0.30660  0.31800  1.0000
  H   H34       1.0  0.76690  0.69340  0.81800  1.0000
  H   H35       1.0  0.76690  0.30660  0.18200  1.0000
  H   H36       1.0  0.23310  0.69340  0.68200  1.0000
  H   H37       1.0  0.73310  0.80660  0.31800  1.0000
  H   H38       1.0  0.26690  0.19340  0.81800  1.0000
  H   H39       1.0  0.26690  0.80660  0.18200  1.0000
  H   H40       1.0  0.73310  0.19340  0.68200  1.0000
  C   C105      1.0  0.31110  0.32450  0.24470  1.0000
  C   C106      1.0  0.68890  0.67550  0.74470  1.0000
  C   C107      1.0  0.68890  0.32450  0.25530  1.0000
  C   C108      1.0  0.31110  0.67550  0.75530  1.0000
  C   C109      1.0  0.81110  0.82450  0.24470  1.0000
  C   C110      1.0  0.18890  0.17550  0.74470  1.0000
  C   C111      1.0  0.18890  0.82450  0.25530  1.0000
  C   C112      1.0  0.81110  0.17550  0.75530  1.0000
  H   H41       1.0  0.32710  0.27410  0.23790  1.0000
  H   H42       1.0  0.67290  0.72590  0.73790  1.0000
  H   H43       1.0  0.67290  0.27410  0.26210  1.0000
  H   H44       1.0  0.32710  0.72590  0.76210  1.0000
  H   H45       1.0  0.82710  0.77410  0.23790  1.0000
  H   H46       1.0  0.17290  0.22590  0.73790  1.0000
  H   H47       1.0  0.17290  0.77410  0.26210  1.0000
  H   H48       1.0  0.82710  0.22590  0.76210  1.0000
  C   C113      1.0  0.32680  0.45030  0.22110  1.0000
  C   C114      1.0  0.67320  0.54970  0.72110  1.0000
  C   C115      1.0  0.67320  0.45030  0.27890  1.0000
  C   C116      1.0  0.32680  0.54970  0.77890  1.0000
  C   C117      1.0  0.82680  0.95030  0.22110  1.0000
  C   C118      1.0  0.17320  0.04970  0.72110  1.0000
  C   C119      1.0  0.17320  0.95030  0.27890  1.0000
  C   C120      1.0  0.82680  0.04970  0.77890  1.0000
  H   H49       1.0  0.35130  0.48800  0.19710  1.0000
  H   H50       1.0  0.64870  0.51200  0.69710  1.0000
  H   H51       1.0  0.64870  0.48800  0.30290  1.0000
  H   H52       1.0  0.35130  0.51200  0.80290  1.0000
  H   H53       1.0  0.85130  0.98800  0.19710  1.0000
  H   H54       1.0  0.14870  0.01200  0.69710  1.0000
  H   H55       1.0  0.14870  0.98800  0.30290  1.0000
  H   H56       1.0  0.85130  0.01200  0.80290  1.0000
