data_image0
_chemical_formula_structural       Cd4O24N4C12H8O8H8C8O4C4H4C8H4C16H4N8C16H8C20H8O4H4O8N4C4H4C4H12C4H12C8H8N8C8H24C8H24
_chemical_formula_sum              "Cd4 O48 N24 C120 H132"
_cell_length_a       24.361
_cell_length_b       15.388
_cell_length_c       11.609
_cell_angle_alpha    90
_cell_angle_beta     118.46
_cell_angle_gamma    90

_space_group_name_H-M_alt    "P 1"
_space_group_IT_number       1

loop_
  _space_group_symop_operation_xyz
  'x, y, z'

loop_
  _atom_site_type_symbol
  _atom_site_label
  _atom_site_symmetry_multiplicity
  _atom_site_fract_x
  _atom_site_fract_y
  _atom_site_fract_z
  _atom_site_occupancy
  Cd  Cd1       1.0  0.09199  0.00000  0.69655  1.0000
  Cd  Cd2       1.0  0.59199  0.50000  0.69655  1.0000
  Cd  Cd3       1.0  0.90801  0.00000  0.30345  1.0000
  Cd  Cd4       1.0  0.40801  0.50000  0.30345  1.0000
  O   O1        1.0  0.13410  0.85990  0.80260  1.0000
  O   O2        1.0  0.63410  0.35990  0.80260  1.0000
  O   O3        1.0  0.86590  0.85990  0.19740  1.0000
  O   O4        1.0  0.36590  0.35990  0.19740  1.0000
  O   O5        1.0  0.86590  0.14010  0.19740  1.0000
  O   O6        1.0  0.36590  0.64010  0.19740  1.0000
  O   O7        1.0  0.13410  0.14010  0.80260  1.0000
  O   O8        1.0  0.63410  0.64010  0.80260  1.0000
  O   O9        1.0  0.00840  0.09290  0.66650  1.0000
  O   O10       1.0  0.50840  0.59290  0.66650  1.0000
  O   O11       1.0  0.99160  0.09290  0.33350  1.0000
  O   O12       1.0  0.49160  0.59290  0.33350  1.0000
  O   O13       1.0  0.99160  0.90710  0.33350  1.0000
  O   O14       1.0  0.49160  0.40710  0.33350  1.0000
  O   O15       1.0  0.00840  0.90710  0.66650  1.0000
  O   O16       1.0  0.50840  0.40710  0.66650  1.0000
  O   O17       1.0  0.09980  0.00000  0.90950  1.0000
  O   O18       1.0  0.59980  0.50000  0.90950  1.0000
  O   O19       1.0  0.90020  0.00000  0.09050  1.0000
  O   O20       1.0  0.40020  0.50000  0.09050  1.0000
  O   O21       1.0  0.19610  0.00000  0.72910  1.0000
  O   O22       1.0  0.69610  0.50000  0.72910  1.0000
  O   O23       1.0  0.80390  0.00000  0.27090  1.0000
  O   O24       1.0  0.30390  0.50000  0.27090  1.0000
  N   N1        1.0  0.47560  0.00000  0.00990  1.0000
  N   N2        1.0  0.97560  0.50000  0.00990  1.0000
  N   N3        1.0  0.52440  0.00000  0.99010  1.0000
  N   N4        1.0  0.02440  0.50000  0.99010  1.0000
  C   C1        1.0  0.29700  0.00000  0.68370  1.0000
  C   C2        1.0  0.79700  0.50000  0.68370  1.0000
  C   C3        1.0  0.70300  0.00000  0.31630  1.0000
  C   C4        1.0  0.20300  0.50000  0.31630  1.0000
  C   C5        1.0  0.86260  0.27540  0.75400  1.0000
  C   C6        1.0  0.36260  0.77540  0.75400  1.0000
  C   C7        1.0  0.13740  0.27540  0.24600  1.0000
  C   C8        1.0  0.63740  0.77540  0.24600  1.0000
  C   C9        1.0  0.13740  0.72460  0.24600  1.0000
  C   C10       1.0  0.63740  0.22460  0.24600  1.0000
  C   C11       1.0  0.86260  0.72460  0.75400  1.0000
  C   C12       1.0  0.36260  0.22460  0.75400  1.0000
  H   H1        1.0  0.84210  0.30870  0.78860  1.0000
  H   H2        1.0  0.34210  0.80870  0.78860  1.0000
  H   H3        1.0  0.15790  0.30870  0.21140  1.0000
  H   H4        1.0  0.65790  0.80870  0.21140  1.0000
  H   H5        1.0  0.15790  0.69130  0.21140  1.0000
  H   H6        1.0  0.65790  0.19130  0.21140  1.0000
  H   H7        1.0  0.84210  0.69130  0.78860  1.0000
  H   H8        1.0  0.34210  0.19130  0.78860  1.0000
  O   O25       1.0  0.01690  0.19430  0.85750  1.0000
  O   O26       1.0  0.51690  0.69430  0.85750  1.0000
  O   O27       1.0  0.98310  0.19430  0.14250  1.0000
  O   O28       1.0  0.48310  0.69430  0.14250  1.0000
  O   O29       1.0  0.98310  0.80570  0.14250  1.0000
  O   O30       1.0  0.48310  0.30570  0.14250  1.0000
  O   O31       1.0  0.01690  0.80570  0.85750  1.0000
  O   O32       1.0  0.51690  0.30570  0.85750  1.0000
  H   H9        1.0  0.03160  0.16250  0.82260  1.0000
  H   H10       1.0  0.53160  0.66250  0.82260  1.0000
  H   H11       1.0  0.96840  0.16250  0.17740  1.0000
  H   H12       1.0  0.46840  0.66250  0.17740  1.0000
  H   H13       1.0  0.96840  0.83750  0.17740  1.0000
  H   H14       1.0  0.46840  0.33750  0.17740  1.0000
  H   H15       1.0  0.03160  0.83750  0.82260  1.0000
  H   H16       1.0  0.53160  0.33750  0.82260  1.0000
  C   C13       1.0  0.95410  0.20420  0.77610  1.0000
  C   C14       1.0  0.45410  0.70420  0.77610  1.0000
  C   C15       1.0  0.04590  0.20420  0.22390  1.0000
  C   C16       1.0  0.54590  0.70420  0.22390  1.0000
  C   C17       1.0  0.04590  0.79580  0.22390  1.0000
  C   C18       1.0  0.54590  0.29580  0.22390  1.0000
  C   C19       1.0  0.95410  0.79580  0.77610  1.0000
  C   C20       1.0  0.45410  0.29580  0.77610  1.0000
  O   O33       1.0  0.26050  0.00000  0.94720  1.0000
  O   O34       1.0  0.76050  0.50000  0.94720  1.0000
  O   O35       1.0  0.73950  0.00000  0.05280  1.0000
  O   O36       1.0  0.23950  0.50000  0.05280  1.0000
  C   C21       1.0  0.34810  0.00000  0.65800  1.0000
  C   C22       1.0  0.84810  0.50000  0.65800  1.0000
  C   C23       1.0  0.65190  0.00000  0.34200  1.0000
  C   C24       1.0  0.15190  0.50000  0.34200  1.0000
  H   H17       1.0  0.34220  0.00000  0.57260  1.0000
  H   H18       1.0  0.84220  0.50000  0.57260  1.0000
  H   H19       1.0  0.65780  0.00000  0.42740  1.0000
  H   H20       1.0  0.15780  0.50000  0.42740  1.0000
  C   C25       1.0  0.41690  0.00000  0.89200  1.0000
  C   C26       1.0  0.91690  0.50000  0.89200  1.0000
  C   C27       1.0  0.58310  0.00000  0.10800  1.0000
  C   C28       1.0  0.08310  0.50000  0.10800  1.0000
  C   C29       1.0  0.40700  0.00000  0.76370  1.0000
  C   C30       1.0  0.90700  0.50000  0.76370  1.0000
  C   C31       1.0  0.59300  0.00000  0.23630  1.0000
  C   C32       1.0  0.09300  0.50000  0.23630  1.0000
  H   H21       1.0  0.44140  0.00000  0.74910  1.0000
  H   H22       1.0  0.94140  0.50000  0.74910  1.0000
  H   H23       1.0  0.55860  0.00000  0.25090  1.0000
  H   H24       1.0  0.05860  0.50000  0.25090  1.0000
  C   C33       1.0  0.82790  0.24140  0.62650  1.0000
  C   C34       1.0  0.32790  0.74140  0.62650  1.0000
  C   C35       1.0  0.17210  0.24140  0.37350  1.0000
  C   C36       1.0  0.67210  0.74140  0.37350  1.0000
  C   C37       1.0  0.17210  0.75860  0.37350  1.0000
  C   C38       1.0  0.67210  0.25860  0.37350  1.0000
  C   C39       1.0  0.82790  0.75860  0.62650  1.0000
  C   C40       1.0  0.32790  0.25860  0.62650  1.0000
  C   C41       1.0  0.25200  0.00000  0.83690  1.0000
  C   C42       1.0  0.75200  0.50000  0.83690  1.0000
  C   C43       1.0  0.74800  0.00000  0.16310  1.0000
  C   C44       1.0  0.24800  0.50000  0.16310  1.0000
  C   C45       1.0  0.36650  0.00000  0.91490  1.0000
  C   C46       1.0  0.86650  0.50000  0.91490  1.0000
  C   C47       1.0  0.63350  0.00000  0.08510  1.0000
  C   C48       1.0  0.13350  0.50000  0.08510  1.0000
  H   H25       1.0  0.37270  0.00000  0.00040  1.0000
  H   H26       1.0  0.87270  0.50000  0.00040  1.0000
  H   H27       1.0  0.62730  0.00000  0.99960  1.0000
  H   H28       1.0  0.12730  0.50000  0.99960  1.0000
  N   N5        1.0  0.76350  0.26170  0.55910  1.0000
  N   N6        1.0  0.26350  0.76170  0.55910  1.0000
  N   N7        1.0  0.23650  0.26170  0.44090  1.0000
  N   N8        1.0  0.73650  0.76170  0.44090  1.0000
  N   N9        1.0  0.23650  0.73830  0.44090  1.0000
  N   N10       1.0  0.73650  0.23830  0.44090  1.0000
  N   N11       1.0  0.76350  0.73830  0.55910  1.0000
  N   N12       1.0  0.26350  0.23830  0.55910  1.0000
  C   C49       1.0  0.92050  0.17090  0.65050  1.0000
  C   C50       1.0  0.42050  0.67090  0.65050  1.0000
  C   C51       1.0  0.07950  0.17090  0.34950  1.0000
  C   C52       1.0  0.57950  0.67090  0.34950  1.0000
  C   C53       1.0  0.07950  0.82910  0.34950  1.0000
  C   C54       1.0  0.57950  0.32910  0.34950  1.0000
  C   C55       1.0  0.92050  0.82910  0.65050  1.0000
  C   C56       1.0  0.42050  0.32910  0.65050  1.0000
  C   C57       1.0  0.85820  0.18890  0.57790  1.0000
  C   C58       1.0  0.35820  0.68890  0.57790  1.0000
  C   C59       1.0  0.14180  0.18890  0.42210  1.0000
  C   C60       1.0  0.64180  0.68890  0.42210  1.0000
  C   C61       1.0  0.14180  0.81110  0.42210  1.0000
  C   C62       1.0  0.64180  0.31110  0.42210  1.0000
  C   C63       1.0  0.85820  0.81110  0.57790  1.0000
  C   C64       1.0  0.35820  0.31110  0.57790  1.0000
  H   H29       1.0  0.83590  0.16550  0.49430  1.0000
  H   H30       1.0  0.33590  0.66550  0.49430  1.0000
  H   H31       1.0  0.16410  0.16550  0.50570  1.0000
  H   H32       1.0  0.66410  0.66550  0.50570  1.0000
  H   H33       1.0  0.16410  0.83450  0.50570  1.0000
  H   H34       1.0  0.66410  0.33450  0.50570  1.0000
  H   H35       1.0  0.83590  0.83450  0.49430  1.0000
  H   H36       1.0  0.33590  0.33450  0.49430  1.0000
  C   C65       1.0  0.95120  0.11390  0.59200  1.0000
  C   C66       1.0  0.45120  0.61390  0.59200  1.0000
  C   C67       1.0  0.04880  0.11390  0.40800  1.0000
  C   C68       1.0  0.54880  0.61390  0.40800  1.0000
  C   C69       1.0  0.04880  0.88610  0.40800  1.0000
  C   C70       1.0  0.54880  0.38610  0.40800  1.0000
  C   C71       1.0  0.95120  0.88610  0.59200  1.0000
  C   C72       1.0  0.45120  0.38610  0.59200  1.0000
  C   C73       1.0  0.30530  0.00000  0.80910  1.0000
  C   C74       1.0  0.80530  0.50000  0.80910  1.0000
  C   C75       1.0  0.69470  0.00000  0.19090  1.0000
  C   C76       1.0  0.19470  0.50000  0.19090  1.0000
  C   C77       1.0  0.92450  0.26160  0.82780  1.0000
  C   C78       1.0  0.42450  0.76160  0.82780  1.0000
  C   C79       1.0  0.07550  0.26160  0.17220  1.0000
  C   C80       1.0  0.57550  0.76160  0.17220  1.0000
  C   C81       1.0  0.07550  0.73840  0.17220  1.0000
  C   C82       1.0  0.57550  0.23840  0.17220  1.0000
  C   C83       1.0  0.92450  0.73840  0.82780  1.0000
  C   C84       1.0  0.42450  0.23840  0.82780  1.0000
  H   H37       1.0  0.94720  0.28820  0.90890  1.0000
  H   H38       1.0  0.44720  0.78820  0.90890  1.0000
  H   H39       1.0  0.05280  0.28820  0.09110  1.0000
  H   H40       1.0  0.55280  0.78820  0.09110  1.0000
  H   H41       1.0  0.05280  0.71180  0.09110  1.0000
  H   H42       1.0  0.55280  0.21180  0.09110  1.0000
  H   H43       1.0  0.94720  0.71180  0.90890  1.0000
  H   H44       1.0  0.44720  0.21180  0.90890  1.0000
  O   O37       1.0  0.23800  0.00000  0.57740  1.0000
  O   O38       1.0  0.73800  0.50000  0.57740  1.0000
  O   O39       1.0  0.76200  0.00000  0.42260  1.0000
  O   O40       1.0  0.26200  0.50000  0.42260  1.0000
  H   H45       1.0  0.21190  0.00000  0.60300  1.0000
  H   H46       1.0  0.71190  0.50000  0.60300  1.0000
  H   H47       1.0  0.78810  0.00000  0.39700  1.0000
  H   H48       1.0  0.28810  0.50000  0.39700  1.0000
  O   O41       1.0  0.91970  0.09120  0.47710  1.0000
  O   O42       1.0  0.41970  0.59120  0.47710  1.0000
  O   O43       1.0  0.08030  0.09120  0.52290  1.0000
  O   O44       1.0  0.58030  0.59120  0.52290  1.0000
  O   O45       1.0  0.08030  0.90880  0.52290  1.0000
  O   O46       1.0  0.58030  0.40880  0.52290  1.0000
  O   O47       1.0  0.91970  0.90880  0.47710  1.0000
  O   O48       1.0  0.41970  0.40880  0.47710  1.0000
  N   N13       1.0  0.14160  0.00000  0.12890  1.0000
  N   N14       1.0  0.64160  0.50000  0.12890  1.0000
  N   N15       1.0  0.85840  0.00000  0.87110  1.0000
  N   N16       1.0  0.35840  0.50000  0.87110  1.0000
  C   C85       1.0  0.14770  0.00000  0.02420  1.0000
  C   C86       1.0  0.64770  0.50000  0.02420  1.0000
  C   C87       1.0  0.85230  0.00000  0.97580  1.0000
  C   C88       1.0  0.35230  0.50000  0.97580  1.0000
  H   H49       1.0  0.18750  0.00000  0.03200  1.0000
  H   H50       1.0  0.68750  0.50000  0.03200  1.0000
  H   H51       1.0  0.81250  0.00000  0.96800  1.0000
  H   H52       1.0  0.31250  0.50000  0.96800  1.0000
  C   C89       1.0  0.07810  0.00000  0.11700  1.0000
  C   C90       1.0  0.57810  0.50000  0.11700  1.0000
  C   C91       1.0  0.92190  0.00000  0.88300  1.0000
  C   C92       1.0  0.42190  0.50000  0.88300  1.0000
  H   H53       1.0  0.04740  0.00000  0.02580  1.0000
  H   H54       1.0  0.54740  0.50000  0.02580  1.0000
  H   H55       1.0  0.95260  0.00000  0.97420  1.0000
  H   H56       1.0  0.45260  0.50000  0.97420  1.0000
  H   H57       1.0  0.07290  0.05090  0.15830  1.0000
  H   H58       1.0  0.57290  0.55090  0.15830  1.0000
  H   H59       1.0  0.92710  0.05090  0.84170  1.0000
  H   H60       1.0  0.42710  0.55090  0.84170  1.0000
  H   H61       1.0  0.92710  0.94910  0.84170  1.0000
  H   H62       1.0  0.42710  0.44910  0.84170  1.0000
  H   H63       1.0  0.07290  0.94910  0.15830  1.0000
  H   H64       1.0  0.57290  0.44910  0.15830  1.0000
  C   C93       1.0  0.19820  0.00000  0.25200  1.0000
  C   C94       1.0  0.69820  0.50000  0.25200  1.0000
  C   C95       1.0  0.80180  0.00000  0.74800  1.0000
  C   C96       1.0  0.30180  0.50000  0.74800  1.0000
  H   H65       1.0  0.23360  0.00000  0.23710  1.0000
  H   H66       1.0  0.73360  0.50000  0.23710  1.0000
  H   H67       1.0  0.76640  0.00000  0.76290  1.0000
  H   H68       1.0  0.26640  0.50000  0.76290  1.0000
  H   H69       1.0  0.19940  0.94910  0.30140  1.0000
  H   H70       1.0  0.69940  0.44910  0.30140  1.0000
  H   H71       1.0  0.80060  0.94910  0.69860  1.0000
  H   H72       1.0  0.30060  0.44910  0.69860  1.0000
  H   H73       1.0  0.80060  0.05090  0.69860  1.0000
  H   H74       1.0  0.30060  0.55090  0.69860  1.0000
  H   H75       1.0  0.19940  0.05090  0.30140  1.0000
  H   H76       1.0  0.69940  0.55090  0.30140  1.0000
  C   C97       1.0  0.16650  0.80520  0.78140  1.0000
  C   C98       1.0  0.66650  0.30520  0.78140  1.0000
  C   C99       1.0  0.83350  0.80520  0.21860  1.0000
  C   C100      1.0  0.33350  0.30520  0.21860  1.0000
  C   C101      1.0  0.83350  0.19480  0.21860  1.0000
  C   C102      1.0  0.33350  0.69480  0.21860  1.0000
  C   C103      1.0  0.16650  0.19480  0.78140  1.0000
  C   C104      1.0  0.66650  0.69480  0.78140  1.0000
  H   H77       1.0  0.18550  0.82250  0.73210  1.0000
  H   H78       1.0  0.68550  0.32250  0.73210  1.0000
  H   H79       1.0  0.81450  0.82250  0.26790  1.0000
  H   H80       1.0  0.31450  0.32250  0.26790  1.0000
  H   H81       1.0  0.81450  0.17750  0.26790  1.0000
  H   H82       1.0  0.31450  0.67750  0.26790  1.0000
  H   H83       1.0  0.18550  0.17750  0.73210  1.0000
  H   H84       1.0  0.68550  0.67750  0.73210  1.0000
  N   N17       1.0  0.17530  0.72300  0.82590  1.0000
  N   N18       1.0  0.67530  0.22300  0.82590  1.0000
  N   N19       1.0  0.82470  0.72300  0.17410  1.0000
  N   N20       1.0  0.32470  0.22300  0.17410  1.0000
  N   N21       1.0  0.82470  0.27700  0.17410  1.0000
  N   N22       1.0  0.32470  0.77700  0.17410  1.0000
  N   N23       1.0  0.17530  0.27700  0.82590  1.0000
  N   N24       1.0  0.67530  0.77700  0.82590  1.0000
  C   C105      1.0  0.14200  0.68900  0.88800  1.0000
  C   C106      1.0  0.64200  0.18900  0.88800  1.0000
  C   C107      1.0  0.85800  0.68900  0.11200  1.0000
  C   C108      1.0  0.35800  0.18900  0.11200  1.0000
  C   C109      1.0  0.85800  0.31100  0.11200  1.0000
  C   C110      1.0  0.35800  0.81100  0.11200  1.0000
  C   C111      1.0  0.14200  0.31100  0.88800  1.0000
  C   C112      1.0  0.64200  0.81100  0.88800  1.0000
  H   H85       1.0  0.11880  0.73490  0.90240  1.0000
  H   H86       1.0  0.61880  0.23490  0.90240  1.0000
  H   H87       1.0  0.88120  0.73490  0.09760  1.0000
  H   H88       1.0  0.38120  0.23490  0.09760  1.0000
  H   H89       1.0  0.88120  0.26510  0.09760  1.0000
  H   H90       1.0  0.38120  0.76510  0.09760  1.0000
  H   H91       1.0  0.11880  0.26510  0.90240  1.0000
  H   H92       1.0  0.61880  0.76510  0.90240  1.0000
  H   H93       1.0  0.17030  0.66370  0.97110  1.0000
  H   H94       1.0  0.67030  0.16370  0.97110  1.0000
  H   H95       1.0  0.82970  0.66370  0.02890  1.0000
  H   H96       1.0  0.32970  0.16370  0.02890  1.0000
  H   H97       1.0  0.82970  0.33630  0.02890  1.0000
  H   H98       1.0  0.32970  0.83630  0.02890  1.0000
  H   H99       1.0  0.17030  0.33630  0.97110  1.0000
  H   H100      1.0  0.67030  0.83630  0.97110  1.0000
  H   H101      1.0  0.11290  0.64510  0.83360  1.0000
  H   H102      1.0  0.61290  0.14510  0.83360  1.0000
  H   H103      1.0  0.88710  0.64510  0.16640  1.0000
  H   H104      1.0  0.38710  0.14510  0.16640  1.0000
  H   H105      1.0  0.88710  0.35490  0.16640  1.0000
  H   H106      1.0  0.38710  0.85490  0.16640  1.0000
  H   H107      1.0  0.11290  0.35490  0.83360  1.0000
  H   H108      1.0  0.61290  0.85490  0.83360  1.0000
  C   C113      1.0  0.21660  0.67030  0.80300  1.0000
  C   C114      1.0  0.71660  0.17030  0.80300  1.0000
  C   C115      1.0  0.78340  0.67030  0.19700  1.0000
  C   C116      1.0  0.28340  0.17030  0.19700  1.0000
  C   C117      1.0  0.78340  0.32970  0.19700  1.0000
  C   C118      1.0  0.28340  0.82970  0.19700  1.0000
  C   C119      1.0  0.21660  0.32970  0.80300  1.0000
  C   C120      1.0  0.71660  0.82970  0.80300  1.0000
  H   H109      1.0  0.22340  0.69600  0.73520  1.0000
  H   H110      1.0  0.72340  0.19600  0.73520  1.0000
  H   H111      1.0  0.77660  0.69600  0.26480  1.0000
  H   H112      1.0  0.27660  0.19600  0.26480  1.0000
  H   H113      1.0  0.77660  0.30400  0.26480  1.0000
  H   H114      1.0  0.27660  0.80400  0.26480  1.0000
  H   H115      1.0  0.22340  0.30400  0.73520  1.0000
  H   H116      1.0  0.72340  0.80400  0.73520  1.0000
  H   H117      1.0  0.19870  0.61350  0.77550  1.0000
  H   H118      1.0  0.69870  0.11350  0.77550  1.0000
  H   H119      1.0  0.80130  0.61350  0.22450  1.0000
  H   H120      1.0  0.30130  0.11350  0.22450  1.0000
  H   H121      1.0  0.80130  0.38650  0.22450  1.0000
  H   H122      1.0  0.30130  0.88650  0.22450  1.0000
  H   H123      1.0  0.19870  0.38650  0.77550  1.0000
  H   H124      1.0  0.69870  0.88650  0.77550  1.0000
  H   H125      1.0  0.25570  0.66550  0.88180  1.0000
  H   H126      1.0  0.75570  0.16550  0.88180  1.0000
  H   H127      1.0  0.74430  0.66550  0.11820  1.0000
  H   H128      1.0  0.24430  0.16550  0.11820  1.0000
  H   H129      1.0  0.74430  0.33450  0.11820  1.0000
  H   H130      1.0  0.24430  0.83450  0.11820  1.0000
  H   H131      1.0  0.25570  0.33450  0.88180  1.0000
  H   H132      1.0  0.75570  0.83450  0.88180  1.0000
