data_image0
_chemical_formula_structural       Cu18Mn6S18O54N18C54H18C18H18C18H18C18H36
_chemical_formula_sum              "Cu18 Mn6 S18 O54 N18 C108 H90"
_cell_length_a       12.4305
_cell_length_b       12.4305
_cell_length_c       33.8994
_cell_angle_alpha    90
_cell_angle_beta     90
_cell_angle_gamma    120

_space_group_name_H-M_alt    "P 1"
_space_group_IT_number       1

loop_
  _space_group_symop_operation_xyz
  'x, y, z'

loop_
  _atom_site_type_symbol
  _atom_site_label
  _atom_site_symmetry_multiplicity
  _atom_site_fract_x
  _atom_site_fract_y
  _atom_site_fract_z
  _atom_site_occupancy
  Cu  Cu1       1.0  0.04589  0.87486  0.03131  1.0000
  Cu  Cu2       1.0  0.12514  0.17103  0.03131  1.0000
  Cu  Cu3       1.0  0.82897  0.95411  0.03131  1.0000
  Cu  Cu4       1.0  0.71256  0.20819  0.36464  1.0000
  Cu  Cu5       1.0  0.79181  0.50436  0.36464  1.0000
  Cu  Cu6       1.0  0.49564  0.28744  0.36464  1.0000
  Cu  Cu7       1.0  0.37922  0.54153  0.69798  1.0000
  Cu  Cu8       1.0  0.45847  0.83770  0.69798  1.0000
  Cu  Cu9       1.0  0.16230  0.62078  0.69798  1.0000
  Cu  Cu10      1.0  0.95411  0.12514  0.96869  1.0000
  Cu  Cu11      1.0  0.87486  0.82897  0.96869  1.0000
  Cu  Cu12      1.0  0.17103  0.04589  0.96869  1.0000
  Cu  Cu13      1.0  0.28744  0.79181  0.63536  1.0000
  Cu  Cu14      1.0  0.20819  0.49564  0.63536  1.0000
  Cu  Cu15      1.0  0.50436  0.71256  0.63536  1.0000
  Cu  Cu16      1.0  0.62078  0.45847  0.30202  1.0000
  Cu  Cu17      1.0  0.54153  0.16230  0.30202  1.0000
  Cu  Cu18      1.0  0.83770  0.37922  0.30202  1.0000
  Mn  Mn1       1.0  0.66670  0.33330  0.15020  1.0000
  Mn  Mn2       1.0  0.33337  0.66663  0.48353  1.0000
  Mn  Mn3       1.0  0.00003  0.99997  0.81687  1.0000
  Mn  Mn4       1.0  0.33330  0.66670  0.84980  1.0000
  Mn  Mn5       1.0  0.66663  0.33337  0.51647  1.0000
  Mn  Mn6       1.0  0.99997  0.00003  0.18313  1.0000
  S   S1        1.0  0.85901  0.80687  0.05803  1.0000
  S   S2        1.0  0.19313  0.05214  0.05803  1.0000
  S   S3        1.0  0.94786  0.14099  0.05803  1.0000
  S   S4        1.0  0.52568  0.14020  0.39136  1.0000
  S   S5        1.0  0.85980  0.38547  0.39136  1.0000
  S   S6        1.0  0.61453  0.47432  0.39136  1.0000
  S   S7        1.0  0.19234  0.47354  0.72470  1.0000
  S   S8        1.0  0.52646  0.71881  0.72470  1.0000
  S   S9        1.0  0.28119  0.80766  0.72470  1.0000
  S   S10       1.0  0.14099  0.19313  0.94197  1.0000
  S   S11       1.0  0.80687  0.94786  0.94197  1.0000
  S   S12       1.0  0.05214  0.85901  0.94197  1.0000
  S   S13       1.0  0.47432  0.85980  0.60864  1.0000
  S   S14       1.0  0.14020  0.61453  0.60864  1.0000
  S   S15       1.0  0.38547  0.52568  0.60864  1.0000
  S   S16       1.0  0.80766  0.52646  0.27530  1.0000
  S   S17       1.0  0.47354  0.28119  0.27530  1.0000
  S   S18       1.0  0.71881  0.19234  0.27530  1.0000
  O   O1        1.0  0.73420  0.50120  0.11491  1.0000
  O   O2        1.0  0.49880  0.23300  0.11491  1.0000
  O   O3        1.0  0.76700  0.26580  0.11491  1.0000
  O   O4        1.0  0.40087  0.83453  0.44824  1.0000
  O   O5        1.0  0.16547  0.56633  0.44824  1.0000
  O   O6        1.0  0.43367  0.59913  0.44824  1.0000
  O   O7        1.0  0.06753  0.16787  0.78158  1.0000
  O   O8        1.0  0.83213  0.89967  0.78158  1.0000
  O   O9        1.0  0.10033  0.93247  0.78158  1.0000
  O   O10       1.0  0.26580  0.49880  0.88509  1.0000
  O   O11       1.0  0.50120  0.76700  0.88509  1.0000
  O   O12       1.0  0.23300  0.73420  0.88509  1.0000
  O   O13       1.0  0.59913  0.16547  0.55176  1.0000
  O   O14       1.0  0.83453  0.43367  0.55176  1.0000
  O   O15       1.0  0.56633  0.40087  0.55176  1.0000
  O   O16       1.0  0.93247  0.83213  0.21842  1.0000
  O   O17       1.0  0.16787  0.10033  0.21842  1.0000
  O   O18       1.0  0.89967  0.06753  0.21842  1.0000
  O   O19       1.0  0.64020  0.61510  0.11817  1.0000
  O   O20       1.0  0.38490  0.02510  0.11817  1.0000
  O   O21       1.0  0.97490  0.35980  0.11817  1.0000
  O   O22       1.0  0.30687  0.94843  0.45150  1.0000
  O   O23       1.0  0.05157  0.35843  0.45150  1.0000
  O   O24       1.0  0.64157  0.69313  0.45150  1.0000
  O   O25       1.0  0.97353  0.28177  0.78484  1.0000
  O   O26       1.0  0.71823  0.69177  0.78484  1.0000
  O   O27       1.0  0.30823  0.02647  0.78484  1.0000
  O   O28       1.0  0.35980  0.38490  0.88183  1.0000
  O   O29       1.0  0.61510  0.97490  0.88183  1.0000
  O   O30       1.0  0.02510  0.64020  0.88183  1.0000
  O   O31       1.0  0.69313  0.05157  0.54850  1.0000
  O   O32       1.0  0.94843  0.64157  0.54850  1.0000
  O   O33       1.0  0.35843  0.30687  0.54850  1.0000
  O   O34       1.0  0.02647  0.71823  0.21516  1.0000
  O   O35       1.0  0.28177  0.30823  0.21516  1.0000
  O   O36       1.0  0.69177  0.97353  0.21516  1.0000
  O   O37       1.0  0.57120  0.40080  0.18829  1.0000
  O   O38       1.0  0.59920  0.17040  0.18829  1.0000
  O   O39       1.0  0.82960  0.42880  0.18829  1.0000
  O   O40       1.0  0.23787  0.73413  0.52162  1.0000
  O   O41       1.0  0.26587  0.50373  0.52162  1.0000
  O   O42       1.0  0.49627  0.76213  0.52162  1.0000
  O   O43       1.0  0.90453  0.06747  0.85496  1.0000
  O   O44       1.0  0.93253  0.83707  0.85496  1.0000
  O   O45       1.0  0.16293  0.09547  0.85496  1.0000
  O   O46       1.0  0.42880  0.59920  0.81171  1.0000
  O   O47       1.0  0.40080  0.82960  0.81171  1.0000
  O   O48       1.0  0.17040  0.57120  0.81171  1.0000
  O   O49       1.0  0.76213  0.26587  0.47838  1.0000
  O   O50       1.0  0.73413  0.49627  0.47838  1.0000
  O   O51       1.0  0.50373  0.23787  0.47838  1.0000
  O   O52       1.0  0.09547  0.93253  0.14504  1.0000
  O   O53       1.0  0.06747  0.16293  0.14504  1.0000
  O   O54       1.0  0.83707  0.90453  0.14504  1.0000
  N   N1        1.0  0.75450  0.66780  0.99443  1.0000
  N   N2        1.0  0.33220  0.08670  0.99443  1.0000
  N   N3        1.0  0.91330  0.24550  0.99443  1.0000
  N   N4        1.0  0.42117  0.00113  0.32776  1.0000
  N   N5        1.0  0.99887  0.42003  0.32776  1.0000
  N   N6        1.0  0.57997  0.57883  0.32776  1.0000
  N   N7        1.0  0.08783  0.33447  0.66110  1.0000
  N   N8        1.0  0.66553  0.75337  0.66110  1.0000
  N   N9        1.0  0.24663  0.91217  0.66110  1.0000
  N   N10       1.0  0.24550  0.33220  0.00557  1.0000
  N   N11       1.0  0.66780  0.91330  0.00557  1.0000
  N   N12       1.0  0.08670  0.75450  0.00557  1.0000
  N   N13       1.0  0.57883  0.99887  0.67224  1.0000
  N   N14       1.0  0.00113  0.57997  0.67224  1.0000
  N   N15       1.0  0.42003  0.42117  0.67224  1.0000
  N   N16       1.0  0.91217  0.66553  0.33890  1.0000
  N   N17       1.0  0.33447  0.24663  0.33890  1.0000
  N   N18       1.0  0.75337  0.08783  0.33890  1.0000
  C   C1        1.0  0.75420  0.66620  0.03410  1.0000
  C   C2        1.0  0.33380  0.08800  0.03410  1.0000
  C   C3        1.0  0.91200  0.24580  0.03410  1.0000
  C   C4        1.0  0.42087  0.99953  0.36743  1.0000
  C   C5        1.0  0.00047  0.42133  0.36743  1.0000
  C   C6        1.0  0.57867  0.57913  0.36743  1.0000
  C   C7        1.0  0.08753  0.33287  0.70077  1.0000
  C   C8        1.0  0.66713  0.75467  0.70077  1.0000
  C   C9        1.0  0.24533  0.91247  0.70077  1.0000
  C   C10       1.0  0.24580  0.33380  0.96590  1.0000
  C   C11       1.0  0.66620  0.91200  0.96590  1.0000
  C   C12       1.0  0.08800  0.75420  0.96590  1.0000
  C   C13       1.0  0.57913  0.00047  0.63257  1.0000
  C   C14       1.0  0.99953  0.57867  0.63257  1.0000
  C   C15       1.0  0.42133  0.42087  0.63257  1.0000
  C   C16       1.0  0.91247  0.66713  0.29923  1.0000
  C   C17       1.0  0.33287  0.24533  0.29923  1.0000
  C   C18       1.0  0.75467  0.08753  0.29923  1.0000
  C   C19       1.0  0.67830  0.55840  0.05528  1.0000
  C   C20       1.0  0.44160  0.11990  0.05528  1.0000
  C   C21       1.0  0.88010  0.32170  0.05528  1.0000
  C   C22       1.0  0.34497  0.89173  0.38861  1.0000
  C   C23       1.0  0.10827  0.45323  0.38861  1.0000
  C   C24       1.0  0.54677  0.65503  0.38861  1.0000
  C   C25       1.0  0.01163  0.22507  0.72195  1.0000
  C   C26       1.0  0.77493  0.78657  0.72195  1.0000
  C   C27       1.0  0.21343  0.98837  0.72195  1.0000
  C   C28       1.0  0.32170  0.44160  0.94472  1.0000
  C   C29       1.0  0.55840  0.88010  0.94472  1.0000
  C   C30       1.0  0.11990  0.67830  0.94472  1.0000
  C   C31       1.0  0.65503  0.10827  0.61139  1.0000
  C   C32       1.0  0.89173  0.54677  0.61139  1.0000
  C   C33       1.0  0.45323  0.34497  0.61139  1.0000
  C   C34       1.0  0.98837  0.77493  0.27805  1.0000
  C   C35       1.0  0.22507  0.21343  0.27805  1.0000
  C   C36       1.0  0.78657  0.01163  0.27805  1.0000
  C   C37       1.0  0.60020  0.45030  0.03458  1.0000
  C   C38       1.0  0.54970  0.14990  0.03458  1.0000
  C   C39       1.0  0.85010  0.39980  0.03458  1.0000
  C   C40       1.0  0.26687  0.78363  0.36791  1.0000
  C   C41       1.0  0.21637  0.48323  0.36791  1.0000
  C   C42       1.0  0.51677  0.73313  0.36791  1.0000
  C   C43       1.0  0.93353  0.11697  0.70125  1.0000
  C   C44       1.0  0.88303  0.81657  0.70125  1.0000
  C   C45       1.0  0.18343  0.06647  0.70125  1.0000
  C   C46       1.0  0.39980  0.54970  0.96542  1.0000
  C   C47       1.0  0.45030  0.85010  0.96542  1.0000
  C   C48       1.0  0.14990  0.60020  0.96542  1.0000
  C   C49       1.0  0.73313  0.21637  0.63209  1.0000
  C   C50       1.0  0.78363  0.51677  0.63209  1.0000
  C   C51       1.0  0.48323  0.26687  0.63209  1.0000
  C   C52       1.0  0.06647  0.88303  0.29875  1.0000
  C   C53       1.0  0.11697  0.18343  0.29875  1.0000
  C   C54       1.0  0.81657  0.93353  0.29875  1.0000
  H   H1        1.0  0.54880  0.37710  0.04810  1.0000
  H   H2        1.0  0.62290  0.17170  0.04810  1.0000
  H   H3        1.0  0.82830  0.45120  0.04810  1.0000
  H   H4        1.0  0.21547  0.71043  0.38143  1.0000
  H   H5        1.0  0.28957  0.50503  0.38143  1.0000
  H   H6        1.0  0.49497  0.78453  0.38143  1.0000
  H   H7        1.0  0.88213  0.04377  0.71477  1.0000
  H   H8        1.0  0.95623  0.83837  0.71477  1.0000
  H   H9        1.0  0.16163  0.11787  0.71477  1.0000
  H   H10       1.0  0.45120  0.62290  0.95190  1.0000
  H   H11       1.0  0.37710  0.82830  0.95190  1.0000
  H   H12       1.0  0.17170  0.54880  0.95190  1.0000
  H   H13       1.0  0.78453  0.28957  0.61857  1.0000
  H   H14       1.0  0.71043  0.49497  0.61857  1.0000
  H   H15       1.0  0.50503  0.21547  0.61857  1.0000
  H   H16       1.0  0.11787  0.95623  0.28523  1.0000
  H   H17       1.0  0.04377  0.16163  0.28523  1.0000
  H   H18       1.0  0.83837  0.88213  0.28523  1.0000
  C   C55       1.0  0.59960  0.45280  0.99368  1.0000
  C   C56       1.0  0.54720  0.14680  0.99368  1.0000
  C   C57       1.0  0.85320  0.40040  0.99368  1.0000
  C   C58       1.0  0.26627  0.78613  0.32701  1.0000
  C   C59       1.0  0.21387  0.48013  0.32701  1.0000
  C   C60       1.0  0.51987  0.73373  0.32701  1.0000
  C   C61       1.0  0.93293  0.11947  0.66035  1.0000
  C   C62       1.0  0.88053  0.81347  0.66035  1.0000
  C   C63       1.0  0.18653  0.06707  0.66035  1.0000
  C   C64       1.0  0.40040  0.54720  0.00632  1.0000
  C   C65       1.0  0.45280  0.85320  0.00632  1.0000
  C   C66       1.0  0.14680  0.59960  0.00632  1.0000
  C   C67       1.0  0.73373  0.21387  0.67299  1.0000
  C   C68       1.0  0.78613  0.51987  0.67299  1.0000
  C   C69       1.0  0.48013  0.26627  0.67299  1.0000
  C   C70       1.0  0.06707  0.88053  0.33965  1.0000
  C   C71       1.0  0.11947  0.18653  0.33965  1.0000
  C   C72       1.0  0.81347  0.93293  0.33965  1.0000
  H   H19       1.0  0.54770  0.38170  0.97930  1.0000
  H   H20       1.0  0.61830  0.16600  0.97930  1.0000
  H   H21       1.0  0.83400  0.45230  0.97930  1.0000
  H   H22       1.0  0.21437  0.71503  0.31263  1.0000
  H   H23       1.0  0.28497  0.49933  0.31263  1.0000
  H   H24       1.0  0.50067  0.78563  0.31263  1.0000
  H   H25       1.0  0.88103  0.04837  0.64597  1.0000
  H   H26       1.0  0.95163  0.83267  0.64597  1.0000
  H   H27       1.0  0.16733  0.11897  0.64597  1.0000
  H   H28       1.0  0.45230  0.61830  0.02070  1.0000
  H   H29       1.0  0.38170  0.83400  0.02070  1.0000
  H   H30       1.0  0.16600  0.54770  0.02070  1.0000
  H   H31       1.0  0.78563  0.28497  0.68737  1.0000
  H   H32       1.0  0.71503  0.50067  0.68737  1.0000
  H   H33       1.0  0.49933  0.21437  0.68737  1.0000
  H   H34       1.0  0.11897  0.95163  0.35403  1.0000
  H   H35       1.0  0.04837  0.16733  0.35403  1.0000
  H   H36       1.0  0.83267  0.88103  0.35403  1.0000
  C   C73       1.0  0.67730  0.56250  0.97514  1.0000
  C   C74       1.0  0.43750  0.11480  0.97514  1.0000
  C   C75       1.0  0.88520  0.32270  0.97514  1.0000
  C   C76       1.0  0.34397  0.89583  0.30847  1.0000
  C   C77       1.0  0.10417  0.44813  0.30847  1.0000
  C   C78       1.0  0.55187  0.65603  0.30847  1.0000
  C   C79       1.0  0.01063  0.22917  0.64181  1.0000
  C   C80       1.0  0.77083  0.78147  0.64181  1.0000
  C   C81       1.0  0.21853  0.98937  0.64181  1.0000
  C   C82       1.0  0.32270  0.43750  0.02486  1.0000
  C   C83       1.0  0.56250  0.88520  0.02486  1.0000
  C   C84       1.0  0.11480  0.67730  0.02486  1.0000
  C   C85       1.0  0.65603  0.10417  0.69153  1.0000
  C   C86       1.0  0.89583  0.55187  0.69153  1.0000
  C   C87       1.0  0.44813  0.34397  0.69153  1.0000
  C   C88       1.0  0.98937  0.77083  0.35819  1.0000
  C   C89       1.0  0.22917  0.21853  0.35819  1.0000
  C   C90       1.0  0.78147  0.01063  0.35819  1.0000
  H   H37       1.0  0.67680  0.56430  0.94770  1.0000
  H   H38       1.0  0.43570  0.11250  0.94770  1.0000
  H   H39       1.0  0.88750  0.32320  0.94770  1.0000
  H   H40       1.0  0.34347  0.89763  0.28103  1.0000
  H   H41       1.0  0.10237  0.44583  0.28103  1.0000
  H   H42       1.0  0.55417  0.65653  0.28103  1.0000
  H   H43       1.0  0.01013  0.23097  0.61437  1.0000
  H   H44       1.0  0.76903  0.77917  0.61437  1.0000
  H   H45       1.0  0.22083  0.98987  0.61437  1.0000
  H   H46       1.0  0.32320  0.43570  0.05230  1.0000
  H   H47       1.0  0.56430  0.88750  0.05230  1.0000
  H   H48       1.0  0.11250  0.67680  0.05230  1.0000
  H   H49       1.0  0.65653  0.10237  0.71897  1.0000
  H   H50       1.0  0.89763  0.55417  0.71897  1.0000
  H   H51       1.0  0.44583  0.34347  0.71897  1.0000
  H   H52       1.0  0.98987  0.76903  0.38563  1.0000
  H   H53       1.0  0.23097  0.22083  0.38563  1.0000
  H   H54       1.0  0.77917  0.01013  0.38563  1.0000
  C   C91       1.0  0.68310  0.55860  0.09982  1.0000
  C   C92       1.0  0.44140  0.12450  0.09982  1.0000
  C   C93       1.0  0.87550  0.31690  0.09982  1.0000
  C   C94       1.0  0.34977  0.89193  0.43315  1.0000
  C   C95       1.0  0.10807  0.45783  0.43315  1.0000
  C   C96       1.0  0.54217  0.65023  0.43315  1.0000
  C   C97       1.0  0.01643  0.22527  0.76649  1.0000
  C   C98       1.0  0.77473  0.79117  0.76649  1.0000
  C   C99       1.0  0.20883  0.98357  0.76649  1.0000
  C   C100      1.0  0.31690  0.44140  0.90018  1.0000
  C   C101      1.0  0.55860  0.87550  0.90018  1.0000
  C   C102      1.0  0.12450  0.68310  0.90018  1.0000
  C   C103      1.0  0.65023  0.10807  0.56685  1.0000
  C   C104      1.0  0.89193  0.54217  0.56685  1.0000
  C   C105      1.0  0.45783  0.34977  0.56685  1.0000
  C   C106      1.0  0.98357  0.77473  0.23351  1.0000
  C   C107      1.0  0.22527  0.20883  0.23351  1.0000
  C   C108      1.0  0.79117  0.01643  0.23351  1.0000
  H   H55       1.0  0.53600  0.36500  0.20460  1.0000
  H   H56       1.0  0.63500  0.17100  0.20460  1.0000
  H   H57       1.0  0.82900  0.46400  0.20460  1.0000
  H   H58       1.0  0.20267  0.69833  0.53793  1.0000
  H   H59       1.0  0.30167  0.50433  0.53793  1.0000
  H   H60       1.0  0.49567  0.79733  0.53793  1.0000
  H   H61       1.0  0.86933  0.03167  0.87127  1.0000
  H   H62       1.0  0.96833  0.83767  0.87127  1.0000
  H   H63       1.0  0.16233  0.13067  0.87127  1.0000
  H   H64       1.0  0.46400  0.63500  0.79540  1.0000
  H   H65       1.0  0.36500  0.82900  0.79540  1.0000
  H   H66       1.0  0.17100  0.53600  0.79540  1.0000
  H   H67       1.0  0.79733  0.30167  0.46207  1.0000
  H   H68       1.0  0.69833  0.49567  0.46207  1.0000
  H   H69       1.0  0.50433  0.20267  0.46207  1.0000
  H   H70       1.0  0.13067  0.96833  0.12873  1.0000
  H   H71       1.0  0.03167  0.16233  0.12873  1.0000
  H   H72       1.0  0.83767  0.86933  0.12873  1.0000
  H   H73       1.0  0.59900  0.47300  0.19550  1.0000
  H   H74       1.0  0.52700  0.12600  0.19550  1.0000
  H   H75       1.0  0.87400  0.40100  0.19550  1.0000
  H   H76       1.0  0.26567  0.80633  0.52883  1.0000
  H   H77       1.0  0.19367  0.45933  0.52883  1.0000
  H   H78       1.0  0.54067  0.73433  0.52883  1.0000
  H   H79       1.0  0.93233  0.13967  0.86217  1.0000
  H   H80       1.0  0.86033  0.79267  0.86217  1.0000
  H   H81       1.0  0.20733  0.06767  0.86217  1.0000
  H   H82       1.0  0.40100  0.52700  0.80450  1.0000
  H   H83       1.0  0.47300  0.87400  0.80450  1.0000
  H   H84       1.0  0.12600  0.59900  0.80450  1.0000
  H   H85       1.0  0.73433  0.19367  0.47117  1.0000
  H   H86       1.0  0.80633  0.54067  0.47117  1.0000
  H   H87       1.0  0.45933  0.26567  0.47117  1.0000
  H   H88       1.0  0.06767  0.86033  0.13783  1.0000
  H   H89       1.0  0.13967  0.20733  0.13783  1.0000
  H   H90       1.0  0.79267  0.93233  0.13783  1.0000
