data_image0
_chemical_formula_structural       W4Cu8S20N8C12H4C8H12C4H12
_chemical_formula_sum              "W4 Cu8 S20 N8 C24 H28"
_cell_length_a       12.006
_cell_length_b       20.976
_cell_length_c       12.765
_cell_angle_alpha    90
_cell_angle_beta     94.699
_cell_angle_gamma    90

_space_group_name_H-M_alt    "P 1"
_space_group_IT_number       1

loop_
  _space_group_symop_operation_xyz
  'x, y, z'

loop_
  _atom_site_type_symbol
  _atom_site_label
  _atom_site_symmetry_multiplicity
  _atom_site_fract_x
  _atom_site_fract_y
  _atom_site_fract_z
  _atom_site_occupancy
  W   W1        1.0  0.33553  0.20799  0.05959  1.0000
  W   W2        1.0  0.16447  0.70799  0.44041  1.0000
  W   W3        1.0  0.66447  0.79201  0.94041  1.0000
  W   W4        1.0  0.83553  0.29201  0.55959  1.0000
  Cu  Cu1       1.0  0.43708  0.14409  0.91936  1.0000
  Cu  Cu2       1.0  0.06292  0.64409  0.58064  1.0000
  Cu  Cu3       1.0  0.56292  0.85591  0.08064  1.0000
  Cu  Cu4       1.0  0.93708  0.35591  0.41936  1.0000
  Cu  Cu5       1.0  0.21927  0.26926  0.19233  1.0000
  Cu  Cu6       1.0  0.28073  0.76926  0.30767  1.0000
  Cu  Cu7       1.0  0.78073  0.73074  0.80767  1.0000
  Cu  Cu8       1.0  0.71927  0.23074  0.69233  1.0000
  S   S1        1.0  0.50716  0.16906  0.08249  1.0000
  S   S2        1.0  0.99284  0.66906  0.41751  1.0000
  S   S3        1.0  0.49284  0.83094  0.91751  1.0000
  S   S4        1.0  0.00716  0.33094  0.58249  1.0000
  S   S5        1.0  0.26696  0.18609  0.89647  1.0000
  S   S6        1.0  0.23304  0.68609  0.60353  1.0000
  S   S7        1.0  0.73304  0.81391  0.10353  1.0000
  S   S8        1.0  0.76696  0.31391  0.39647  1.0000
  S   S9        1.0  0.33611  0.31220  0.08616  1.0000
  S   S10       1.0  0.16389  0.81220  0.41384  1.0000
  S   S11       1.0  0.66389  0.68780  0.91384  1.0000
  S   S12       1.0  0.83611  0.18780  0.58616  1.0000
  S   S13       1.0  0.22766  0.16308  0.17260  1.0000
  S   S14       1.0  0.27234  0.66308  0.32740  1.0000
  S   S15       1.0  0.77234  0.83692  0.82740  1.0000
  S   S16       1.0  0.72766  0.33692  0.67260  1.0000
  S   S17       1.0  0.59910  0.19254  0.79399  1.0000
  S   S18       1.0  0.90090  0.69254  0.70601  1.0000
  S   S19       1.0  0.40090  0.80746  0.20601  1.0000
  S   S20       1.0  0.09910  0.30746  0.29399  1.0000
  N   N1        1.0  0.50870  0.08355  0.83130  1.0000
  N   N2        1.0  0.99130  0.58355  0.66870  1.0000
  N   N3        1.0  0.49130  0.91645  0.16870  1.0000
  N   N4        1.0  0.00870  0.41645  0.33130  1.0000
  N   N5        1.0  0.66020  0.07800  0.72130  1.0000
  N   N6        1.0  0.83980  0.57800  0.77870  1.0000
  N   N7        1.0  0.33980  0.92200  0.27870  1.0000
  N   N8        1.0  0.16020  0.42200  0.22130  1.0000
  C   C1        1.0  0.59140  0.10980  0.77910  1.0000
  C   C2        1.0  0.90860  0.60980  0.72090  1.0000
  C   C3        1.0  0.40860  0.89020  0.22090  1.0000
  C   C4        1.0  0.09140  0.39020  0.27910  1.0000
  C   C5        1.0  0.49240  0.02020  0.82190  1.0000
  C   C6        1.0  0.00760  0.52020  0.67810  1.0000
  C   C7        1.0  0.50760  0.97980  0.17810  1.0000
  C   C8        1.0  0.99240  0.47980  0.32190  1.0000
  C   C9        1.0  0.56160  0.98390  0.76430  1.0000
  C   C10       1.0  0.93840  0.48390  0.73570  1.0000
  C   C11       1.0  0.43840  0.01610  0.23570  1.0000
  C   C12       1.0  0.06160  0.51610  0.26430  1.0000
  H   H1        1.0  0.55230  0.94000  0.75890  1.0000
  H   H2        1.0  0.94770  0.44000  0.74110  1.0000
  H   H3        1.0  0.44770  0.06000  0.24110  1.0000
  H   H4        1.0  0.05230  0.56000  0.25890  1.0000
  C   C13       1.0  0.64570  0.01470  0.71450  1.0000
  C   C14       1.0  0.85430  0.51470  0.78550  1.0000
  C   C15       1.0  0.35430  0.98530  0.28550  1.0000
  C   C16       1.0  0.14570  0.48530  0.21450  1.0000
  C   C17       1.0  0.39620  0.99350  0.87620  1.0000
  C   C18       1.0  0.10380  0.49350  0.62380  1.0000
  C   C19       1.0  0.60380  0.00650  0.12380  1.0000
  C   C20       1.0  0.89620  0.50650  0.37620  1.0000
  H   H5        1.0  0.35970  0.02730  0.91070  1.0000
  H   H6        1.0  0.14030  0.52730  0.58930  1.0000
  H   H7        1.0  0.64030  0.97270  0.08930  1.0000
  H   H8        1.0  0.85970  0.47270  0.41070  1.0000
  H   H9        1.0  0.42340  0.96240  0.92720  1.0000
  H   H10       1.0  0.07660  0.46240  0.57280  1.0000
  H   H11       1.0  0.57660  0.03760  0.07280  1.0000
  H   H12       1.0  0.92340  0.53760  0.42720  1.0000
  H   H13       1.0  0.34390  0.97370  0.82520  1.0000
  H   H14       1.0  0.15610  0.47370  0.67480  1.0000
  H   H15       1.0  0.65610  0.02630  0.17480  1.0000
  H   H16       1.0  0.84390  0.52630  0.32520  1.0000
  C   C21       1.0  0.72340  0.97940  0.64980  1.0000
  C   C22       1.0  0.77660  0.47940  0.85020  1.0000
  C   C23       1.0  0.27660  0.02060  0.35020  1.0000
  C   C24       1.0  0.22340  0.52060  0.14980  1.0000
  H   H17       1.0  0.77520  0.00870  0.62260  1.0000
  H   H18       1.0  0.72480  0.50870  0.87740  1.0000
  H   H19       1.0  0.22480  0.99130  0.37740  1.0000
  H   H20       1.0  0.27520  0.49130  0.12260  1.0000
  H   H21       1.0  0.68130  0.95850  0.59240  1.0000
  H   H22       1.0  0.81870  0.45850  0.90760  1.0000
  H   H23       1.0  0.31870  0.04150  0.40760  1.0000
  H   H24       1.0  0.18130  0.54150  0.09240  1.0000
  H   H25       1.0  0.76380  0.94810  0.69260  1.0000
  H   H26       1.0  0.73620  0.44810  0.80740  1.0000
  H   H27       1.0  0.23620  0.05190  0.30740  1.0000
  H   H28       1.0  0.26380  0.55190  0.19260  1.0000
