data_image0
_chemical_formula_structural       Mo4Cu8S20N8C12H4C8H12C4H12
_chemical_formula_sum              "Mo4 Cu8 S20 N8 C24 H28"
_cell_length_a       11.987
_cell_length_b       20.931
_cell_length_c       12.757
_cell_angle_alpha    90
_cell_angle_beta     94.583
_cell_angle_gamma    90

_space_group_name_H-M_alt    "P 1"
_space_group_IT_number       1

loop_
  _space_group_symop_operation_xyz
  'x, y, z'

loop_
  _atom_site_type_symbol
  _atom_site_label
  _atom_site_symmetry_multiplicity
  _atom_site_fract_x
  _atom_site_fract_y
  _atom_site_fract_z
  _atom_site_occupancy
  Mo  Mo1       1.0  0.83574  0.20807  0.05922  1.0000
  Mo  Mo2       1.0  0.66426  0.70807  0.44078  1.0000
  Mo  Mo3       1.0  0.16426  0.79193  0.94078  1.0000
  Mo  Mo4       1.0  0.33574  0.29193  0.55922  1.0000
  Cu  Cu1       1.0  0.71997  0.26901  0.19171  1.0000
  Cu  Cu2       1.0  0.78003  0.76901  0.30829  1.0000
  Cu  Cu3       1.0  0.28003  0.73099  0.80829  1.0000
  Cu  Cu4       1.0  0.21997  0.23099  0.69171  1.0000
  Cu  Cu5       1.0  0.93748  0.14427  0.91999  1.0000
  Cu  Cu6       1.0  0.56252  0.64427  0.58001  1.0000
  Cu  Cu7       1.0  0.06252  0.85573  0.08001  1.0000
  Cu  Cu8       1.0  0.43748  0.35573  0.41999  1.0000
  S   S1        1.0  0.72704  0.16307  0.17210  1.0000
  S   S2        1.0  0.77296  0.66307  0.32790  1.0000
  S   S3        1.0  0.27296  0.83693  0.82790  1.0000
  S   S4        1.0  0.22704  0.33693  0.67210  1.0000
  S   S5        1.0  0.83537  0.31261  0.08580  1.0000
  S   S6        1.0  0.66463  0.81261  0.41420  1.0000
  S   S7        1.0  0.16463  0.68739  0.91420  1.0000
  S   S8        1.0  0.33537  0.18739  0.58580  1.0000
  S   S9        1.0  0.76774  0.18602  0.89600  1.0000
  S   S10       1.0  0.73226  0.68602  0.60400  1.0000
  S   S11       1.0  0.23226  0.81398  0.10400  1.0000
  S   S12       1.0  0.26774  0.31398  0.39600  1.0000
  S   S13       1.0  0.00753  0.16899  0.08187  1.0000
  S   S14       1.0  0.49247  0.66899  0.41813  1.0000
  S   S15       1.0  0.99247  0.83101  0.91813  1.0000
  S   S16       1.0  0.50753  0.33101  0.58187  1.0000
  S   S17       1.0  0.09981  0.19291  0.79383  1.0000
  S   S18       1.0  0.40019  0.69291  0.70617  1.0000
  S   S19       1.0  0.90019  0.80709  0.20617  1.0000
  S   S20       1.0  0.59981  0.30709  0.29383  1.0000
  N   N1        1.0  0.16120  0.07770  0.72180  1.0000
  N   N2        1.0  0.33880  0.57770  0.77820  1.0000
  N   N3        1.0  0.83880  0.92230  0.27820  1.0000
  N   N4        1.0  0.66120  0.42230  0.22180  1.0000
  N   N5        1.0  0.00930  0.08410  0.83080  1.0000
  N   N6        1.0  0.49070  0.58410  0.66920  1.0000
  N   N7        1.0  0.99070  0.91590  0.16920  1.0000
  N   N8        1.0  0.50930  0.41590  0.33080  1.0000
  C   C1        1.0  0.09210  0.10950  0.77980  1.0000
  C   C2        1.0  0.40790  0.60950  0.72020  1.0000
  C   C3        1.0  0.90790  0.89050  0.22020  1.0000
  C   C4        1.0  0.59210  0.39050  0.27980  1.0000
  C   C5        1.0  0.14560  0.01390  0.71450  1.0000
  C   C6        1.0  0.35440  0.51390  0.78550  1.0000
  C   C7        1.0  0.85440  0.98610  0.28550  1.0000
  C   C8        1.0  0.64560  0.48610  0.21450  1.0000
  C   C9        1.0  0.06180  0.98370  0.76570  1.0000
  C   C10       1.0  0.43820  0.48370  0.73430  1.0000
  C   C11       1.0  0.93820  0.01630  0.23430  1.0000
  C   C12       1.0  0.56180  0.51630  0.26570  1.0000
  H   H1        1.0  0.05270  0.93960  0.76150  1.0000
  H   H2        1.0  0.44730  0.43960  0.73850  1.0000
  H   H3        1.0  0.94730  0.06040  0.23850  1.0000
  H   H4        1.0  0.55270  0.56040  0.26150  1.0000
  C   C13       1.0  0.99280  0.02010  0.82260  1.0000
  C   C14       1.0  0.50720  0.52010  0.67740  1.0000
  C   C15       1.0  0.00720  0.97990  0.17740  1.0000
  C   C16       1.0  0.49280  0.47990  0.32260  1.0000
  C   C17       1.0  0.22420  0.97930  0.64950  1.0000
  C   C18       1.0  0.27580  0.47930  0.85050  1.0000
  C   C19       1.0  0.77580  0.02070  0.35050  1.0000
  C   C20       1.0  0.72420  0.52070  0.14950  1.0000
  H   H5        1.0  0.27460  0.00930  0.62160  1.0000
  H   H6        1.0  0.22540  0.50930  0.87840  1.0000
  H   H7        1.0  0.72540  0.99070  0.37840  1.0000
  H   H8        1.0  0.77460  0.49070  0.12160  1.0000
  H   H9        1.0  0.26610  0.94860  0.69240  1.0000
  H   H10       1.0  0.23390  0.44860  0.80760  1.0000
  H   H11       1.0  0.73390  0.05140  0.30760  1.0000
  H   H12       1.0  0.76610  0.55140  0.19240  1.0000
  H   H13       1.0  0.18240  0.95780  0.59270  1.0000
  H   H14       1.0  0.31760  0.45780  0.90730  1.0000
  H   H15       1.0  0.81760  0.04220  0.40730  1.0000
  H   H16       1.0  0.68240  0.54220  0.09270  1.0000
  C   C21       1.0  0.89660  0.99320  0.87720  1.0000
  C   C22       1.0  0.60340  0.49320  0.62280  1.0000
  C   C23       1.0  0.10340  0.00680  0.12280  1.0000
  C   C24       1.0  0.39660  0.50680  0.37720  1.0000
  H   H17       1.0  0.85970  0.02710  0.91150  1.0000
  H   H18       1.0  0.64030  0.52710  0.58850  1.0000
  H   H19       1.0  0.14030  0.97290  0.08850  1.0000
  H   H20       1.0  0.35970  0.47290  0.41150  1.0000
  H   H21       1.0  0.84450  0.97310  0.82650  1.0000
  H   H22       1.0  0.65550  0.47310  0.67350  1.0000
  H   H23       1.0  0.15550  0.02690  0.17350  1.0000
  H   H24       1.0  0.34450  0.52690  0.32650  1.0000
  H   H25       1.0  0.92410  0.96230  0.92850  1.0000
  H   H26       1.0  0.57590  0.46230  0.57150  1.0000
  H   H27       1.0  0.07590  0.03770  0.07150  1.0000
  H   H28       1.0  0.42410  0.53770  0.42850  1.0000
