data_image0
_chemical_formula_structural       W4Cu8S20N4C4H2C2H2C2H2C2H2C4H2C2H2C2H2C2H2
_chemical_formula_sum              "W4 Cu8 S20 N4 C20 H16"
_cell_length_a       12.524
_cell_length_b       15.811
_cell_length_c       17.099
_cell_angle_alpha    100.619
_cell_angle_beta     107.124
_cell_angle_gamma    105.565

_space_group_name_H-M_alt    "P 1"
_space_group_IT_number       1

loop_
  _space_group_symop_operation_xyz
  'x, y, z'

loop_
  _atom_site_type_symbol
  _atom_site_label
  _atom_site_symmetry_multiplicity
  _atom_site_fract_x
  _atom_site_fract_y
  _atom_site_fract_z
  _atom_site_occupancy
  W   W1        1.0  0.77177  0.19000  0.92388  1.0000
  W   W2        1.0  0.22823  0.81000  0.07612  1.0000
  W   W3        1.0  0.18540  0.26671  0.49428  1.0000
  W   W4        1.0  0.81460  0.73329  0.50572  1.0000
  Cu  Cu1       1.0  0.91159  0.27884  0.08427  1.0000
  Cu  Cu2       1.0  0.08841  0.72116  0.91573  1.0000
  Cu  Cu3       1.0  0.62335  0.09993  0.76714  1.0000
  Cu  Cu4       1.0  0.37665  0.90007  0.23286  1.0000
  Cu  Cu5       1.0  0.30526  0.18553  0.59098  1.0000
  Cu  Cu6       1.0  0.69474  0.81447  0.40902  1.0000
  Cu  Cu7       1.0  0.05530  0.34139  0.39953  1.0000
  Cu  Cu8       1.0  0.94470  0.65861  0.60047  1.0000
  S   S1        1.0  0.94264  0.17473  0.99472  1.0000
  S   S2        1.0  0.05736  0.82527  0.00528  1.0000
  S   S3        1.0  0.74362  0.29699  0.01127  1.0000
  S   S4        1.0  0.25638  0.70301  0.98873  1.0000
  S   S5        1.0  0.62186  0.05989  0.88547  1.0000
  S   S6        1.0  0.37814  0.94011  0.11453  1.0000
  S   S7        1.0  0.77766  0.22881  0.80627  1.0000
  S   S8        1.0  0.22234  0.77119  0.19373  1.0000
  S   S9        1.0  0.25393  0.15821  0.44947  1.0000
  S   S10       1.0  0.74607  0.84179  0.55053  1.0000
  S   S11       1.0  0.24397  0.29960  0.63541  1.0000
  S   S12       1.0  0.75603  0.70040  0.36459  1.0000
  S   S13       1.0  0.98818  0.21565  0.43684  1.0000
  S   S14       1.0  0.01182  0.78435  0.56316  1.0000
  S   S15       1.0  0.25342  0.39317  0.45891  1.0000
  S   S16       1.0  0.74658  0.60683  0.54109  1.0000
  S   S17       1.0  0.39746  0.12281  0.68073  1.0000
  S   S18       1.0  0.60254  0.87719  0.31927  1.0000
  S   S19       1.0  0.01913  0.34152  0.21957  1.0000
  S   S20       1.0  0.98087  0.65848  0.78043  1.0000
  N   N1        1.0  0.52050  0.01790  0.65390  1.0000
  N   N2        1.0  0.47950  0.98210  0.34610  1.0000
  N   N3        1.0  0.95530  0.40430  0.34560  1.0000
  N   N4        1.0  0.04470  0.59570  0.65440  1.0000
  C   C1        1.0  0.41750  0.03050  0.61930  1.0000
  C   C2        1.0  0.58250  0.96950  0.38070  1.0000
  C   C3        1.0  0.33580  0.97270  0.54070  1.0000
  C   C4        1.0  0.66420  0.02730  0.45930  1.0000
  H   H1        1.0  0.26300  0.98040  0.51780  1.0000
  H   H2        1.0  0.73700  0.01960  0.48220  1.0000
  C   C5        1.0  0.36220  0.90380  0.49640  1.0000
  C   C6        1.0  0.63780  0.09620  0.50360  1.0000
  H   H3        1.0  0.30870  0.86590  0.44290  1.0000
  H   H4        1.0  0.69130  0.13410  0.55710  1.0000
  C   C7        1.0  0.46820  0.89210  0.53240  1.0000
  C   C8        1.0  0.53180  0.10790  0.46760  1.0000
  H   H5        1.0  0.48790  0.84590  0.50420  1.0000
  H   H6        1.0  0.51210  0.15410  0.49580  1.0000
  C   C9        1.0  0.54530  0.95040  0.61140  1.0000
  C   C10       1.0  0.45470  0.04960  0.38860  1.0000
  H   H7        1.0  0.61740  0.94240  0.63620  1.0000
  H   H8        1.0  0.38260  0.05760  0.36380  1.0000
  C   C11       1.0  0.94380  0.40370  0.26400  1.0000
  C   C12       1.0  0.05620  0.59630  0.73600  1.0000
  C   C13       1.0  0.87610  0.45030  0.22190  1.0000
  C   C14       1.0  0.12390  0.54970  0.77810  1.0000
  H   H9        1.0  0.86990  0.45110  0.16650  1.0000
  H   H10       1.0  0.13010  0.54890  0.83350  1.0000
  C   C15       1.0  0.81860  0.49520  0.26290  1.0000
  C   C16       1.0  0.18140  0.50480  0.73710  1.0000
  H   H11       1.0  0.77420  0.52700  0.23560  1.0000
  H   H12       1.0  0.22580  0.47300  0.76440  1.0000
  C   C17       1.0  0.82730  0.49240  0.34420  1.0000
  C   C18       1.0  0.17270  0.50760  0.65580  1.0000
  H   H13       1.0  0.78730  0.52110  0.37210  1.0000
  H   H14       1.0  0.21270  0.47890  0.62790  1.0000
  C   C19       1.0  0.89490  0.44750  0.38340  1.0000
  C   C20       1.0  0.10510  0.55250  0.61660  1.0000
  H   H15       1.0  0.90050  0.44610  0.43860  1.0000
  H   H16       1.0  0.09950  0.55390  0.56140  1.0000
