data_image0
_chemical_formula_structural       O4C8H12C8H12C8H12C8H12C8H12Cu8O36
_chemical_formula_sum              "O40 C40 H60 Cu8"
_cell_length_a       17.6366
_cell_length_b       12.1078
_cell_length_c       11.9148
_cell_angle_alpha    90
_cell_angle_beta     90
_cell_angle_gamma    90

_space_group_name_H-M_alt    "P 1"
_space_group_IT_number       1

loop_
  _space_group_symop_operation_xyz
  'x, y, z'

loop_
  _atom_site_type_symbol
  _atom_site_label
  _atom_site_symmetry_multiplicity
  _atom_site_fract_x
  _atom_site_fract_y
  _atom_site_fract_z
  _atom_site_occupancy
  O   O1        1.0  0.53024  0.83528  0.54070  1.0000
  O   O2        1.0  0.46976  0.16472  0.04070  1.0000
  O   O3        1.0  0.03024  0.66472  0.54070  1.0000
  O   O4        1.0  0.96976  0.33528  0.04070  1.0000
  C   C1        1.0  0.75151  0.95440  0.61650  1.0000
  C   C2        1.0  0.24849  0.04560  0.11650  1.0000
  C   C3        1.0  0.25151  0.54560  0.61650  1.0000
  C   C4        1.0  0.74849  0.45440  0.11650  1.0000
  C   C5        1.0  0.77089  0.06720  0.66090  1.0000
  C   C6        1.0  0.22911  0.93280  0.16090  1.0000
  C   C7        1.0  0.27089  0.43280  0.66090  1.0000
  C   C8        1.0  0.72911  0.56720  0.16090  1.0000
  H   H1        1.0  0.75910  0.07050  0.74130  1.0000
  H   H2        1.0  0.24090  0.92950  0.24130  1.0000
  H   H3        1.0  0.25910  0.42950  0.74130  1.0000
  H   H4        1.0  0.74090  0.57050  0.24130  1.0000
  H   H5        1.0  0.74110  0.12300  0.62090  1.0000
  H   H6        1.0  0.25890  0.87700  0.12090  1.0000
  H   H7        1.0  0.24110  0.37700  0.62090  1.0000
  H   H8        1.0  0.75890  0.62300  0.12090  1.0000
  H   H9        1.0  0.82500  0.08150  0.64960  1.0000
  H   H10       1.0  0.17500  0.91850  0.14960  1.0000
  H   H11       1.0  0.32500  0.41850  0.64960  1.0000
  H   H12       1.0  0.67500  0.58150  0.14960  1.0000
  C   C9        1.0  0.73251  0.82340  0.34810  1.0000
  C   C10       1.0  0.26749  0.17660  0.84810  1.0000
  C   C11       1.0  0.23251  0.67660  0.34810  1.0000
  C   C12       1.0  0.76749  0.32340  0.84810  1.0000
  C   C13       1.0  0.73930  0.86630  0.22920  1.0000
  C   C14       1.0  0.26070  0.13370  0.72920  1.0000
  C   C15       1.0  0.23930  0.63370  0.22920  1.0000
  C   C16       1.0  0.76070  0.36630  0.72920  1.0000
  H   H13       1.0  0.78950  0.84770  0.19920  1.0000
  H   H14       1.0  0.21050  0.15230  0.69920  1.0000
  H   H15       1.0  0.28950  0.65230  0.19920  1.0000
  H   H16       1.0  0.71050  0.34770  0.69920  1.0000
  H   H17       1.0  0.73280  0.94670  0.22900  1.0000
  H   H18       1.0  0.26720  0.05330  0.72900  1.0000
  H   H19       1.0  0.23280  0.55330  0.22900  1.0000
  H   H20       1.0  0.76720  0.44670  0.72900  1.0000
  H   H21       1.0  0.70010  0.83230  0.18230  1.0000
  H   H22       1.0  0.29990  0.16770  0.68230  1.0000
  H   H23       1.0  0.20010  0.66770  0.18230  1.0000
  H   H24       1.0  0.79990  0.33230  0.68230  1.0000
  C   C17       1.0  0.68352  0.56880  0.48490  1.0000
  C   C18       1.0  0.31648  0.43120  0.98490  1.0000
  C   C19       1.0  0.18352  0.93120  0.48490  1.0000
  C   C20       1.0  0.81648  0.06880  0.98490  1.0000
  C   C21       1.0  0.66257  0.45390  0.44620  1.0000
  C   C22       1.0  0.33743  0.54610  0.94620  1.0000
  C   C23       1.0  0.16257  0.04610  0.44620  1.0000
  C   C24       1.0  0.83743  0.95390  0.94620  1.0000
  H   H25       1.0  0.70830  0.40810  0.44270  1.0000
  H   H26       1.0  0.29170  0.59190  0.94270  1.0000
  H   H27       1.0  0.20830  0.09190  0.44270  1.0000
  H   H28       1.0  0.79170  0.90810  0.94270  1.0000
  H   H29       1.0  0.63930  0.45800  0.37170  1.0000
  H   H30       1.0  0.36070  0.54200  0.87170  1.0000
  H   H31       1.0  0.13930  0.04200  0.37170  1.0000
  H   H32       1.0  0.86070  0.95800  0.87170  1.0000
  H   H33       1.0  0.62650  0.42130  0.49930  1.0000
  H   H34       1.0  0.37350  0.57870  0.99930  1.0000
  H   H35       1.0  0.12650  0.07870  0.49930  1.0000
  H   H36       1.0  0.87350  0.92130  0.99930  1.0000
  C   C25       1.0  0.71362  0.69840  0.75210  1.0000
  C   C26       1.0  0.28638  0.30160  0.25210  1.0000
  C   C27       1.0  0.21362  0.80160  0.75210  1.0000
  C   C28       1.0  0.78638  0.19840  0.25210  1.0000
  C   C29       1.0  0.71030  0.66220  0.87300  1.0000
  C   C30       1.0  0.28970  0.33780  0.37300  1.0000
  C   C31       1.0  0.21030  0.83780  0.87300  1.0000
  C   C32       1.0  0.78970  0.16220  0.37300  1.0000
  H   H37       1.0  0.66960  0.70220  0.91160  1.0000
  H   H38       1.0  0.33040  0.29780  0.41160  1.0000
  H   H39       1.0  0.16960  0.79780  0.91160  1.0000
  H   H40       1.0  0.83040  0.20220  0.41160  1.0000
  H   H41       1.0  0.75880  0.67820  0.90960  1.0000
  H   H42       1.0  0.24120  0.32180  0.40960  1.0000
  H   H43       1.0  0.25880  0.82180  0.90960  1.0000
  H   H44       1.0  0.74120  0.17820  0.40960  1.0000
  H   H45       1.0  0.70030  0.58270  0.87650  1.0000
  H   H46       1.0  0.29970  0.41730  0.37650  1.0000
  H   H47       1.0  0.20030  0.91730  0.87650  1.0000
  H   H48       1.0  0.79970  0.08270  0.37650  1.0000
  C   C33       1.0  0.46960  0.79380  0.57970  1.0000
  C   C34       1.0  0.53040  0.20620  0.07970  1.0000
  C   C35       1.0  0.96960  0.70620  0.57970  1.0000
  C   C36       1.0  0.03040  0.29380  0.07970  1.0000
  C   C37       1.0  0.47463  0.71070  0.67440  1.0000
  C   C38       1.0  0.52537  0.28930  0.17440  1.0000
  C   C39       1.0  0.97463  0.78930  0.67440  1.0000
  C   C40       1.0  0.02537  0.21070  0.17440  1.0000
  H   H49       1.0  0.51610  0.73120  0.72500  1.0000
  H   H50       1.0  0.48390  0.26880  0.22500  1.0000
  H   H51       1.0  0.01610  0.76880  0.72500  1.0000
  H   H52       1.0  0.98390  0.23120  0.22500  1.0000
  H   H53       1.0  0.42670  0.70990  0.71610  1.0000
  H   H54       1.0  0.57330  0.29010  0.21610  1.0000
  H   H55       1.0  0.92670  0.79010  0.71610  1.0000
  H   H56       1.0  0.07330  0.20990  0.21610  1.0000
  H   H57       1.0  0.48430  0.63710  0.64330  1.0000
  H   H58       1.0  0.51570  0.36290  0.14330  1.0000
  H   H59       1.0  0.98430  0.86290  0.64330  1.0000
  H   H60       1.0  0.01570  0.13710  0.14330  1.0000
  Cu  Cu1       1.0  0.64741  0.78765  0.55145  1.0000
  Cu  Cu2       1.0  0.35259  0.21235  0.05145  1.0000
  Cu  Cu3       1.0  0.14741  0.71235  0.55145  1.0000
  Cu  Cu4       1.0  0.85259  0.28765  0.05145  1.0000
  Cu  Cu5       1.0  0.79170  0.73425  0.54933  1.0000
  Cu  Cu6       1.0  0.20830  0.26575  0.04933  1.0000
  Cu  Cu7       1.0  0.29170  0.76575  0.54933  1.0000
  Cu  Cu8       1.0  0.70830  0.23425  0.04933  1.0000
  O   O5        1.0  0.68331  0.93611  0.59172  1.0000
  O   O6        1.0  0.31669  0.06389  0.09172  1.0000
  O   O7        1.0  0.18331  0.56389  0.59172  1.0000
  O   O8        1.0  0.81669  0.43611  0.09172  1.0000
  O   O9        1.0  0.80514  0.88516  0.60950  1.0000
  O   O10       1.0  0.19486  0.11484  0.10950  1.0000
  O   O11       1.0  0.30514  0.61484  0.60950  1.0000
  O   O12       1.0  0.69486  0.38516  0.10950  1.0000
  O   O13       1.0  0.66722  0.82101  0.39120  1.0000
  O   O14       1.0  0.33278  0.17899  0.89120  1.0000
  O   O15       1.0  0.16722  0.67899  0.39120  1.0000
  O   O16       1.0  0.83278  0.32101  0.89120  1.0000
  O   O17       1.0  0.79320  0.79523  0.39670  1.0000
  O   O18       1.0  0.20680  0.20477  0.89670  1.0000
  O   O19       1.0  0.29320  0.70477  0.39670  1.0000
  O   O20       1.0  0.70680  0.29523  0.89670  1.0000
  O   O21       1.0  0.62992  0.63226  0.51144  1.0000
  O   O22       1.0  0.37008  0.36774  0.01144  1.0000
  O   O23       1.0  0.12992  0.86774  0.51144  1.0000
  O   O24       1.0  0.87008  0.13226  0.01144  1.0000
  O   O25       1.0  0.75253  0.59323  0.48710  1.0000
  O   O26       1.0  0.24747  0.40677  0.98710  1.0000
  O   O27       1.0  0.25253  0.90677  0.48710  1.0000
  O   O28       1.0  0.74747  0.09323  0.98710  1.0000
  O   O29       1.0  0.77446  0.67820  0.70046  1.0000
  O   O30       1.0  0.22554  0.32180  0.20046  1.0000
  O   O31       1.0  0.27446  0.82180  0.70046  1.0000
  O   O32       1.0  0.72554  0.17820  0.20046  1.0000
  O   O33       1.0  0.65657  0.74540  0.71145  1.0000
  O   O34       1.0  0.34343  0.25460  0.21145  1.0000
  O   O35       1.0  0.15657  0.75460  0.71145  1.0000
  O   O36       1.0  0.84343  0.24540  0.21145  1.0000
  O   O37       1.0  0.40590  0.82095  0.54170  1.0000
  O   O38       1.0  0.59410  0.17905  0.04170  1.0000
  O   O39       1.0  0.90590  0.67905  0.54170  1.0000
  O   O40       1.0  0.09410  0.32095  0.04170  1.0000
