data_image0
_chemical_formula_structural       Mg8O48C12H12C12H12
_chemical_formula_sum              "Mg8 O48 C24 H24"
_cell_length_a       8.2949
_cell_length_b       8.2949
_cell_length_c       28.6451
_cell_angle_alpha    90
_cell_angle_beta     90
_cell_angle_gamma    120

_space_group_name_H-M_alt    "P 1"
_space_group_IT_number       1

loop_
  _space_group_symop_operation_xyz
  'x, y, z'

loop_
  _atom_site_type_symbol
  _atom_site_label
  _atom_site_symmetry_multiplicity
  _atom_site_fract_x
  _atom_site_fract_y
  _atom_site_fract_z
  _atom_site_occupancy
  Mg  Mg1       1.0  0.00000  0.00000  0.00000  1.0000
  Mg  Mg2       1.0  0.00000  0.00000  0.50000  1.0000
  Mg  Mg3       1.0  0.33330  0.66670  0.12615  1.0000
  Mg  Mg4       1.0  0.33330  0.66670  0.37385  1.0000
  Mg  Mg5       1.0  0.66670  0.33330  0.87385  1.0000
  Mg  Mg6       1.0  0.66670  0.33330  0.62615  1.0000
  Mg  Mg7       1.0  0.00000  0.00000  0.25000  1.0000
  Mg  Mg8       1.0  0.00000  0.00000  0.75000  1.0000
  O   O1        1.0  0.20689  0.21256  0.03876  1.0000
  O   O2        1.0  0.78744  0.99433  0.03876  1.0000
  O   O3        1.0  0.00567  0.79311  0.03876  1.0000
  O   O4        1.0  0.78744  0.79311  0.46124  1.0000
  O   O5        1.0  0.00567  0.21256  0.46124  1.0000
  O   O6        1.0  0.20689  0.99433  0.46124  1.0000
  O   O7        1.0  0.79311  0.78744  0.96124  1.0000
  O   O8        1.0  0.21256  0.00567  0.96124  1.0000
  O   O9        1.0  0.99433  0.20689  0.96124  1.0000
  O   O10       1.0  0.21256  0.20689  0.53876  1.0000
  O   O11       1.0  0.99433  0.78744  0.53876  1.0000
  O   O12       1.0  0.79311  0.00567  0.53876  1.0000
  O   O13       1.0  0.33141  0.46736  0.08144  1.0000
  O   O14       1.0  0.53264  0.86405  0.08144  1.0000
  O   O15       1.0  0.13595  0.66859  0.08144  1.0000
  O   O16       1.0  0.53264  0.66859  0.41856  1.0000
  O   O17       1.0  0.13595  0.46736  0.41856  1.0000
  O   O18       1.0  0.33141  0.86405  0.41856  1.0000
  O   O19       1.0  0.66859  0.53264  0.91856  1.0000
  O   O20       1.0  0.46736  0.13595  0.91856  1.0000
  O   O21       1.0  0.86405  0.33141  0.91856  1.0000
  O   O22       1.0  0.46736  0.33141  0.58144  1.0000
  O   O23       1.0  0.86405  0.53264  0.58144  1.0000
  O   O24       1.0  0.66859  0.13595  0.58144  1.0000
  O   O25       1.0  0.12205  0.46171  0.16602  1.0000
  O   O26       1.0  0.53829  0.66034  0.16602  1.0000
  O   O27       1.0  0.33966  0.87795  0.16602  1.0000
  O   O28       1.0  0.53829  0.87795  0.33398  1.0000
  O   O29       1.0  0.33966  0.46171  0.33398  1.0000
  O   O30       1.0  0.12205  0.66034  0.33398  1.0000
  O   O31       1.0  0.87795  0.53829  0.83398  1.0000
  O   O32       1.0  0.46171  0.33966  0.83398  1.0000
  O   O33       1.0  0.66034  0.12205  0.83398  1.0000
  O   O34       1.0  0.46171  0.12205  0.66602  1.0000
  O   O35       1.0  0.66034  0.53829  0.66602  1.0000
  O   O36       1.0  0.87795  0.33966  0.66602  1.0000
  O   O37       1.0  0.99270  0.20706  0.20954  1.0000
  O   O38       1.0  0.79294  0.78564  0.20954  1.0000
  O   O39       1.0  0.21436  0.00730  0.20954  1.0000
  O   O40       1.0  0.79294  0.00730  0.29046  1.0000
  O   O41       1.0  0.21436  0.20706  0.29046  1.0000
  O   O42       1.0  0.99270  0.78564  0.29046  1.0000
  O   O43       1.0  0.00730  0.79294  0.79046  1.0000
  O   O44       1.0  0.20706  0.21436  0.79046  1.0000
  O   O45       1.0  0.78564  0.99270  0.79046  1.0000
  O   O46       1.0  0.20706  0.99270  0.70954  1.0000
  O   O47       1.0  0.78564  0.79294  0.70954  1.0000
  O   O48       1.0  0.00730  0.21436  0.70954  1.0000
  C   C1        1.0  0.20240  0.31790  0.06796  1.0000
  C   C2        1.0  0.68210  0.88450  0.06796  1.0000
  C   C3        1.0  0.11550  0.79760  0.06796  1.0000
  C   C4        1.0  0.68210  0.79760  0.43204  1.0000
  C   C5        1.0  0.11550  0.31790  0.43204  1.0000
  C   C6        1.0  0.20240  0.88450  0.43204  1.0000
  C   C7        1.0  0.79760  0.68210  0.93204  1.0000
  C   C8        1.0  0.31790  0.11550  0.93204  1.0000
  C   C9        1.0  0.88450  0.20240  0.93204  1.0000
  C   C10       1.0  0.31790  0.20240  0.56796  1.0000
  C   C11       1.0  0.88450  0.68210  0.56796  1.0000
  C   C12       1.0  0.79760  0.11550  0.56796  1.0000
  H   H1        1.0  0.08710  0.28010  0.08160  1.0000
  H   H2        1.0  0.71990  0.80700  0.08160  1.0000
  H   H3        1.0  0.19300  0.91290  0.08160  1.0000
  H   H4        1.0  0.71990  0.91290  0.41840  1.0000
  H   H5        1.0  0.19300  0.28010  0.41840  1.0000
  H   H6        1.0  0.08710  0.80700  0.41840  1.0000
  H   H7        1.0  0.91290  0.71990  0.91840  1.0000
  H   H8        1.0  0.28010  0.19300  0.91840  1.0000
  H   H9        1.0  0.80700  0.08710  0.91840  1.0000
  H   H10       1.0  0.28010  0.08710  0.58160  1.0000
  H   H11       1.0  0.80700  0.71990  0.58160  1.0000
  H   H12       1.0  0.91290  0.19300  0.58160  1.0000
  C   C13       1.0  0.12270  0.33390  0.18824  1.0000
  C   C14       1.0  0.66610  0.78880  0.18824  1.0000
  C   C15       1.0  0.21120  0.87730  0.18824  1.0000
  C   C16       1.0  0.66610  0.87730  0.31176  1.0000
  C   C17       1.0  0.21120  0.33390  0.31176  1.0000
  C   C18       1.0  0.12270  0.78880  0.31176  1.0000
  C   C19       1.0  0.87730  0.66610  0.81176  1.0000
  C   C20       1.0  0.33390  0.21120  0.81176  1.0000
  C   C21       1.0  0.78880  0.12270  0.81176  1.0000
  C   C22       1.0  0.33390  0.12270  0.68824  1.0000
  C   C23       1.0  0.78880  0.66610  0.68824  1.0000
  C   C24       1.0  0.87730  0.21120  0.68824  1.0000
  H   H13       1.0  0.23480  0.33400  0.18890  1.0000
  H   H14       1.0  0.66600  0.90080  0.18890  1.0000
  H   H15       1.0  0.09920  0.76520  0.18890  1.0000
  H   H16       1.0  0.66600  0.76520  0.31110  1.0000
  H   H17       1.0  0.09920  0.33400  0.31110  1.0000
  H   H18       1.0  0.23480  0.90080  0.31110  1.0000
  H   H19       1.0  0.76520  0.66600  0.81110  1.0000
  H   H20       1.0  0.33400  0.09920  0.81110  1.0000
  H   H21       1.0  0.90080  0.23480  0.81110  1.0000
  H   H22       1.0  0.33400  0.23480  0.68890  1.0000
  H   H23       1.0  0.90080  0.66600  0.68890  1.0000
  H   H24       1.0  0.76520  0.09920  0.68890  1.0000
