data_image0
_chemical_formula_structural       Mg8O48C12H12C12H12
_chemical_formula_sum              "Mg8 O48 C24 H24"
_cell_length_a       8.2923
_cell_length_b       8.2923
_cell_length_c       28.5915
_cell_angle_alpha    90
_cell_angle_beta     90
_cell_angle_gamma    120

_space_group_name_H-M_alt    "P 1"
_space_group_IT_number       1

loop_
  _space_group_symop_operation_xyz
  'x, y, z'

loop_
  _atom_site_type_symbol
  _atom_site_label
  _atom_site_symmetry_multiplicity
  _atom_site_fract_x
  _atom_site_fract_y
  _atom_site_fract_z
  _atom_site_occupancy
  Mg  Mg1       1.0  0.00000  0.00000  0.00000  1.0000
  Mg  Mg2       1.0  0.00000  0.00000  0.50000  1.0000
  Mg  Mg3       1.0  0.33330  0.66670  0.12599  1.0000
  Mg  Mg4       1.0  0.33330  0.66670  0.37401  1.0000
  Mg  Mg5       1.0  0.66670  0.33330  0.87401  1.0000
  Mg  Mg6       1.0  0.66670  0.33330  0.62599  1.0000
  Mg  Mg7       1.0  0.00000  0.00000  0.25000  1.0000
  Mg  Mg8       1.0  0.00000  0.00000  0.75000  1.0000
  O   O1        1.0  0.20735  0.21192  0.03883  1.0000
  O   O2        1.0  0.78808  0.99543  0.03883  1.0000
  O   O3        1.0  0.00457  0.79265  0.03883  1.0000
  O   O4        1.0  0.78808  0.79265  0.46117  1.0000
  O   O5        1.0  0.00457  0.21192  0.46117  1.0000
  O   O6        1.0  0.20735  0.99543  0.46117  1.0000
  O   O7        1.0  0.79265  0.78808  0.96117  1.0000
  O   O8        1.0  0.21192  0.00457  0.96117  1.0000
  O   O9        1.0  0.99543  0.20735  0.96117  1.0000
  O   O10       1.0  0.21192  0.20735  0.53883  1.0000
  O   O11       1.0  0.99543  0.78808  0.53883  1.0000
  O   O12       1.0  0.79265  0.00457  0.53883  1.0000
  O   O13       1.0  0.33236  0.46782  0.08132  1.0000
  O   O14       1.0  0.53218  0.86454  0.08132  1.0000
  O   O15       1.0  0.13546  0.66764  0.08132  1.0000
  O   O16       1.0  0.53218  0.66764  0.41868  1.0000
  O   O17       1.0  0.13546  0.46782  0.41868  1.0000
  O   O18       1.0  0.33236  0.86454  0.41868  1.0000
  O   O19       1.0  0.66764  0.53218  0.91868  1.0000
  O   O20       1.0  0.46782  0.13546  0.91868  1.0000
  O   O21       1.0  0.86454  0.33236  0.91868  1.0000
  O   O22       1.0  0.46782  0.33236  0.58132  1.0000
  O   O23       1.0  0.86454  0.53218  0.58132  1.0000
  O   O24       1.0  0.66764  0.13546  0.58132  1.0000
  O   O25       1.0  0.12223  0.46184  0.16593  1.0000
  O   O26       1.0  0.53816  0.66039  0.16593  1.0000
  O   O27       1.0  0.33961  0.87777  0.16593  1.0000
  O   O28       1.0  0.53816  0.87777  0.33407  1.0000
  O   O29       1.0  0.33961  0.46184  0.33407  1.0000
  O   O30       1.0  0.12223  0.66039  0.33407  1.0000
  O   O31       1.0  0.87777  0.53816  0.83407  1.0000
  O   O32       1.0  0.46184  0.33961  0.83407  1.0000
  O   O33       1.0  0.66039  0.12223  0.83407  1.0000
  O   O34       1.0  0.46184  0.12223  0.66593  1.0000
  O   O35       1.0  0.66039  0.53816  0.66593  1.0000
  O   O36       1.0  0.87777  0.33961  0.66593  1.0000
  O   O37       1.0  0.99258  0.20690  0.20950  1.0000
  O   O38       1.0  0.79310  0.78568  0.20950  1.0000
  O   O39       1.0  0.21432  0.00742  0.20950  1.0000
  O   O40       1.0  0.79310  0.00742  0.29050  1.0000
  O   O41       1.0  0.21432  0.20690  0.29050  1.0000
  O   O42       1.0  0.99258  0.78568  0.29050  1.0000
  O   O43       1.0  0.00742  0.79310  0.79050  1.0000
  O   O44       1.0  0.20690  0.21432  0.79050  1.0000
  O   O45       1.0  0.78568  0.99258  0.79050  1.0000
  O   O46       1.0  0.20690  0.99258  0.70950  1.0000
  O   O47       1.0  0.78568  0.79310  0.70950  1.0000
  O   O48       1.0  0.00742  0.21432  0.70950  1.0000
  C   C1        1.0  0.20260  0.31800  0.06783  1.0000
  C   C2        1.0  0.68200  0.88460  0.06783  1.0000
  C   C3        1.0  0.11540  0.79740  0.06783  1.0000
  C   C4        1.0  0.68200  0.79740  0.43217  1.0000
  C   C5        1.0  0.11540  0.31800  0.43217  1.0000
  C   C6        1.0  0.20260  0.88460  0.43217  1.0000
  C   C7        1.0  0.79740  0.68200  0.93217  1.0000
  C   C8        1.0  0.31800  0.11540  0.93217  1.0000
  C   C9        1.0  0.88460  0.20260  0.93217  1.0000
  C   C10       1.0  0.31800  0.20260  0.56783  1.0000
  C   C11       1.0  0.88460  0.68200  0.56783  1.0000
  C   C12       1.0  0.79740  0.11540  0.56783  1.0000
  H   H1        1.0  0.08710  0.28100  0.08130  1.0000
  H   H2        1.0  0.71900  0.80610  0.08130  1.0000
  H   H3        1.0  0.19390  0.91290  0.08130  1.0000
  H   H4        1.0  0.71900  0.91290  0.41870  1.0000
  H   H5        1.0  0.19390  0.28100  0.41870  1.0000
  H   H6        1.0  0.08710  0.80610  0.41870  1.0000
  H   H7        1.0  0.91290  0.71900  0.91870  1.0000
  H   H8        1.0  0.28100  0.19390  0.91870  1.0000
  H   H9        1.0  0.80610  0.08710  0.91870  1.0000
  H   H10       1.0  0.28100  0.08710  0.58130  1.0000
  H   H11       1.0  0.80610  0.71900  0.58130  1.0000
  H   H12       1.0  0.91290  0.19390  0.58130  1.0000
  C   C13       1.0  0.12290  0.33380  0.18808  1.0000
  C   C14       1.0  0.66620  0.78910  0.18808  1.0000
  C   C15       1.0  0.21090  0.87710  0.18808  1.0000
  C   C16       1.0  0.66620  0.87710  0.31192  1.0000
  C   C17       1.0  0.21090  0.33380  0.31192  1.0000
  C   C18       1.0  0.12290  0.78910  0.31192  1.0000
  C   C19       1.0  0.87710  0.66620  0.81192  1.0000
  C   C20       1.0  0.33380  0.21090  0.81192  1.0000
  C   C21       1.0  0.78910  0.12290  0.81192  1.0000
  C   C22       1.0  0.33380  0.12290  0.68808  1.0000
  C   C23       1.0  0.78910  0.66620  0.68808  1.0000
  C   C24       1.0  0.87710  0.21090  0.68808  1.0000
  H   H13       1.0  0.23490  0.33350  0.18860  1.0000
  H   H14       1.0  0.66650  0.90140  0.18860  1.0000
  H   H15       1.0  0.09860  0.76510  0.18860  1.0000
  H   H16       1.0  0.66650  0.76510  0.31140  1.0000
  H   H17       1.0  0.09860  0.33350  0.31140  1.0000
  H   H18       1.0  0.23490  0.90140  0.31140  1.0000
  H   H19       1.0  0.76510  0.66650  0.81140  1.0000
  H   H20       1.0  0.33350  0.09860  0.81140  1.0000
  H   H21       1.0  0.90140  0.23490  0.81140  1.0000
  H   H22       1.0  0.33350  0.23490  0.68860  1.0000
  H   H23       1.0  0.90140  0.66650  0.68860  1.0000
  H   H24       1.0  0.76510  0.09860  0.68860  1.0000
