data_image0
_chemical_formula_structural       In8P8C8H8O24C16O16C16H8C24H8C16H8C16H8C8H8C8H8O16
_chemical_formula_sum              "In8 P8 C112 H56 O56"
_cell_length_a       23.474
_cell_length_b       23.474
_cell_length_c       6.6926
_cell_angle_alpha    90
_cell_angle_beta     90
_cell_angle_gamma    90

_space_group_name_H-M_alt    "P 1"
_space_group_IT_number       1

loop_
  _space_group_symop_operation_xyz
  'x, y, z'

loop_
  _atom_site_type_symbol
  _atom_site_label
  _atom_site_symmetry_multiplicity
  _atom_site_fract_x
  _atom_site_fract_y
  _atom_site_fract_z
  _atom_site_occupancy
  In  In1       1.0  0.12300  0.27548  0.00000  1.0000
  In  In2       1.0  0.87700  0.72452  0.00000  1.0000
  In  In3       1.0  0.72452  0.12300  0.00000  1.0000
  In  In4       1.0  0.27548  0.87700  0.00000  1.0000
  In  In5       1.0  0.37700  0.77548  0.50000  1.0000
  In  In6       1.0  0.62300  0.22452  0.50000  1.0000
  In  In7       1.0  0.77548  0.62300  0.50000  1.0000
  In  In8       1.0  0.22452  0.37700  0.50000  1.0000
  P   P1        1.0  0.60476  0.20059  0.00000  1.0000
  P   P2        1.0  0.39524  0.79941  0.00000  1.0000
  P   P3        1.0  0.79941  0.60476  0.00000  1.0000
  P   P4        1.0  0.20059  0.39524  0.00000  1.0000
  P   P5        1.0  0.89524  0.70059  0.50000  1.0000
  P   P6        1.0  0.10476  0.29941  0.50000  1.0000
  P   P7        1.0  0.70059  0.10476  0.50000  1.0000
  P   P8        1.0  0.29941  0.89524  0.50000  1.0000
  C   C1        1.0  0.51500  0.12370  0.00000  1.0000
  C   C2        1.0  0.48500  0.87630  0.00000  1.0000
  C   C3        1.0  0.87630  0.51500  0.00000  1.0000
  C   C4        1.0  0.12370  0.48500  0.00000  1.0000
  C   C5        1.0  0.98500  0.62370  0.50000  1.0000
  C   C6        1.0  0.01500  0.37630  0.50000  1.0000
  C   C7        1.0  0.62370  0.01500  0.50000  1.0000
  C   C8        1.0  0.37630  0.98500  0.50000  1.0000
  H   H1        1.0  0.54300  0.09570  0.00000  1.0000
  H   H2        1.0  0.45700  0.90430  0.00000  1.0000
  H   H3        1.0  0.90430  0.54300  0.00000  1.0000
  H   H4        1.0  0.09570  0.45700  0.00000  1.0000
  H   H5        1.0  0.95700  0.59570  0.50000  1.0000
  H   H6        1.0  0.04300  0.40430  0.50000  1.0000
  H   H7        1.0  0.59570  0.04300  0.50000  1.0000
  H   H8        1.0  0.40430  0.95700  0.50000  1.0000
  O   O1        1.0  0.63910  0.14540  0.00000  1.0000
  O   O2        1.0  0.36090  0.85460  0.00000  1.0000
  O   O3        1.0  0.85460  0.63910  0.00000  1.0000
  O   O4        1.0  0.14540  0.36090  0.00000  1.0000
  O   O5        1.0  0.86090  0.64540  0.50000  1.0000
  O   O6        1.0  0.13910  0.35460  0.50000  1.0000
  O   O7        1.0  0.64540  0.13910  0.50000  1.0000
  O   O8        1.0  0.35460  0.86090  0.50000  1.0000
  O   O9        1.0  0.21820  0.25190  0.00000  1.0000
  O   O10       1.0  0.78180  0.74810  0.00000  1.0000
  O   O11       1.0  0.74810  0.21820  0.00000  1.0000
  O   O12       1.0  0.25190  0.78180  0.00000  1.0000
  O   O13       1.0  0.28180  0.75190  0.50000  1.0000
  O   O14       1.0  0.71820  0.24810  0.50000  1.0000
  O   O15       1.0  0.75190  0.71820  0.50000  1.0000
  O   O16       1.0  0.24810  0.28180  0.50000  1.0000
  O   O17       1.0  0.15420  0.18470  0.00000  1.0000
  O   O18       1.0  0.84580  0.81530  0.00000  1.0000
  O   O19       1.0  0.81530  0.15420  0.00000  1.0000
  O   O20       1.0  0.18470  0.84580  0.00000  1.0000
  O   O21       1.0  0.34580  0.68470  0.50000  1.0000
  O   O22       1.0  0.65420  0.31530  0.50000  1.0000
  O   O23       1.0  0.68470  0.65420  0.50000  1.0000
  O   O24       1.0  0.31530  0.34580  0.50000  1.0000
  C   C9        1.0  0.53010  0.17970  0.00000  1.0000
  C   C10       1.0  0.46990  0.82030  0.00000  1.0000
  C   C11       1.0  0.82030  0.53010  0.00000  1.0000
  C   C12       1.0  0.17970  0.46990  0.00000  1.0000
  C   C13       1.0  0.96990  0.67970  0.50000  1.0000
  C   C14       1.0  0.03010  0.32030  0.50000  1.0000
  C   C15       1.0  0.67970  0.03010  0.50000  1.0000
  C   C16       1.0  0.32030  0.96990  0.50000  1.0000
  C   C17       1.0  0.20570  0.19990  0.00000  1.0000
  C   C18       1.0  0.79430  0.80010  0.00000  1.0000
  C   C19       1.0  0.80010  0.20570  0.00000  1.0000
  C   C20       1.0  0.19990  0.79430  0.00000  1.0000
  C   C21       1.0  0.29430  0.69990  0.50000  1.0000
  C   C22       1.0  0.70570  0.30010  0.50000  1.0000
  C   C23       1.0  0.69990  0.70570  0.50000  1.0000
  C   C24       1.0  0.30010  0.29430  0.50000  1.0000
  O   O25       1.0  0.21550  0.97900  0.00000  1.0000
  O   O26       1.0  0.78450  0.02100  0.00000  1.0000
  O   O27       1.0  0.02100  0.21550  0.00000  1.0000
  O   O28       1.0  0.97900  0.78450  0.00000  1.0000
  O   O29       1.0  0.28450  0.47900  0.50000  1.0000
  O   O30       1.0  0.71550  0.52100  0.50000  1.0000
  O   O31       1.0  0.47900  0.71550  0.50000  1.0000
  O   O32       1.0  0.52100  0.28450  0.50000  1.0000
  O   O33       1.0  0.30670  0.96170  0.00000  1.0000
  O   O34       1.0  0.69330  0.03830  0.00000  1.0000
  O   O35       1.0  0.03830  0.30670  0.00000  1.0000
  O   O36       1.0  0.96170  0.69330  0.00000  1.0000
  O   O37       1.0  0.19330  0.46170  0.50000  1.0000
  O   O38       1.0  0.80670  0.53830  0.50000  1.0000
  O   O39       1.0  0.46170  0.80670  0.50000  1.0000
  O   O40       1.0  0.53830  0.19330  0.50000  1.0000
  C   C25       1.0  0.41380  0.14770  0.00000  1.0000
  C   C26       1.0  0.58620  0.85230  0.00000  1.0000
  C   C27       1.0  0.85230  0.41380  0.00000  1.0000
  C   C28       1.0  0.14770  0.58620  0.00000  1.0000
  C   C29       1.0  0.08620  0.64770  0.50000  1.0000
  C   C30       1.0  0.91380  0.35230  0.50000  1.0000
  C   C31       1.0  0.64770  0.91380  0.50000  1.0000
  C   C32       1.0  0.35230  0.08620  0.50000  1.0000
  C   C33       1.0  0.30850  0.17140  0.00000  1.0000
  C   C34       1.0  0.69150  0.82860  0.00000  1.0000
  C   C35       1.0  0.82860  0.30850  0.00000  1.0000
  C   C36       1.0  0.17140  0.69150  0.00000  1.0000
  C   C37       1.0  0.19150  0.67140  0.50000  1.0000
  C   C38       1.0  0.80850  0.32860  0.50000  1.0000
  C   C39       1.0  0.67140  0.80850  0.50000  1.0000
  C   C40       1.0  0.32860  0.19150  0.50000  1.0000
  H   H9        1.0  0.31780  0.20990  0.00000  1.0000
  H   H10       1.0  0.68220  0.79010  0.00000  1.0000
  H   H11       1.0  0.79010  0.31780  0.00000  1.0000
  H   H12       1.0  0.20990  0.68220  0.00000  1.0000
  H   H13       1.0  0.18220  0.70990  0.50000  1.0000
  H   H14       1.0  0.81780  0.29010  0.50000  1.0000
  H   H15       1.0  0.70990  0.81780  0.50000  1.0000
  H   H16       1.0  0.29010  0.18220  0.50000  1.0000
  C   C41       1.0  0.27960  0.05820  0.00000  1.0000
  C   C42       1.0  0.72040  0.94180  0.00000  1.0000
  C   C43       1.0  0.94180  0.27960  0.00000  1.0000
  C   C44       1.0  0.05820  0.72040  0.00000  1.0000
  C   C45       1.0  0.22040  0.55820  0.50000  1.0000
  C   C46       1.0  0.77960  0.44180  0.50000  1.0000
  C   C47       1.0  0.55820  0.77960  0.50000  1.0000
  C   C48       1.0  0.44180  0.22040  0.50000  1.0000
  C   C49       1.0  0.35240  0.13200  0.00000  1.0000
  C   C50       1.0  0.64760  0.86800  0.00000  1.0000
  C   C51       1.0  0.86800  0.35240  0.00000  1.0000
  C   C52       1.0  0.13200  0.64760  0.00000  1.0000
  C   C53       1.0  0.14760  0.63200  0.50000  1.0000
  C   C54       1.0  0.85240  0.36800  0.50000  1.0000
  C   C55       1.0  0.63200  0.85240  0.50000  1.0000
  C   C56       1.0  0.36800  0.14760  0.50000  1.0000
  C   C57       1.0  0.23740  0.09860  0.00000  1.0000
  C   C58       1.0  0.76260  0.90140  0.00000  1.0000
  C   C59       1.0  0.90140  0.23740  0.00000  1.0000
  C   C60       1.0  0.09860  0.76260  0.00000  1.0000
  C   C61       1.0  0.26260  0.59860  0.50000  1.0000
  C   C62       1.0  0.73740  0.40140  0.50000  1.0000
  C   C63       1.0  0.59860  0.73740  0.50000  1.0000
  C   C64       1.0  0.40140  0.26260  0.50000  1.0000
  H   H17       1.0  0.19930  0.08760  0.00000  1.0000
  H   H18       1.0  0.80070  0.91240  0.00000  1.0000
  H   H19       1.0  0.91240  0.19930  0.00000  1.0000
  H   H20       1.0  0.08760  0.80070  0.00000  1.0000
  H   H21       1.0  0.30070  0.58760  0.50000  1.0000
  H   H22       1.0  0.69930  0.41240  0.50000  1.0000
  H   H23       1.0  0.58760  0.69930  0.50000  1.0000
  H   H24       1.0  0.41240  0.30070  0.50000  1.0000
  C   C65       1.0  0.25210  0.15620  0.00000  1.0000
  C   C66       1.0  0.74790  0.84380  0.00000  1.0000
  C   C67       1.0  0.84380  0.25210  0.00000  1.0000
  C   C68       1.0  0.15620  0.74790  0.00000  1.0000
  C   C69       1.0  0.24790  0.65620  0.50000  1.0000
  C   C70       1.0  0.75210  0.34380  0.50000  1.0000
  C   C71       1.0  0.65620  0.75210  0.50000  1.0000
  C   C72       1.0  0.34380  0.24790  0.50000  1.0000
  C   C73       1.0  0.43080  0.20350  0.00000  1.0000
  C   C74       1.0  0.56920  0.79650  0.00000  1.0000
  C   C75       1.0  0.79650  0.43080  0.00000  1.0000
  C   C76       1.0  0.20350  0.56920  0.00000  1.0000
  C   C77       1.0  0.06920  0.70350  0.50000  1.0000
  C   C78       1.0  0.93080  0.29650  0.50000  1.0000
  C   C79       1.0  0.70350  0.93080  0.50000  1.0000
  C   C80       1.0  0.29650  0.06920  0.50000  1.0000
  H   H25       1.0  0.40330  0.23200  0.00000  1.0000
  H   H26       1.0  0.59670  0.76800  0.00000  1.0000
  H   H27       1.0  0.76800  0.40330  0.00000  1.0000
  H   H28       1.0  0.23200  0.59670  0.00000  1.0000
  H   H29       1.0  0.09670  0.73200  0.50000  1.0000
  H   H30       1.0  0.90330  0.26800  0.50000  1.0000
  H   H31       1.0  0.73200  0.90330  0.50000  1.0000
  H   H32       1.0  0.26800  0.09670  0.50000  1.0000
  C   C81       1.0  0.26570  0.99630  0.00000  1.0000
  C   C82       1.0  0.73430  0.00370  0.00000  1.0000
  C   C83       1.0  0.00370  0.26570  0.00000  1.0000
  C   C84       1.0  0.99630  0.73430  0.00000  1.0000
  C   C85       1.0  0.23430  0.49630  0.50000  1.0000
  C   C86       1.0  0.76570  0.50370  0.50000  1.0000
  C   C87       1.0  0.49630  0.76570  0.50000  1.0000
  C   C88       1.0  0.50370  0.23430  0.50000  1.0000
  C   C89       1.0  0.48870  0.21890  0.00000  1.0000
  C   C90       1.0  0.51130  0.78110  0.00000  1.0000
  C   C91       1.0  0.78110  0.48870  0.00000  1.0000
  C   C92       1.0  0.21890  0.51130  0.00000  1.0000
  C   C93       1.0  0.01130  0.71890  0.50000  1.0000
  C   C94       1.0  0.98870  0.28110  0.50000  1.0000
  C   C95       1.0  0.71890  0.98870  0.50000  1.0000
  C   C96       1.0  0.28110  0.01130  0.50000  1.0000
  H   H33       1.0  0.49840  0.25730  0.00000  1.0000
  H   H34       1.0  0.50160  0.74270  0.00000  1.0000
  H   H35       1.0  0.74270  0.49840  0.00000  1.0000
  H   H36       1.0  0.25730  0.50160  0.00000  1.0000
  H   H37       1.0  0.00160  0.75730  0.50000  1.0000
  H   H38       1.0  0.99840  0.24270  0.50000  1.0000
  H   H39       1.0  0.75730  0.99840  0.50000  1.0000
  H   H40       1.0  0.24270  0.00160  0.50000  1.0000
  C   C97       1.0  0.33650  0.07430  0.00000  1.0000
  C   C98       1.0  0.66350  0.92570  0.00000  1.0000
  C   C99       1.0  0.92570  0.33650  0.00000  1.0000
  C   C100      1.0  0.07430  0.66350  0.00000  1.0000
  C   C101      1.0  0.16350  0.57430  0.50000  1.0000
  C   C102      1.0  0.83650  0.42570  0.50000  1.0000
  C   C103      1.0  0.57430  0.83650  0.50000  1.0000
  C   C104      1.0  0.42570  0.16350  0.50000  1.0000
  H   H41       1.0  0.36460  0.04640  0.00000  1.0000
  H   H42       1.0  0.63540  0.95360  0.00000  1.0000
  H   H43       1.0  0.95360  0.36460  0.00000  1.0000
  H   H44       1.0  0.04640  0.63540  0.00000  1.0000
  H   H45       1.0  0.13540  0.54640  0.50000  1.0000
  H   H46       1.0  0.86460  0.45360  0.50000  1.0000
  H   H47       1.0  0.54640  0.86460  0.50000  1.0000
  H   H48       1.0  0.45360  0.13540  0.50000  1.0000
  C   C105      1.0  0.45600  0.10790  0.00000  1.0000
  C   C106      1.0  0.54400  0.89210  0.00000  1.0000
  C   C107      1.0  0.89210  0.45600  0.00000  1.0000
  C   C108      1.0  0.10790  0.54400  0.00000  1.0000
  C   C109      1.0  0.04400  0.60790  0.50000  1.0000
  C   C110      1.0  0.95600  0.39210  0.50000  1.0000
  C   C111      1.0  0.60790  0.95600  0.50000  1.0000
  C   C112      1.0  0.39210  0.04400  0.50000  1.0000
  H   H49       1.0  0.44630  0.06950  0.00000  1.0000
  H   H50       1.0  0.55370  0.93050  0.00000  1.0000
  H   H51       1.0  0.93050  0.44630  0.00000  1.0000
  H   H52       1.0  0.06950  0.55370  0.00000  1.0000
  H   H53       1.0  0.05370  0.56950  0.50000  1.0000
  H   H54       1.0  0.94630  0.43050  0.50000  1.0000
  H   H55       1.0  0.56950  0.94630  0.50000  1.0000
  H   H56       1.0  0.43050  0.05370  0.50000  1.0000
  O   O41       1.0  0.61465  0.23751  0.81530  1.0000
  O   O42       1.0  0.38535  0.76249  0.81530  1.0000
  O   O43       1.0  0.76249  0.61465  0.81530  1.0000
  O   O44       1.0  0.23751  0.38535  0.81530  1.0000
  O   O45       1.0  0.88535  0.73751  0.68470  1.0000
  O   O46       1.0  0.11465  0.26249  0.68470  1.0000
  O   O47       1.0  0.73751  0.11465  0.68470  1.0000
  O   O48       1.0  0.26249  0.88535  0.68470  1.0000
  O   O49       1.0  0.38535  0.76249  0.18470  1.0000
  O   O50       1.0  0.61465  0.23751  0.18470  1.0000
  O   O51       1.0  0.23751  0.38535  0.18470  1.0000
  O   O52       1.0  0.76249  0.61465  0.18470  1.0000
  O   O53       1.0  0.11465  0.26249  0.31530  1.0000
  O   O54       1.0  0.88535  0.73751  0.31530  1.0000
  O   O55       1.0  0.26249  0.88535  0.31530  1.0000
  O   O56       1.0  0.73751  0.11465  0.31530  1.0000
