data_image0
_chemical_formula_structural       NiO2N4C2H2C4H2C4O2C2H6C4H4C8H24C2O4
_chemical_formula_sum              "Ni1 O8 N4 C26 H38"
_cell_length_a       10.1896
_cell_length_b       11.2966
_cell_length_c       11.5602
_cell_angle_alpha    108.555
_cell_angle_beta     94.654
_cell_angle_gamma    90.885

_space_group_name_H-M_alt    "P 1"
_space_group_IT_number       1

loop_
  _space_group_symop_operation_xyz
  'x, y, z'

loop_
  _atom_site_type_symbol
  _atom_site_label
  _atom_site_symmetry_multiplicity
  _atom_site_fract_x
  _atom_site_fract_y
  _atom_site_fract_z
  _atom_site_occupancy
  Ni  Ni1       1.0  0.50000  0.50000  0.00000  1.0000
  O   O1        1.0  0.50122  0.49270  0.18282  1.0000
  O   O2        1.0  0.49878  0.50730  0.81718  1.0000
  N   N1        1.0  0.29930  0.52590  0.98770  1.0000
  N   N2        1.0  0.70070  0.47410  0.01230  1.0000
  N   N3        1.0  0.44740  0.31130  0.91130  1.0000
  N   N4        1.0  0.55260  0.68870  0.08870  1.0000
  C   C1        1.0  0.41300  0.50940  0.25620  1.0000
  C   C2        1.0  0.58700  0.49060  0.74380  1.0000
  H   H1        1.0  0.27090  0.52660  0.06240  1.0000
  H   H2        1.0  0.72910  0.47340  0.93760  1.0000
  C   C3        1.0  0.23920  0.41050  0.89550  1.0000
  C   C4        1.0  0.76080  0.58950  0.10450  1.0000
  C   C5        1.0  0.25600  0.64370  0.96920  1.0000
  C   C6        1.0  0.74400  0.35630  0.03080  1.0000
  H   H3        1.0  0.45430  0.30060  0.82880  1.0000
  H   H4        1.0  0.54570  0.69940  0.17120  1.0000
  C   C7        1.0  0.30350  0.29920  0.92020  1.0000
  C   C8        1.0  0.69650  0.70080  0.07980  1.0000
  C   C9        1.0  0.52820  0.21120  0.93570  1.0000
  C   C10       1.0  0.47180  0.78880  0.06430  1.0000
  O   O3        1.0  0.29240  0.51740  0.23035  1.0000
  O   O4        1.0  0.70760  0.48260  0.76965  1.0000
  C   C11       1.0  0.45720  0.51000  0.38500  1.0000
  C   C12       1.0  0.54280  0.49000  0.61500  1.0000
  H   H5        1.0  0.25380  0.41060  0.81190  1.0000
  H   H6        1.0  0.74620  0.58940  0.18810  1.0000
  H   H7        1.0  0.14310  0.40560  0.90170  1.0000
  H   H8        1.0  0.85690  0.59440  0.09830  1.0000
  H   H9        1.0  0.28080  0.64550  0.88780  1.0000
  H   H10       1.0  0.71920  0.35450  0.11220  1.0000
  C   C13       1.0  0.10710  0.65460  0.97250  1.0000
  C   C14       1.0  0.89290  0.34540  0.02750  1.0000
  C   C15       1.0  0.32520  0.75520  0.06990  1.0000
  C   C16       1.0  0.67480  0.24480  0.93010  1.0000
  H   H11       1.0  0.28690  0.29780  0.00300  1.0000
  H   H12       1.0  0.71310  0.70220  0.99700  1.0000
  H   H13       1.0  0.26610  0.22040  0.85930  1.0000
  H   H14       1.0  0.73390  0.77960  0.14070  1.0000
  C   C17       1.0  0.50500  0.19580  0.05920  1.0000
  C   C18       1.0  0.49500  0.80420  0.94080  1.0000
  C   C19       1.0  0.49160  0.08590  0.83460  1.0000
  C   C20       1.0  0.50840  0.91410  0.16540  1.0000
  C   C21       1.0  0.39810  0.42370  0.42920  1.0000
  C   C22       1.0  0.60190  0.57630  0.57080  1.0000
  C   C23       1.0  0.56120  0.58820  0.45720  1.0000
  C   C24       1.0  0.43880  0.41180  0.54280  1.0000
  H   H15       1.0  0.06220  0.58530  0.90620  1.0000
  H   H16       1.0  0.93780  0.41470  0.09380  1.0000
  H   H17       1.0  0.08180  0.73410  0.96200  1.0000
  H   H18       1.0  0.91820  0.26590  0.03800  1.0000
  H   H19       1.0  0.08190  0.65130  0.05150  1.0000
  H   H20       1.0  0.91810  0.34870  0.94850  1.0000
  H   H21       1.0  0.27470  0.82990  0.07200  1.0000
  H   H22       1.0  0.72530  0.17010  0.92800  1.0000
  H   H23       1.0  0.31770  0.74030  0.14900  1.0000
  H   H24       1.0  0.68230  0.25970  0.85100  1.0000
  H   H25       1.0  0.51700  0.27720  0.12340  1.0000
  H   H26       1.0  0.48300  0.72280  0.87660  1.0000
  H   H27       1.0  0.56820  0.13820  0.07740  1.0000
  H   H28       1.0  0.43180  0.86180  0.92260  1.0000
  H   H29       1.0  0.41510  0.16210  0.05580  1.0000
  H   H30       1.0  0.58490  0.83790  0.94420  1.0000
  H   H31       1.0  0.40080  0.05960  0.83990  1.0000
  H   H32       1.0  0.59920  0.94040  0.16010  1.0000
  H   H33       1.0  0.55150  0.02240  0.84540  1.0000
  H   H34       1.0  0.44850  0.97760  0.15460  1.0000
  H   H35       1.0  0.49930  0.09580  0.75420  1.0000
  H   H36       1.0  0.50070  0.90420  0.24580  1.0000
  H   H37       1.0  0.32720  0.37090  0.38030  1.0000
  H   H38       1.0  0.67280  0.62910  0.61970  1.0000
  C   C25       1.0  0.62400  0.69060  0.41870  1.0000
  C   C26       1.0  0.37600  0.30940  0.58130  1.0000
  O   O5        1.0  0.74930  0.70863  0.44563  1.0000
  O   O6        1.0  0.25070  0.29137  0.55437  1.0000
  O   O7        1.0  0.55400  0.75093  0.36810  1.0000
  O   O8        1.0  0.44600  0.24907  0.63190  1.0000
