data_image0
_chemical_formula_structural       Cd8O48C24H8C8H8C16H8C8H8C24H8C8H8C16H8C8H8C24H8C8H8C16H8C8H8
_chemical_formula_sum              "Cd8 O48 C168 H96"
_cell_length_a       8.207
_cell_length_b       27.618
_cell_length_c       28.692
_cell_angle_alpha    90
_cell_angle_beta     90
_cell_angle_gamma    90

_space_group_name_H-M_alt    "P 1"
_space_group_IT_number       1

loop_
  _space_group_symop_operation_xyz
  'x, y, z'

loop_
  _atom_site_type_symbol
  _atom_site_label
  _atom_site_symmetry_multiplicity
  _atom_site_fract_x
  _atom_site_fract_y
  _atom_site_fract_z
  _atom_site_occupancy
  Cd  Cd1       1.0  0.08596  0.96982  0.69060  1.0000
  Cd  Cd2       1.0  0.91404  0.53018  0.69060  1.0000
  Cd  Cd3       1.0  0.08596  0.03018  0.80940  1.0000
  Cd  Cd4       1.0  0.41404  0.96982  0.30940  1.0000
  Cd  Cd5       1.0  0.58596  0.46982  0.19060  1.0000
  Cd  Cd6       1.0  0.41404  0.03018  0.19060  1.0000
  Cd  Cd7       1.0  0.58596  0.53018  0.30940  1.0000
  Cd  Cd8       1.0  0.91404  0.46982  0.80940  1.0000
  O   O1        1.0  0.17200  0.97881  0.61223  1.0000
  O   O2        1.0  0.82800  0.52119  0.61223  1.0000
  O   O3        1.0  0.17200  0.02119  0.88777  1.0000
  O   O4        1.0  0.32800  0.97881  0.38777  1.0000
  O   O5        1.0  0.67200  0.47881  0.11223  1.0000
  O   O6        1.0  0.32800  0.02119  0.11223  1.0000
  O   O7        1.0  0.67200  0.52119  0.38777  1.0000
  O   O8        1.0  0.82800  0.47881  0.88777  1.0000
  O   O9        1.0  0.35260  0.96309  0.66565  1.0000
  O   O10       1.0  0.64740  0.53691  0.66565  1.0000
  O   O11       1.0  0.35260  0.03691  0.83435  1.0000
  O   O12       1.0  0.14740  0.96309  0.33435  1.0000
  O   O13       1.0  0.85260  0.46309  0.16565  1.0000
  O   O14       1.0  0.14740  0.03691  0.16565  1.0000
  O   O15       1.0  0.85260  0.53691  0.33435  1.0000
  O   O16       1.0  0.64740  0.46309  0.83435  1.0000
  O   O17       1.0  0.83980  0.93214  0.69610  1.0000
  O   O18       1.0  0.16020  0.56786  0.69610  1.0000
  O   O19       1.0  0.83980  0.06786  0.80390  1.0000
  O   O20       1.0  0.66020  0.93214  0.30390  1.0000
  O   O21       1.0  0.33980  0.43214  0.19610  1.0000
  O   O22       1.0  0.66020  0.06786  0.19610  1.0000
  O   O23       1.0  0.33980  0.56786  0.30390  1.0000
  O   O24       1.0  0.16020  0.43214  0.80390  1.0000
  O   O25       1.0  0.03820  0.88428  0.67256  1.0000
  O   O26       1.0  0.96180  0.61572  0.67256  1.0000
  O   O27       1.0  0.03820  0.11572  0.82744  1.0000
  O   O28       1.0  0.46180  0.88428  0.32744  1.0000
  O   O29       1.0  0.53820  0.38428  0.17256  1.0000
  O   O30       1.0  0.46180  0.11572  0.17256  1.0000
  O   O31       1.0  0.53820  0.61572  0.32744  1.0000
  O   O32       1.0  0.96180  0.38428  0.82744  1.0000
  O   O33       1.0  0.14270  0.04740  0.73001  1.0000
  O   O34       1.0  0.85730  0.45260  0.73001  1.0000
  O   O35       1.0  0.14270  0.95260  0.76999  1.0000
  O   O36       1.0  0.35730  0.04740  0.26999  1.0000
  O   O37       1.0  0.64270  0.54740  0.23001  1.0000
  O   O38       1.0  0.35730  0.95260  0.23001  1.0000
  O   O39       1.0  0.64270  0.45260  0.26999  1.0000
  O   O40       1.0  0.85730  0.54740  0.76999  1.0000
  O   O41       1.0  0.93610  0.04437  0.67991  1.0000
  O   O42       1.0  0.06390  0.45563  0.67991  1.0000
  O   O43       1.0  0.93610  0.95563  0.82009  1.0000
  O   O44       1.0  0.56390  0.04437  0.32009  1.0000
  O   O45       1.0  0.43610  0.54437  0.17991  1.0000
  O   O46       1.0  0.56390  0.95563  0.17991  1.0000
  O   O47       1.0  0.43610  0.45563  0.32009  1.0000
  O   O48       1.0  0.06390  0.54437  0.82009  1.0000
  C   C1        1.0  0.31500  0.97120  0.62453  1.0000
  C   C2        1.0  0.68500  0.52880  0.62453  1.0000
  C   C3        1.0  0.31500  0.02880  0.87547  1.0000
  C   C4        1.0  0.18500  0.97120  0.37547  1.0000
  C   C5        1.0  0.81500  0.47120  0.12453  1.0000
  C   C6        1.0  0.18500  0.02880  0.12453  1.0000
  C   C7        1.0  0.81500  0.52880  0.37547  1.0000
  C   C8        1.0  0.68500  0.47120  0.87547  1.0000
  C   C9        1.0  0.44790  0.97252  0.58818  1.0000
  C   C10       1.0  0.55210  0.52748  0.58818  1.0000
  C   C11       1.0  0.44790  0.02748  0.91182  1.0000
  C   C12       1.0  0.05210  0.97252  0.41182  1.0000
  C   C13       1.0  0.94790  0.47252  0.08818  1.0000
  C   C14       1.0  0.05210  0.02748  0.08818  1.0000
  C   C15       1.0  0.94790  0.52748  0.41182  1.0000
  C   C16       1.0  0.55210  0.47252  0.91182  1.0000
  C   C17       1.0  0.61020  0.96512  0.60006  1.0000
  C   C18       1.0  0.38980  0.53488  0.60006  1.0000
  C   C19       1.0  0.61020  0.03488  0.89994  1.0000
  C   C20       1.0  0.88980  0.96512  0.39994  1.0000
  C   C21       1.0  0.11020  0.46512  0.10006  1.0000
  C   C22       1.0  0.88980  0.03488  0.10006  1.0000
  C   C23       1.0  0.11020  0.53488  0.39994  1.0000
  C   C24       1.0  0.38980  0.46512  0.89994  1.0000
  H   H1        1.0  0.63950  0.96140  0.63120  1.0000
  H   H2        1.0  0.36050  0.53860  0.63120  1.0000
  H   H3        1.0  0.63950  0.03860  0.86880  1.0000
  H   H4        1.0  0.86050  0.96140  0.36880  1.0000
  H   H5        1.0  0.13950  0.46140  0.13120  1.0000
  H   H6        1.0  0.86050  0.03860  0.13120  1.0000
  H   H7        1.0  0.13950  0.53860  0.36880  1.0000
  H   H8        1.0  0.36050  0.46140  0.86880  1.0000
  C   C25       1.0  0.72860  0.96334  0.56546  1.0000
  C   C26       1.0  0.27140  0.53666  0.56546  1.0000
  C   C27       1.0  0.72860  0.03666  0.93454  1.0000
  C   C28       1.0  0.77140  0.96334  0.43454  1.0000
  C   C29       1.0  0.22860  0.46334  0.06546  1.0000
  C   C30       1.0  0.77140  0.03666  0.06546  1.0000
  C   C31       1.0  0.22860  0.53666  0.43454  1.0000
  C   C32       1.0  0.27140  0.46334  0.93454  1.0000
  H   H9        1.0  0.83720  0.95840  0.57340  1.0000
  H   H10       1.0  0.16280  0.54160  0.57340  1.0000
  H   H11       1.0  0.83720  0.04160  0.92660  1.0000
  H   H12       1.0  0.66280  0.95840  0.42660  1.0000
  H   H13       1.0  0.33720  0.45840  0.07340  1.0000
  H   H14       1.0  0.66280  0.04160  0.07340  1.0000
  H   H15       1.0  0.33720  0.54160  0.42660  1.0000
  H   H16       1.0  0.16280  0.45840  0.92660  1.0000
  C   C33       1.0  0.68470  0.96897  0.51898  1.0000
  C   C34       1.0  0.31530  0.53103  0.51898  1.0000
  C   C35       1.0  0.68470  0.03103  0.98102  1.0000
  C   C36       1.0  0.81530  0.96897  0.48102  1.0000
  C   C37       1.0  0.18470  0.46897  0.01898  1.0000
  C   C38       1.0  0.81530  0.03103  0.01898  1.0000
  C   C39       1.0  0.18470  0.53103  0.48102  1.0000
  C   C40       1.0  0.31530  0.46897  0.98102  1.0000
  C   C41       1.0  0.52240  0.97640  0.50710  1.0000
  C   C42       1.0  0.47760  0.52360  0.50710  1.0000
  C   C43       1.0  0.52240  0.02360  0.99290  1.0000
  C   C44       1.0  0.97760  0.97640  0.49290  1.0000
  C   C45       1.0  0.02240  0.47640  0.00710  1.0000
  C   C46       1.0  0.97760  0.02360  0.00710  1.0000
  C   C47       1.0  0.02240  0.52360  0.49290  1.0000
  C   C48       1.0  0.47760  0.47640  0.99290  1.0000
  H   H17       1.0  0.49300  0.98010  0.47600  1.0000
  H   H18       1.0  0.50700  0.51990  0.47600  1.0000
  H   H19       1.0  0.49300  0.01990  0.02400  1.0000
  H   H20       1.0  0.00700  0.98010  0.52400  1.0000
  H   H21       1.0  0.99300  0.48010  0.97600  1.0000
  H   H22       1.0  0.00700  0.01990  0.97600  1.0000
  H   H23       1.0  0.99300  0.51990  0.52400  1.0000
  H   H24       1.0  0.50700  0.48010  0.02400  1.0000
  C   C49       1.0  0.40400  0.97810  0.54170  1.0000
  C   C50       1.0  0.59600  0.52190  0.54170  1.0000
  C   C51       1.0  0.40400  0.02190  0.95830  1.0000
  C   C52       1.0  0.09600  0.97810  0.45830  1.0000
  C   C53       1.0  0.90400  0.47810  0.04170  1.0000
  C   C54       1.0  0.09600  0.02190  0.04170  1.0000
  C   C55       1.0  0.90400  0.52190  0.45830  1.0000
  C   C56       1.0  0.59600  0.47810  0.95830  1.0000
  H   H25       1.0  0.29540  0.98310  0.53380  1.0000
  H   H26       1.0  0.70460  0.51690  0.53380  1.0000
  H   H27       1.0  0.29540  0.01690  0.96620  1.0000
  H   H28       1.0  0.20460  0.98310  0.46620  1.0000
  H   H29       1.0  0.79540  0.48310  0.03380  1.0000
  H   H30       1.0  0.20460  0.01690  0.03380  1.0000
  H   H31       1.0  0.79540  0.51690  0.46620  1.0000
  H   H32       1.0  0.70460  0.48310  0.96620  1.0000
  C   C57       1.0  0.03220  0.06752  0.70498  1.0000
  C   C58       1.0  0.96780  0.43248  0.70498  1.0000
  C   C59       1.0  0.03220  0.93248  0.79502  1.0000
  C   C60       1.0  0.46780  0.06752  0.29502  1.0000
  C   C61       1.0  0.53220  0.56752  0.20498  1.0000
  C   C62       1.0  0.46780  0.93248  0.20498  1.0000
  C   C63       1.0  0.53220  0.43248  0.29502  1.0000
  C   C64       1.0  0.96780  0.56752  0.79502  1.0000
  C   C65       1.0  0.02110  0.12206  0.70657  1.0000
  C   C66       1.0  0.97890  0.37794  0.70657  1.0000
  C   C67       1.0  0.02110  0.87794  0.79343  1.0000
  C   C68       1.0  0.47890  0.12206  0.29343  1.0000
  C   C69       1.0  0.52110  0.62206  0.20657  1.0000
  C   C70       1.0  0.47890  0.87794  0.20657  1.0000
  C   C71       1.0  0.52110  0.37794  0.29343  1.0000
  C   C72       1.0  0.97890  0.62206  0.79343  1.0000
  C   C73       1.0  0.88090  0.14519  0.69099  1.0000
  C   C74       1.0  0.11910  0.35481  0.69099  1.0000
  C   C75       1.0  0.88090  0.85481  0.80901  1.0000
  C   C76       1.0  0.61910  0.14519  0.30901  1.0000
  C   C77       1.0  0.38090  0.64519  0.19099  1.0000
  C   C78       1.0  0.61910  0.85481  0.19099  1.0000
  C   C79       1.0  0.38090  0.35481  0.30901  1.0000
  C   C80       1.0  0.11910  0.64519  0.80901  1.0000
  H   H33       1.0  0.79300  0.12700  0.68030  1.0000
  H   H34       1.0  0.20700  0.37300  0.68030  1.0000
  H   H35       1.0  0.79300  0.87300  0.81970  1.0000
  H   H36       1.0  0.70700  0.12700  0.31970  1.0000
  H   H37       1.0  0.29300  0.62700  0.18030  1.0000
  H   H38       1.0  0.70700  0.87300  0.18030  1.0000
  H   H39       1.0  0.29300  0.37300  0.31970  1.0000
  H   H40       1.0  0.20700  0.62700  0.81970  1.0000
  C   C81       1.0  0.87200  0.19545  0.69134  1.0000
  C   C82       1.0  0.12800  0.30455  0.69134  1.0000
  C   C83       1.0  0.87200  0.80455  0.80866  1.0000
  C   C84       1.0  0.62800  0.19545  0.30866  1.0000
  C   C85       1.0  0.37200  0.69545  0.19134  1.0000
  C   C86       1.0  0.62800  0.80455  0.19134  1.0000
  C   C87       1.0  0.37200  0.30455  0.30866  1.0000
  C   C88       1.0  0.12800  0.69545  0.80866  1.0000
  H   H41       1.0  0.77820  0.21090  0.68090  1.0000
  H   H42       1.0  0.22180  0.28910  0.68090  1.0000
  H   H43       1.0  0.77820  0.78910  0.81910  1.0000
  H   H44       1.0  0.72180  0.21090  0.31910  1.0000
  H   H45       1.0  0.27820  0.71090  0.18090  1.0000
  H   H46       1.0  0.72180  0.78910  0.18090  1.0000
  H   H47       1.0  0.27820  0.28910  0.31910  1.0000
  H   H48       1.0  0.22180  0.71090  0.81910  1.0000
  C   C89       1.0  0.00330  0.22257  0.70727  1.0000
  C   C90       1.0  0.99670  0.27743  0.70727  1.0000
  C   C91       1.0  0.00330  0.77743  0.79273  1.0000
  C   C92       1.0  0.49670  0.22257  0.29273  1.0000
  C   C93       1.0  0.50330  0.72257  0.20727  1.0000
  C   C94       1.0  0.49670  0.77743  0.20727  1.0000
  C   C95       1.0  0.50330  0.27743  0.29273  1.0000
  C   C96       1.0  0.99670  0.72257  0.79273  1.0000
  C   C97       1.0  0.14350  0.19944  0.72285  1.0000
  C   C98       1.0  0.85650  0.30056  0.72285  1.0000
  C   C99       1.0  0.14350  0.80056  0.77715  1.0000
  C   C100      1.0  0.35650  0.19944  0.27715  1.0000
  C   C101      1.0  0.64350  0.69944  0.22285  1.0000
  C   C102      1.0  0.35650  0.80056  0.22285  1.0000
  C   C103      1.0  0.64350  0.30056  0.27715  1.0000
  C   C104      1.0  0.85650  0.69944  0.77715  1.0000
  H   H49       1.0  0.23140  0.21760  0.73350  1.0000
  H   H50       1.0  0.76860  0.28240  0.73350  1.0000
  H   H51       1.0  0.23140  0.78240  0.76650  1.0000
  H   H52       1.0  0.26860  0.21760  0.26650  1.0000
  H   H53       1.0  0.73140  0.71760  0.23350  1.0000
  H   H54       1.0  0.26860  0.78240  0.23350  1.0000
  H   H55       1.0  0.73140  0.28240  0.26650  1.0000
  H   H56       1.0  0.76860  0.71760  0.76650  1.0000
  C   C105      1.0  0.15240  0.14919  0.72251  1.0000
  C   C106      1.0  0.84760  0.35081  0.72251  1.0000
  C   C107      1.0  0.15240  0.85081  0.77749  1.0000
  C   C108      1.0  0.34760  0.14919  0.27749  1.0000
  C   C109      1.0  0.65240  0.64919  0.22251  1.0000
  C   C110      1.0  0.34760  0.85081  0.22251  1.0000
  C   C111      1.0  0.65240  0.35081  0.27749  1.0000
  C   C112      1.0  0.84760  0.64919  0.77749  1.0000
  H   H57       1.0  0.24620  0.13370  0.73290  1.0000
  H   H58       1.0  0.75380  0.36630  0.73290  1.0000
  H   H59       1.0  0.24620  0.86630  0.76710  1.0000
  H   H60       1.0  0.25380  0.13370  0.26710  1.0000
  H   H61       1.0  0.74620  0.63370  0.23290  1.0000
  H   H62       1.0  0.25380  0.86630  0.23290  1.0000
  H   H63       1.0  0.74620  0.36630  0.26710  1.0000
  H   H64       1.0  0.75380  0.63370  0.76710  1.0000
  C   C113      1.0  0.89310  0.89073  0.68297  1.0000
  C   C114      1.0  0.10690  0.60927  0.68297  1.0000
  C   C115      1.0  0.89310  0.10927  0.81703  1.0000
  C   C116      1.0  0.60690  0.89073  0.31703  1.0000
  C   C117      1.0  0.39310  0.39073  0.18297  1.0000
  C   C118      1.0  0.60690  0.10927  0.18297  1.0000
  C   C119      1.0  0.39310  0.60927  0.31703  1.0000
  C   C120      1.0  0.10690  0.39073  0.81703  1.0000
  C   C121      1.0  0.77260  0.84951  0.68085  1.0000
  C   C122      1.0  0.22740  0.65049  0.68085  1.0000
  C   C123      1.0  0.77260  0.15049  0.81915  1.0000
  C   C124      1.0  0.72740  0.84951  0.31915  1.0000
  C   C125      1.0  0.27260  0.34951  0.18085  1.0000
  C   C126      1.0  0.72740  0.15049  0.18085  1.0000
  C   C127      1.0  0.27260  0.65049  0.31915  1.0000
  C   C128      1.0  0.22740  0.34951  0.81915  1.0000
  C   C129      1.0  0.60650  0.85714  0.68670  1.0000
  C   C130      1.0  0.39350  0.64286  0.68670  1.0000
  C   C131      1.0  0.60650  0.14286  0.81330  1.0000
  C   C132      1.0  0.89350  0.85714  0.31330  1.0000
  C   C133      1.0  0.10650  0.35714  0.18670  1.0000
  C   C134      1.0  0.89350  0.14286  0.18670  1.0000
  C   C135      1.0  0.10650  0.64286  0.31330  1.0000
  C   C136      1.0  0.39350  0.35714  0.81330  1.0000
  H   H65       1.0  0.56680  0.88840  0.69090  1.0000
  H   H66       1.0  0.43320  0.61160  0.69090  1.0000
  H   H67       1.0  0.56680  0.11160  0.80910  1.0000
  H   H68       1.0  0.93320  0.88840  0.30910  1.0000
  H   H69       1.0  0.06680  0.38840  0.19090  1.0000
  H   H70       1.0  0.93320  0.11160  0.19090  1.0000
  H   H71       1.0  0.06680  0.61160  0.30910  1.0000
  H   H72       1.0  0.43320  0.38840  0.80910  1.0000
  C   C137      1.0  0.49960  0.81809  0.68622  1.0000
  C   C138      1.0  0.50040  0.68191  0.68622  1.0000
  C   C139      1.0  0.49960  0.18191  0.81378  1.0000
  C   C140      1.0  0.00040  0.81809  0.31378  1.0000
  C   C141      1.0  0.99960  0.31809  0.18622  1.0000
  C   C142      1.0  0.00040  0.18191  0.18622  1.0000
  C   C143      1.0  0.99960  0.68191  0.31378  1.0000
  C   C144      1.0  0.50040  0.31809  0.81378  1.0000
  H   H73       1.0  0.38840  0.82320  0.69010  1.0000
  H   H74       1.0  0.61160  0.67680  0.69010  1.0000
  H   H75       1.0  0.38840  0.17680  0.80990  1.0000
  H   H76       1.0  0.11160  0.82320  0.30990  1.0000
  H   H77       1.0  0.88840  0.32320  0.19010  1.0000
  H   H78       1.0  0.11160  0.17680  0.19010  1.0000
  H   H79       1.0  0.88840  0.67680  0.30990  1.0000
  H   H80       1.0  0.61160  0.32320  0.80990  1.0000
  C   C145      1.0  0.55890  0.77141  0.67988  1.0000
  C   C146      1.0  0.44110  0.72859  0.67988  1.0000
  C   C147      1.0  0.55890  0.22859  0.82012  1.0000
  C   C148      1.0  0.94110  0.77141  0.32012  1.0000
  C   C149      1.0  0.05890  0.27141  0.17988  1.0000
  C   C150      1.0  0.94110  0.22859  0.17988  1.0000
  C   C151      1.0  0.05890  0.72859  0.32012  1.0000
  C   C152      1.0  0.44110  0.27141  0.82012  1.0000
  C   C153      1.0  0.72510  0.76378  0.67403  1.0000
  C   C154      1.0  0.27490  0.73622  0.67403  1.0000
  C   C155      1.0  0.72510  0.23622  0.82597  1.0000
  C   C156      1.0  0.77490  0.76378  0.32597  1.0000
  C   C157      1.0  0.22510  0.26378  0.17403  1.0000
  C   C158      1.0  0.77490  0.23622  0.17403  1.0000
  C   C159      1.0  0.22510  0.73622  0.32597  1.0000
  C   C160      1.0  0.27490  0.26378  0.82597  1.0000
  H   H81       1.0  0.76470  0.73250  0.66980  1.0000
  H   H82       1.0  0.23530  0.76750  0.66980  1.0000
  H   H83       1.0  0.76470  0.26750  0.83020  1.0000
  H   H84       1.0  0.73530  0.73250  0.33020  1.0000
  H   H85       1.0  0.26470  0.23250  0.16980  1.0000
  H   H86       1.0  0.73530  0.26750  0.16980  1.0000
  H   H87       1.0  0.26470  0.76750  0.33020  1.0000
  H   H88       1.0  0.23530  0.23250  0.83020  1.0000
  C   C161      1.0  0.83190  0.80282  0.67452  1.0000
  C   C162      1.0  0.16810  0.69718  0.67452  1.0000
  C   C163      1.0  0.83190  0.19718  0.82548  1.0000
  C   C164      1.0  0.66810  0.80282  0.32548  1.0000
  C   C165      1.0  0.33190  0.30282  0.17452  1.0000
  C   C166      1.0  0.66810  0.19718  0.17452  1.0000
  C   C167      1.0  0.33190  0.69718  0.32548  1.0000
  C   C168      1.0  0.16810  0.30282  0.82548  1.0000
  H   H89       1.0  0.94310  0.79770  0.67060  1.0000
  H   H90       1.0  0.05690  0.70230  0.67060  1.0000
  H   H91       1.0  0.94310  0.20230  0.82940  1.0000
  H   H92       1.0  0.55690  0.79770  0.32940  1.0000
  H   H93       1.0  0.44310  0.29770  0.17060  1.0000
  H   H94       1.0  0.55690  0.20230  0.17060  1.0000
  H   H95       1.0  0.44310  0.70230  0.32940  1.0000
  H   H96       1.0  0.05690  0.29770  0.82940  1.0000
