data_image0
_chemical_formula_structural       U4O48N8O8C48H8C8H8C8H8
_chemical_formula_sum              "U4 O56 N8 C64 H24"
_cell_length_a       15.288
_cell_length_b       14.043
_cell_length_c       15.576
_cell_angle_alpha    90
_cell_angle_beta     111.36
_cell_angle_gamma    90

_space_group_name_H-M_alt    "P 1"
_space_group_IT_number       1

loop_
  _space_group_symop_operation_xyz
  'x, y, z'

loop_
  _atom_site_type_symbol
  _atom_site_label
  _atom_site_symmetry_multiplicity
  _atom_site_fract_x
  _atom_site_fract_y
  _atom_site_fract_z
  _atom_site_occupancy
  U   U1        1.0  0.50000  0.80382  0.75000  1.0000
  U   U2        1.0  0.00000  0.30382  0.75000  1.0000
  U   U3        1.0  0.50000  0.19618  0.25000  1.0000
  U   U4        1.0  0.00000  0.69618  0.25000  1.0000
  O   O1        1.0  0.43870  0.66500  0.66170  1.0000
  O   O2        1.0  0.56130  0.66500  0.83830  1.0000
  O   O3        1.0  0.93870  0.16500  0.66170  1.0000
  O   O4        1.0  0.06130  0.16500  0.83830  1.0000
  O   O5        1.0  0.56130  0.33500  0.33830  1.0000
  O   O6        1.0  0.43870  0.33500  0.16170  1.0000
  O   O7        1.0  0.06130  0.83500  0.33830  1.0000
  O   O8        1.0  0.93870  0.83500  0.16170  1.0000
  O   O9        1.0  0.42190  0.80330  0.80760  1.0000
  O   O10       1.0  0.57810  0.80330  0.69240  1.0000
  O   O11       1.0  0.92190  0.30330  0.80760  1.0000
  O   O12       1.0  0.07810  0.30330  0.69240  1.0000
  O   O13       1.0  0.57810  0.19670  0.19240  1.0000
  O   O14       1.0  0.42190  0.19670  0.30760  1.0000
  O   O15       1.0  0.07810  0.69670  0.19240  1.0000
  O   O16       1.0  0.92190  0.69670  0.30760  1.0000
  O   O17       1.0  0.08400  0.54150  0.31940  1.0000
  O   O18       1.0  0.91600  0.54150  0.18060  1.0000
  O   O19       1.0  0.58400  0.04150  0.31940  1.0000
  O   O20       1.0  0.41600  0.04150  0.18060  1.0000
  O   O21       1.0  0.91600  0.45850  0.68060  1.0000
  O   O22       1.0  0.08400  0.45850  0.81940  1.0000
  O   O23       1.0  0.41600  0.95850  0.68060  1.0000
  O   O24       1.0  0.58400  0.95850  0.81940  1.0000
  O   O25       1.0  0.14250  0.67260  0.39150  1.0000
  O   O26       1.0  0.85750  0.67260  0.10850  1.0000
  O   O27       1.0  0.64250  0.17260  0.39150  1.0000
  O   O28       1.0  0.35750  0.17260  0.10850  1.0000
  O   O29       1.0  0.85750  0.32740  0.60850  1.0000
  O   O30       1.0  0.14250  0.32740  0.89150  1.0000
  O   O31       1.0  0.35750  0.82740  0.60850  1.0000
  O   O32       1.0  0.64250  0.82740  0.89150  1.0000
  O   O33       1.0  0.55040  0.56730  0.65010  1.0000
  O   O34       1.0  0.44960  0.56730  0.84990  1.0000
  O   O35       1.0  0.05040  0.06730  0.65010  1.0000
  O   O36       1.0  0.94960  0.06730  0.84990  1.0000
  O   O37       1.0  0.44960  0.43270  0.34990  1.0000
  O   O38       1.0  0.55040  0.43270  0.15010  1.0000
  O   O39       1.0  0.94960  0.93270  0.34990  1.0000
  O   O40       1.0  0.05040  0.93270  0.15010  1.0000
  O   O41       1.0  0.27820  0.24960  0.40800  1.0000
  O   O42       1.0  0.72180  0.24960  0.09200  1.0000
  O   O43       1.0  0.77820  0.74960  0.40800  1.0000
  O   O44       1.0  0.22180  0.74960  0.09200  1.0000
  O   O45       1.0  0.72180  0.75040  0.59200  1.0000
  O   O46       1.0  0.27820  0.75040  0.90800  1.0000
  O   O47       1.0  0.22180  0.25040  0.59200  1.0000
  O   O48       1.0  0.77820  0.25040  0.90800  1.0000
  N   N1        1.0  0.34200  0.29140  0.46620  1.0000
  N   N2        1.0  0.65800  0.29140  0.03380  1.0000
  N   N3        1.0  0.84200  0.79140  0.46620  1.0000
  N   N4        1.0  0.15800  0.79140  0.03380  1.0000
  N   N5        1.0  0.65800  0.70860  0.53380  1.0000
  N   N6        1.0  0.34200  0.70860  0.96620  1.0000
  N   N7        1.0  0.15800  0.20860  0.53380  1.0000
  N   N8        1.0  0.84200  0.20860  0.96620  1.0000
  O   O49       1.0  0.41360  0.25310  0.51590  1.0000
  O   O50       1.0  0.58640  0.25310  0.98410  1.0000
  O   O51       1.0  0.91360  0.75310  0.51590  1.0000
  O   O52       1.0  0.08640  0.75310  0.98410  1.0000
  O   O53       1.0  0.58640  0.74690  0.48410  1.0000
  O   O54       1.0  0.41360  0.74690  0.01590  1.0000
  O   O55       1.0  0.08640  0.24690  0.48410  1.0000
  O   O56       1.0  0.91360  0.24690  0.01590  1.0000
  C   C1        1.0  0.14890  0.58540  0.37930  1.0000
  C   C2        1.0  0.85110  0.58540  0.12070  1.0000
  C   C3        1.0  0.64890  0.08540  0.37930  1.0000
  C   C4        1.0  0.35110  0.08540  0.12070  1.0000
  C   C5        1.0  0.85110  0.41460  0.62070  1.0000
  C   C6        1.0  0.14890  0.41460  0.87930  1.0000
  C   C7        1.0  0.35110  0.91460  0.62070  1.0000
  C   C8        1.0  0.64890  0.91460  0.87930  1.0000
  C   C9        1.0  0.46820  0.59570  0.62880  1.0000
  C   C10       1.0  0.53180  0.59570  0.87120  1.0000
  C   C11       1.0  0.96820  0.09570  0.62880  1.0000
  C   C12       1.0  0.03180  0.09570  0.87120  1.0000
  C   C13       1.0  0.53180  0.40430  0.37120  1.0000
  C   C14       1.0  0.46820  0.40430  0.12880  1.0000
  C   C15       1.0  0.03180  0.90430  0.37120  1.0000
  C   C16       1.0  0.96820  0.90430  0.12880  1.0000
  C   C17       1.0  0.23720  0.53460  0.43740  1.0000
  C   C18       1.0  0.76280  0.53460  0.06260  1.0000
  C   C19       1.0  0.73720  0.03460  0.43740  1.0000
  C   C20       1.0  0.26280  0.03460  0.06260  1.0000
  C   C21       1.0  0.76280  0.46540  0.56260  1.0000
  C   C22       1.0  0.23720  0.46540  0.93740  1.0000
  C   C23       1.0  0.26280  0.96540  0.56260  1.0000
  C   C24       1.0  0.73720  0.96540  0.93740  1.0000
  C   C25       1.0  0.33070  0.39360  0.47940  1.0000
  C   C26       1.0  0.66930  0.39360  0.02060  1.0000
  C   C27       1.0  0.83070  0.89360  0.47940  1.0000
  C   C28       1.0  0.16930  0.89360  0.02060  1.0000
  C   C29       1.0  0.66930  0.60640  0.52060  1.0000
  C   C30       1.0  0.33070  0.60640  0.97940  1.0000
  C   C31       1.0  0.16930  0.10640  0.52060  1.0000
  C   C32       1.0  0.83070  0.10640  0.97940  1.0000
  C   C33       1.0  0.39210  0.54000  0.55670  1.0000
  C   C34       1.0  0.60790  0.54000  0.94330  1.0000
  C   C35       1.0  0.89210  0.04000  0.55670  1.0000
  C   C36       1.0  0.10790  0.04000  0.94330  1.0000
  C   C37       1.0  0.60790  0.46000  0.44330  1.0000
  C   C38       1.0  0.39210  0.46000  0.05670  1.0000
  C   C39       1.0  0.10790  0.96000  0.44330  1.0000
  C   C40       1.0  0.89210  0.96000  0.05670  1.0000
  C   C41       1.0  0.40350  0.44310  0.54290  1.0000
  C   C42       1.0  0.59650  0.44310  0.95710  1.0000
  C   C43       1.0  0.90350  0.94310  0.54290  1.0000
  C   C44       1.0  0.09650  0.94310  0.95710  1.0000
  C   C45       1.0  0.59650  0.55690  0.45710  1.0000
  C   C46       1.0  0.40350  0.55690  0.04290  1.0000
  C   C47       1.0  0.09650  0.05690  0.45710  1.0000
  C   C48       1.0  0.90350  0.05690  0.04290  1.0000
  H   H1        1.0  0.45952  0.41235  0.57616  1.0000
  H   H2        1.0  0.54048  0.41235  0.92384  1.0000
  H   H3        1.0  0.95952  0.91235  0.57616  1.0000
  H   H4        1.0  0.04048  0.91235  0.92384  1.0000
  H   H5        1.0  0.54048  0.58765  0.42384  1.0000
  H   H6        1.0  0.45952  0.58765  0.07616  1.0000
  H   H7        1.0  0.04048  0.08765  0.42384  1.0000
  H   H8        1.0  0.95952  0.08765  0.07616  1.0000
  C   C49       1.0  0.30880  0.58460  0.50340  1.0000
  C   C50       1.0  0.69120  0.58460  0.99660  1.0000
  C   C51       1.0  0.80880  0.08460  0.50340  1.0000
  C   C52       1.0  0.19120  0.08460  0.99660  1.0000
  C   C53       1.0  0.69120  0.41540  0.49660  1.0000
  C   C54       1.0  0.30880  0.41540  0.00340  1.0000
  C   C55       1.0  0.19120  0.91540  0.49660  1.0000
  C   C56       1.0  0.80880  0.91540  0.00340  1.0000
  H   H9        1.0  0.30097  0.64907  0.51207  1.0000
  H   H10       1.0  0.69903  0.64907  0.98793  1.0000
  H   H11       1.0  0.80097  0.14907  0.51207  1.0000
  H   H12       1.0  0.19903  0.14907  0.98793  1.0000
  H   H13       1.0  0.69903  0.35093  0.48793  1.0000
  H   H14       1.0  0.30097  0.35093  0.01207  1.0000
  H   H15       1.0  0.19903  0.85093  0.48793  1.0000
  H   H16       1.0  0.80097  0.85093  0.01207  1.0000
  C   C57       1.0  0.24740  0.43700  0.42580  1.0000
  C   C58       1.0  0.75260  0.43700  0.07420  1.0000
  C   C59       1.0  0.74740  0.93700  0.42580  1.0000
  C   C60       1.0  0.25260  0.93700  0.07420  1.0000
  C   C61       1.0  0.75260  0.56300  0.57420  1.0000
  C   C62       1.0  0.24740  0.56300  0.92580  1.0000
  C   C63       1.0  0.25260  0.06300  0.57420  1.0000
  C   C64       1.0  0.74740  0.06300  0.92580  1.0000
  H   H17       1.0  0.19945  0.40214  0.38314  1.0000
  H   H18       1.0  0.80055  0.40214  0.11686  1.0000
  H   H19       1.0  0.69945  0.90214  0.38314  1.0000
  H   H20       1.0  0.30055  0.90214  0.11686  1.0000
  H   H21       1.0  0.80055  0.59786  0.61686  1.0000
  H   H22       1.0  0.19945  0.59786  0.88314  1.0000
  H   H23       1.0  0.30055  0.09786  0.61686  1.0000
  H   H24       1.0  0.69945  0.09786  0.88314  1.0000
