data_image0
_chemical_formula_structural       U4O28C2O2C2O2C2H2N2O2N4O2C4O2C2H2C4H2O2C2H2C2H2C6H2O2C6H2C2O2C4H2C4H2C6
_chemical_formula_sum              "U4 O44 C48 H18 N6"
_cell_length_a       10.548
_cell_length_b       13.524
_cell_length_c       14.947
_cell_angle_alpha    94.71
_cell_angle_beta     94.51
_cell_angle_gamma    105.13

_space_group_name_H-M_alt    "P 1"
_space_group_IT_number       1

loop_
  _space_group_symop_operation_xyz
  'x, y, z'

loop_
  _atom_site_type_symbol
  _atom_site_label
  _atom_site_symmetry_multiplicity
  _atom_site_fract_x
  _atom_site_fract_y
  _atom_site_fract_z
  _atom_site_occupancy
  U   U1        1.0  0.17902  0.49106  0.25905  1.0000
  U   U2        1.0  0.82098  0.50894  0.74095  1.0000
  U   U3        1.0  0.20686  0.77581  0.60081  1.0000
  U   U4        1.0  0.79314  0.22419  0.39919  1.0000
  O   O1        1.0  0.87220  0.52340  0.59460  1.0000
  O   O2        1.0  0.12780  0.47660  0.40540  1.0000
  O   O3        1.0  0.95280  0.46250  0.23230  1.0000
  O   O4        1.0  0.04720  0.53750  0.76770  1.0000
  O   O5        1.0  0.15060  0.35670  0.23710  1.0000
  O   O6        1.0  0.84940  0.64330  0.76290  1.0000
  O   O7        1.0  0.85900  0.50090  0.90590  1.0000
  O   O8        1.0  0.14100  0.49910  0.09410  1.0000
  O   O9        1.0  0.19940  0.62420  0.27790  1.0000
  O   O10       1.0  0.80060  0.37580  0.72210  1.0000
  O   O11       1.0  0.65350  0.47310  0.85000  1.0000
  O   O12       1.0  0.34650  0.52690  0.15000  1.0000
  O   O13       1.0  0.38290  0.50480  0.33230  1.0000
  O   O14       1.0  0.61710  0.49520  0.66770  1.0000
  O   O15       1.0  0.68120  0.07850  0.48170  1.0000
  O   O16       1.0  0.31880  0.92150  0.51830  1.0000
  O   O17       1.0  0.80510  0.34140  0.29140  1.0000
  O   O18       1.0  0.19490  0.65860  0.70860  1.0000
  O   O19       1.0  0.88350  0.15860  0.53280  1.0000
  O   O20       1.0  0.11650  0.84140  0.46720  1.0000
  O   O21       1.0  0.34490  0.27230  0.16250  1.0000
  O   O22       1.0  0.65510  0.72770  0.83750  1.0000
  O   O23       1.0  0.46860  0.88110  0.83100  1.0000
  O   O24       1.0  0.53140  0.11890  0.16900  1.0000
  O   O25       1.0  0.01400  0.65500  0.54660  1.0000
  O   O26       1.0  0.98600  0.34500  0.45340  1.0000
  O   O27       1.0  0.30180  0.31060  0.02910  1.0000
  O   O28       1.0  0.69820  0.68940  0.97090  1.0000
  C   C1        1.0  0.90740  0.58550  0.53720  1.0000
  C   C2        1.0  0.09260  0.41450  0.46280  1.0000
  O   O29       1.0  0.42880  0.37490  0.39540  1.0000
  O   O30       1.0  0.57120  0.62510  0.60460  1.0000
  C   C3        1.0  0.69170  0.43680  0.00090  1.0000
  C   C4        1.0  0.30830  0.56320  0.99910  1.0000
  O   O31       1.0  0.94820  0.72070  0.23340  1.0000
  O   O32       1.0  0.05180  0.27930  0.76660  1.0000
  C   C5        1.0  0.78210  0.43940  0.07550  1.0000
  C   C6        1.0  0.21790  0.56060  0.92450  1.0000
  H   H1        1.0  0.87142  0.46959  0.07262  1.0000
  H   H2        1.0  0.12858  0.53041  0.92738  1.0000
  N   N1        1.0  0.37900  0.30770  0.09190  1.0000
  N   N2        1.0  0.62100  0.69230  0.90810  1.0000
  O   O33       1.0  0.12180  0.84450  0.66360  1.0000
  O   O34       1.0  0.87820  0.15550  0.33640  1.0000
  N   N3        1.0  0.83130  0.67860  0.22880  1.0000
  N   N4        1.0  0.16870  0.32140  0.77120  1.0000
  N   N5        1.0  0.96670  0.01940  0.83280  1.0000
  N   N6        1.0  0.03330  0.98060  0.16720  1.0000
  O   O35       1.0  0.28830  0.70640  0.53450  1.0000
  O   O36       1.0  0.71170  0.29360  0.46550  1.0000
  C   C7        1.0  0.74140  0.39820  0.15310  1.0000
  C   C8        1.0  0.25860  0.60180  0.84690  1.0000
  C   C9        1.0  0.82140  0.57520  0.45200  1.0000
  C   C10       1.0  0.17860  0.42480  0.54800  1.0000
  O   O37       1.0  0.75290  0.67340  0.16250  1.0000
  O   O38       1.0  0.24710  0.32660  0.83750  1.0000
  C   C11       1.0  0.69110  0.51470  0.44520  1.0000
  C   C12       1.0  0.30890  0.48530  0.55480  1.0000
  H   H3        1.0  0.66307  0.47358  0.49058  1.0000
  H   H4        1.0  0.33693  0.52642  0.50942  1.0000
  C   C13       1.0  0.51850  0.35380  0.08660  1.0000
  C   C14       1.0  0.48150  0.64620  0.91340  1.0000
  C   C15       1.0  0.86540  0.62970  0.38030  1.0000
  C   C16       1.0  0.13460  0.37030  0.61970  1.0000
  H   H5        1.0  0.95240  0.66923  0.38275  1.0000
  H   H6        1.0  0.04760  0.33077  0.61725  1.0000
  O   O39       1.0  0.07340  0.05800  0.81350  1.0000
  O   O40       1.0  0.92660  0.94200  0.18650  1.0000
  C   C17       1.0  0.64840  0.57090  0.29910  1.0000
  C   C18       1.0  0.35160  0.42910  0.70090  1.0000
  H   H7        1.0  0.59170  0.57132  0.24839  1.0000
  H   H8        1.0  0.40830  0.42868  0.75161  1.0000
  C   C19       1.0  0.60600  0.35610  0.15990  1.0000
  C   C20       1.0  0.39400  0.64390  0.84010  1.0000
  H   H9        1.0  0.57683  0.33061  0.21276  1.0000
  H   H10       1.0  0.42317  0.66939  0.78724  1.0000
  C   C21       1.0  0.73810  0.47420  0.91480  1.0000
  C   C22       1.0  0.26190  0.52580  0.08520  1.0000
  C   C23       1.0  0.84160  0.40080  0.23060  1.0000
  C   C24       1.0  0.15840  0.59920  0.76940  1.0000
  C   C25       1.0  0.86850  0.05670  0.68760  1.0000
  C   C26       1.0  0.13150  0.94330  0.31240  1.0000
  H   H11       1.0  0.95129  0.09540  0.67630  1.0000
  H   H12       1.0  0.04871  0.90460  0.32370  1.0000
  O   O41       1.0  0.39920  0.85210  0.68530  1.0000
  O   O42       1.0  0.60080  0.14790  0.31470  1.0000
  C   C27       1.0  0.60280  0.51530  0.37150  1.0000
  C   C28       1.0  0.39720  0.48470  0.62850  1.0000
  C   C29       1.0  0.77440  0.09590  0.54230  1.0000
  C   C30       1.0  0.22560  0.90410  0.45770  1.0000
  C   C31       1.0  0.55930  0.39640  0.00790  1.0000
  C   C32       1.0  0.44070  0.60360  0.99210  1.0000
  H   H13       1.0  0.49704  0.39745  0.96061  1.0000
  H   H14       1.0  0.50296  0.60255  0.03939  1.0000
  C   C33       1.0  0.75830  0.04180  0.62550  1.0000
  C   C34       1.0  0.24170  0.95820  0.37450  1.0000
  O   O43       1.0  0.94430  0.98510  0.90520  1.0000
  O   O44       1.0  0.05570  0.01490  0.09480  1.0000
  C   C35       1.0  0.77820  0.62390  0.30620  1.0000
  C   C36       1.0  0.22180  0.37610  0.69380  1.0000
  C   C37       1.0  0.63330  0.98670  0.64530  1.0000
  C   C38       1.0  0.36670  0.01330  0.35470  1.0000
  H   H15       1.0  0.55946  0.97867  0.60430  1.0000
  H   H16       1.0  0.44054  0.02133  0.39570  1.0000
  C   C39       1.0  0.62080  0.94500  0.72510  1.0000
  C   C40       1.0  0.37920  0.05500  0.27490  1.0000
  C   C41       1.0  0.72690  0.95730  0.78910  1.0000
  C   C42       1.0  0.27310  0.04270  0.21090  1.0000
  H   H17       1.0  0.71609  0.93047  0.84419  1.0000
  H   H18       1.0  0.28391  0.06953  0.15581  1.0000
  C   C43       1.0  0.48600  0.88960  0.75190  1.0000
  C   C44       1.0  0.51400  0.11040  0.24810  1.0000
  C   C45       1.0  0.84940  0.01070  0.76850  1.0000
  C   C46       1.0  0.15060  0.98930  0.23150  1.0000
  C   C47       1.0  0.46040  0.45680  0.36620  1.0000
  C   C48       1.0  0.53960  0.54320  0.63380  1.0000
