data_image0
_chemical_formula_structural       U6O60N8C6H2C4H2C4H2C8H2C4H2C4H2C8H2C4H2C4H2C8H2C4H2C4H2C2
_chemical_formula_sum              "U6 O60 N8 C64 H24"
_cell_length_a       10.782
_cell_length_b       13.293
_cell_length_c       21.143
_cell_angle_alpha    88.87
_cell_angle_beta     76.44
_cell_angle_gamma    69.46

_space_group_name_H-M_alt    "P 1"
_space_group_IT_number       1

loop_
  _space_group_symop_operation_xyz
  'x, y, z'

loop_
  _atom_site_type_symbol
  _atom_site_label
  _atom_site_symmetry_multiplicity
  _atom_site_fract_x
  _atom_site_fract_y
  _atom_site_fract_z
  _atom_site_occupancy
  U   U1        1.0  0.58532  0.16883  0.04238  1.0000
  U   U2        1.0  0.41468  0.83117  0.95762  1.0000
  U   U3        1.0  0.38164  0.03923  0.28466  1.0000
  U   U4        1.0  0.61836  0.96077  0.71534  1.0000
  U   U5        1.0  0.61189  0.54555  0.38386  1.0000
  U   U6        1.0  0.38811  0.45445  0.61614  1.0000
  O   O1        1.0  0.58580  0.28680  0.07630  1.0000
  O   O2        1.0  0.41420  0.71320  0.92370  1.0000
  O   O3        1.0  0.59690  0.04840  0.00930  1.0000
  O   O4        1.0  0.40310  0.95160  0.99070  1.0000
  O   O5        1.0  0.69670  0.20680  0.93640  1.0000
  O   O6        1.0  0.30330  0.79320  0.06360  1.0000
  O   O7        1.0  0.83480  0.11520  0.99480  1.0000
  O   O8        1.0  0.16520  0.88480  0.00520  1.0000
  O   O9        1.0  0.32010  0.92350  0.87590  1.0000
  O   O10       1.0  0.67990  0.07650  0.12410  1.0000
  O   O11       1.0  0.38950  0.18460  0.12490  1.0000
  O   O12       1.0  0.61050  0.81540  0.87510  1.0000
  O   O13       1.0  0.59130  0.74600  0.00640  1.0000
  O   O14       1.0  0.40870  0.25400  0.99360  1.0000
  O   O15       1.0  0.44910  0.09050  0.33460  1.0000
  O   O16       1.0  0.55090  0.90950  0.66540  1.0000
  O   O17       1.0  0.31210  0.98920  0.23550  1.0000
  O   O18       1.0  0.68790  0.01080  0.76450  1.0000
  O   O19       1.0  0.23920  0.01120  0.38940  1.0000
  O   O20       1.0  0.76080  0.98880  0.61060  1.0000
  O   O21       1.0  0.15170  0.15860  0.34200  1.0000
  O   O22       1.0  0.84830  0.84140  0.65800  1.0000
  O   O23       1.0  0.32930  0.20250  0.23300  1.0000
  O   O24       1.0  0.67070  0.79750  0.76700  1.0000
  O   O25       1.0  0.41240  0.99920  0.79420  1.0000
  O   O26       1.0  0.58760  0.00080  0.20580  1.0000
  O   O27       1.0  0.49830  0.86130  0.30560  1.0000
  O   O28       1.0  0.50170  0.13870  0.69440  1.0000
  O   O29       1.0  0.64800  0.61190  0.43560  1.0000
  O   O30       1.0  0.35200  0.38810  0.56440  1.0000
  O   O31       1.0  0.57260  0.47430  0.33380  1.0000
  O   O32       1.0  0.42740  0.52570  0.66620  1.0000
  O   O33       1.0  0.48340  0.71330  0.34850  1.0000
  O   O34       1.0  0.51660  0.28670  0.65150  1.0000
  O   O35       1.0  0.89300  0.34800  0.73460  1.0000
  O   O36       1.0  0.10700  0.65200  0.26540  1.0000
  O   O37       1.0  0.09000  0.24870  0.67780  1.0000
  O   O38       1.0  0.91000  0.75130  0.32220  1.0000
  O   O39       1.0  0.99300  0.63210  0.06830  1.0000
  O   O40       1.0  0.00700  0.36790  0.93170  1.0000
  O   O41       1.0  0.14800  0.49410  0.01170  1.0000
  O   O42       1.0  0.85200  0.50590  0.98830  1.0000
  O   O43       1.0  0.85080  0.44100  0.33750  1.0000
  O   O44       1.0  0.14920  0.55900  0.66250  1.0000
  O   O45       1.0  0.75960  0.58610  0.28910  1.0000
  O   O46       1.0  0.24040  0.41390  0.71090  1.0000
  O   O47       1.0  0.67180  0.39170  0.44270  1.0000
  O   O48       1.0  0.32820  0.60830  0.55730  1.0000
  O   O49       1.0  0.60930  0.41500  0.55190  1.0000
  O   O50       1.0  0.39070  0.58500  0.44810  1.0000
  O   O51       1.0  0.86290  0.14560  0.67660  1.0000
  O   O52       1.0  0.13710  0.85440  0.32340  1.0000
  O   O53       1.0  0.05180  0.01490  0.62760  1.0000
  O   O54       1.0  0.94820  0.98510  0.37240  1.0000
  O   O55       1.0  0.38200  0.46550  0.21000  1.0000
  O   O56       1.0  0.61800  0.53450  0.79000  1.0000
  O   O57       1.0  0.36300  0.51470  0.11340  1.0000
  O   O58       1.0  0.63700  0.48530  0.88660  1.0000
  O   O59       1.0  0.70310  0.81470  0.05770  1.0000
  O   O60       1.0  0.29690  0.18530  0.94230  1.0000
  N   N1        1.0  0.99900  0.27430  0.72880  1.0000
  N   N2        1.0  0.00100  0.72570  0.27120  1.0000
  N   N3        1.0  0.07220  0.54050  0.06320  1.0000
  N   N4        1.0  0.92780  0.45950  0.93680  1.0000
  N   N5        1.0  0.39700  0.52140  0.16410  1.0000
  N   N6        1.0  0.60300  0.47860  0.83590  1.0000
  N   N7        1.0  0.95600  0.09880  0.62770  1.0000
  N   N8        1.0  0.04400  0.90120  0.37230  1.0000
  C   C1        1.0  0.81700  0.15680  0.94210  1.0000
  C   C2        1.0  0.18300  0.84320  0.05790  1.0000
  C   C3        1.0  0.93690  0.15240  0.88680  1.0000
  C   C4        1.0  0.06310  0.84760  0.11320  1.0000
  C   C5        1.0  0.91200  0.21470  0.83380  1.0000
  C   C6        1.0  0.08800  0.78530  0.16620  1.0000
  H   H1        1.0  0.82397  0.25943  0.83278  1.0000
  H   H2        1.0  0.17603  0.74057  0.16722  1.0000
  C   C7        1.0  0.02300  0.20670  0.78300  1.0000
  C   C8        1.0  0.97700  0.79330  0.21700  1.0000
  C   C9        1.0  0.15500  0.13550  0.78310  1.0000
  C   C10       1.0  0.84500  0.86450  0.21690  1.0000
  H   H3        1.0  0.22843  0.12950  0.74812  1.0000
  H   H4        1.0  0.77157  0.87050  0.25188  1.0000
  C   C11       1.0  0.17300  0.07490  0.83570  1.0000
  C   C12       1.0  0.82700  0.92510  0.16430  1.0000
  C   C13       1.0  0.06400  0.08270  0.88700  1.0000
  C   C14       1.0  0.93600  0.91730  0.11300  1.0000
  H   H5        1.0  0.07731  0.04013  0.92205  1.0000
  H   H6        1.0  0.92269  0.95987  0.07795  1.0000
  C   C15       1.0  0.31210  0.99400  0.83370  1.0000
  C   C16       1.0  0.68790  0.00600  0.16630  1.0000
  C   C17       1.0  0.31200  0.23350  0.17750  1.0000
  C   C18       1.0  0.68800  0.76650  0.82250  1.0000
  C   C19       1.0  0.19240  0.32960  0.17650  1.0000
  C   C20       1.0  0.80760  0.67040  0.82350  1.0000
  C   C21       1.0  0.08780  0.36830  0.23240  1.0000
  C   C22       1.0  0.91220  0.63170  0.76760  1.0000
  H   H7        1.0  0.09252  0.33212  0.27032  1.0000
  H   H8        1.0  0.90748  0.66788  0.72968  1.0000
  C   C23       1.0  0.97500  0.46140  0.23190  1.0000
  C   C24       1.0  0.02500  0.53860  0.76810  1.0000
  C   C25       1.0  0.96800  0.51730  0.17640  1.0000
  C   C26       1.0  0.03200  0.48270  0.82360  1.0000
  H   H9        1.0  0.89484  0.58034  0.17593  1.0000
  H   H10       1.0  0.10516  0.41966  0.82407  1.0000
  C   C27       1.0  0.07300  0.47620  0.12190  1.0000
  C   C28       1.0  0.92700  0.52380  0.87810  1.0000
  C   C29       1.0  0.18800  0.38310  0.12010  1.0000
  C   C30       1.0  0.81200  0.61690  0.87990  1.0000
  H   H11       1.0  0.25727  0.35845  0.08236  1.0000
  H   H12       1.0  0.74273  0.64155  0.91764  1.0000
  C   C31       1.0  0.86000  0.49690  0.29040  1.0000
  C   C32       1.0  0.14000  0.50310  0.70960  1.0000
  C   C33       1.0  0.49630  0.76970  0.30300  1.0000
  C   C34       1.0  0.50370  0.23030  0.69700  1.0000
  C   C35       1.0  0.50900  0.71960  0.23510  1.0000
  C   C36       1.0  0.49100  0.28040  0.76490  1.0000
  C   C37       1.0  0.45310  0.64100  0.23170  1.0000
  C   C38       1.0  0.54690  0.35900  0.76830  1.0000
  H   H13       1.0  0.41321  0.61512  0.26923  1.0000
  H   H14       1.0  0.58679  0.38488  0.73077  1.0000
  C   C39       1.0  0.45900  0.60220  0.16960  1.0000
  C   C40       1.0  0.54100  0.39780  0.83040  1.0000
  C   C41       1.0  0.51400  0.64010  0.11370  1.0000
  C   C42       1.0  0.48600  0.35990  0.88630  1.0000
  H   H15       1.0  0.51161  0.61531  0.07326  1.0000
  H   H16       1.0  0.48839  0.38469  0.92674  1.0000
  C   C43       1.0  0.57200  0.71630  0.11820  1.0000
  C   C44       1.0  0.42800  0.28370  0.88180  1.0000
  C   C45       1.0  0.56570  0.75820  0.17990  1.0000
  C   C46       1.0  0.43430  0.24180  0.82010  1.0000
  H   H17       1.0  0.60019  0.81249  0.18313  1.0000
  H   H18       1.0  0.39981  0.18751  0.81687  1.0000
  C   C47       1.0  0.63000  0.76250  0.05720  1.0000
  C   C48       1.0  0.37000  0.23750  0.94280  1.0000
  C   C49       1.0  0.14900  0.10340  0.39130  1.0000
  C   C50       1.0  0.85100  0.89660  0.60870  1.0000
  C   C51       1.0  0.03800  0.14830  0.45160  1.0000
  C   C52       1.0  0.96200  0.85170  0.54840  1.0000
  C   C53       1.0  0.04800  0.10140  0.51070  1.0000
  C   C54       1.0  0.95200  0.89860  0.48930  1.0000
  H   H19       1.0  0.12301  0.04111  0.51366  1.0000
  H   H20       1.0  0.87699  0.95889  0.48634  1.0000
  C   C55       1.0  0.94200  0.14870  0.56490  1.0000
  C   C56       1.0  0.05800  0.85130  0.43510  1.0000
  C   C57       1.0  0.82900  0.23120  0.56170  1.0000
  C   C58       1.0  0.17100  0.76880  0.43830  1.0000
  H   H21       1.0  0.76003  0.25838  0.59933  1.0000
  H   H22       1.0  0.23997  0.74162  0.40067  1.0000
  C   C59       1.0  0.81400  0.27730  0.50300  1.0000
  C   C60       1.0  0.18600  0.72270  0.49700  1.0000
  C   C61       1.0  0.92300  0.23440  0.44800  1.0000
  C   C62       1.0  0.07700  0.76560  0.55200  1.0000
  H   H23       1.0  0.91657  0.26450  0.40825  1.0000
  H   H24       1.0  0.08343  0.73550  0.59175  1.0000
  C   C63       1.0  0.69000  0.36810  0.49840  1.0000
  C   C64       1.0  0.31000  0.63190  0.50160  1.0000
