data_image0
_chemical_formula_structural       C12H4C12H4C8H4C4O24Zn4
_chemical_formula_sum              "C36 H12 O24 Zn4"
_cell_length_a       9.437
_cell_length_b       15.378
_cell_length_c       13.319
_cell_angle_alpha    90
_cell_angle_beta     106.383
_cell_angle_gamma    90

_space_group_name_H-M_alt    "P 1"
_space_group_IT_number       1

loop_
  _space_group_symop_operation_xyz
  'x, y, z'

loop_
  _atom_site_type_symbol
  _atom_site_label
  _atom_site_symmetry_multiplicity
  _atom_site_fract_x
  _atom_site_fract_y
  _atom_site_fract_z
  _atom_site_occupancy
  C   C1        1.0  0.06360  0.18910  0.13570  1.0000
  C   C2        1.0  0.43640  0.68910  0.36430  1.0000
  C   C3        1.0  0.93640  0.81090  0.86430  1.0000
  C   C4        1.0  0.56360  0.31090  0.63570  1.0000
  C   C5        1.0  0.06240  0.25590  0.21820  1.0000
  C   C6        1.0  0.43760  0.75590  0.28180  1.0000
  C   C7        1.0  0.93760  0.74410  0.78180  1.0000
  C   C8        1.0  0.56240  0.24410  0.71820  1.0000
  C   C9        1.0  0.93590  0.26490  0.25160  1.0000
  C   C10       1.0  0.56410  0.76490  0.24840  1.0000
  C   C11       1.0  0.06410  0.73510  0.74840  1.0000
  C   C12       1.0  0.43590  0.23510  0.75160  1.0000
  H   H1        1.0  0.85490  0.22910  0.22400  1.0000
  H   H2        1.0  0.64510  0.72910  0.27600  1.0000
  H   H3        1.0  0.14510  0.77090  0.77600  1.0000
  H   H4        1.0  0.35490  0.27090  0.72400  1.0000
  C   C13       1.0  0.93040  0.32750  0.32620  1.0000
  C   C14       1.0  0.56960  0.82750  0.17380  1.0000
  C   C15       1.0  0.06960  0.67250  0.67380  1.0000
  C   C16       1.0  0.43040  0.17250  0.82620  1.0000
  C   C17       1.0  0.79220  0.33440  0.36350  1.0000
  C   C18       1.0  0.70780  0.83440  0.13650  1.0000
  C   C19       1.0  0.20780  0.66560  0.63650  1.0000
  C   C20       1.0  0.29220  0.16560  0.86350  1.0000
  C   C21       1.0  0.05180  0.38010  0.36760  1.0000
  C   C22       1.0  0.44820  0.88010  0.13240  1.0000
  C   C23       1.0  0.94820  0.61990  0.63240  1.0000
  C   C24       1.0  0.55180  0.11990  0.86760  1.0000
  H   H5        1.0  0.04750  0.42280  0.41620  1.0000
  H   H6        1.0  0.45250  0.92280  0.08380  1.0000
  H   H7        1.0  0.95250  0.57720  0.58380  1.0000
  H   H8        1.0  0.54750  0.07720  0.91620  1.0000
  C   C25       1.0  0.18000  0.36950  0.33730  1.0000
  C   C26       1.0  0.32000  0.86950  0.16270  1.0000
  C   C27       1.0  0.82000  0.63050  0.66270  1.0000
  C   C28       1.0  0.68000  0.13050  0.83730  1.0000
  C   C29       1.0  0.18390  0.30810  0.26250  1.0000
  C   C30       1.0  0.31610  0.80810  0.23750  1.0000
  C   C31       1.0  0.81610  0.69190  0.73750  1.0000
  C   C32       1.0  0.68390  0.19190  0.76250  1.0000
  H   H9        1.0  0.26930  0.30160  0.24150  1.0000
  H   H10       1.0  0.23070  0.80160  0.25850  1.0000
  H   H11       1.0  0.73070  0.69840  0.75850  1.0000
  H   H12       1.0  0.76930  0.19840  0.74150  1.0000
  C   C33       1.0  0.31280  0.42390  0.38820  1.0000
  C   C34       1.0  0.18720  0.92390  0.11180  1.0000
  C   C35       1.0  0.68720  0.57610  0.61180  1.0000
  C   C36       1.0  0.81280  0.07610  0.88820  1.0000
  O   O1        1.0  0.96460  0.13360  0.11180  1.0000
  O   O2        1.0  0.53540  0.63360  0.38820  1.0000
  O   O3        1.0  0.03540  0.86640  0.88820  1.0000
  O   O4        1.0  0.46460  0.36640  0.61180  1.0000
  O   O5        1.0  0.16820  0.19220  0.09360  1.0000
  O   O6        1.0  0.33180  0.69220  0.40640  1.0000
  O   O7        1.0  0.83180  0.80780  0.90640  1.0000
  O   O8        1.0  0.66820  0.30780  0.59360  1.0000
  O   O9        1.0  0.43630  0.39650  0.38220  1.0000
  O   O10       1.0  0.06370  0.89650  0.11780  1.0000
  O   O11       1.0  0.56370  0.60350  0.61780  1.0000
  O   O12       1.0  0.93630  0.10350  0.88220  1.0000
  O   O13       1.0  0.29140  0.49040  0.43560  1.0000
  O   O14       1.0  0.20860  0.99040  0.06440  1.0000
  O   O15       1.0  0.70860  0.50960  0.56440  1.0000
  O   O16       1.0  0.79140  0.00960  0.93560  1.0000
  O   O17       1.0  0.78550  0.39940  0.42000  1.0000
  O   O18       1.0  0.71450  0.89940  0.08000  1.0000
  O   O19       1.0  0.21450  0.60060  0.58000  1.0000
  O   O20       1.0  0.28550  0.10060  0.92000  1.0000
  O   O21       1.0  0.69520  0.27840  0.33650  1.0000
  O   O22       1.0  0.80480  0.77840  0.16350  1.0000
  O   O23       1.0  0.30480  0.72160  0.66350  1.0000
  O   O24       1.0  0.19520  0.22160  0.83650  1.0000
  Zn  Zn1       1.0  0.12617  0.09632  0.98868  1.0000
  Zn  Zn2       1.0  0.37383  0.59632  0.51132  1.0000
  Zn  Zn3       1.0  0.87383  0.90368  0.01132  1.0000
  Zn  Zn4       1.0  0.62617  0.40368  0.48868  1.0000
