data_image0
_chemical_formula_structural       Bi8O64C24H8C8H8C16H8C8H8C24H8C8H8C16H8C8H8C24H8C8H8C16H8C8H8C24H8C8H8C16H8C8H8C16H8C24H8C8H8C24H8C24H8C8H8C24
_chemical_formula_sum              "Bi8 O64 C352 H176"
_cell_length_a       22.875
_cell_length_b       11.704
_cell_length_c       38.764
_cell_angle_alpha    90
_cell_angle_beta     90
_cell_angle_gamma    90

_space_group_name_H-M_alt    "P 1"
_space_group_IT_number       1

loop_
  _space_group_symop_operation_xyz
  'x, y, z'

loop_
  _atom_site_type_symbol
  _atom_site_label
  _atom_site_symmetry_multiplicity
  _atom_site_fract_x
  _atom_site_fract_y
  _atom_site_fract_z
  _atom_site_occupancy
  Bi  Bi1       1.0  0.07875  0.49080  0.38009  1.0000
  Bi  Bi2       1.0  0.42125  0.00920  0.88009  1.0000
  Bi  Bi3       1.0  0.57875  0.00920  0.61991  1.0000
  Bi  Bi4       1.0  0.92125  0.49080  0.11991  1.0000
  Bi  Bi5       1.0  0.92125  0.50920  0.61991  1.0000
  Bi  Bi6       1.0  0.57875  0.99080  0.11991  1.0000
  Bi  Bi7       1.0  0.42125  0.99080  0.38009  1.0000
  Bi  Bi8       1.0  0.07875  0.50920  0.88009  1.0000
  O   O1        1.0  0.17650  0.43820  0.38870  1.0000
  O   O2        1.0  0.32350  0.06180  0.88870  1.0000
  O   O3        1.0  0.67650  0.06180  0.61130  1.0000
  O   O4        1.0  0.82350  0.43820  0.11130  1.0000
  O   O5        1.0  0.82350  0.56180  0.61130  1.0000
  O   O6        1.0  0.67650  0.93820  0.11130  1.0000
  O   O7        1.0  0.32350  0.93820  0.38870  1.0000
  O   O8        1.0  0.17650  0.56180  0.88870  1.0000
  O   O9        1.0  0.18650  0.61600  0.37800  1.0000
  O   O10       1.0  0.31350  0.88400  0.87800  1.0000
  O   O11       1.0  0.68650  0.88400  0.62200  1.0000
  O   O12       1.0  0.81350  0.61600  0.12200  1.0000
  O   O13       1.0  0.81350  0.38400  0.62200  1.0000
  O   O14       1.0  0.68650  0.11600  0.12200  1.0000
  O   O15       1.0  0.31350  0.11600  0.37800  1.0000
  O   O16       1.0  0.18650  0.38400  0.87800  1.0000
  O   O17       1.0  0.57060  0.16200  0.58590  1.0000
  O   O18       1.0  0.92940  0.33800  0.08590  1.0000
  O   O19       1.0  0.07060  0.33800  0.41410  1.0000
  O   O20       1.0  0.42940  0.16200  0.91410  1.0000
  O   O21       1.0  0.42940  0.83800  0.41410  1.0000
  O   O22       1.0  0.07060  0.66200  0.91410  1.0000
  O   O23       1.0  0.92940  0.66200  0.58590  1.0000
  O   O24       1.0  0.57060  0.83800  0.08590  1.0000
  O   O25       1.0  0.56500  0.01410  0.55390  1.0000
  O   O26       1.0  0.93500  0.48590  0.05390  1.0000
  O   O27       1.0  0.06500  0.48590  0.44610  1.0000
  O   O28       1.0  0.43500  0.01410  0.94610  1.0000
  O   O29       1.0  0.43500  0.98590  0.44610  1.0000
  O   O30       1.0  0.06500  0.51410  0.94610  1.0000
  O   O31       1.0  0.93500  0.51410  0.55390  1.0000
  O   O32       1.0  0.56500  0.98590  0.05390  1.0000
  O   O33       1.0  0.57730  0.01480  0.18740  1.0000
  O   O34       1.0  0.92270  0.48520  0.68740  1.0000
  O   O35       1.0  0.07730  0.48520  0.81260  1.0000
  O   O36       1.0  0.42270  0.01480  0.31260  1.0000
  O   O37       1.0  0.42270  0.98520  0.81260  1.0000
  O   O38       1.0  0.07730  0.51480  0.31260  1.0000
  O   O39       1.0  0.92270  0.51480  0.18740  1.0000
  O   O40       1.0  0.57730  0.98520  0.68740  1.0000
  O   O41       1.0  0.58960  0.85380  0.15950  1.0000
  O   O42       1.0  0.91040  0.64620  0.65950  1.0000
  O   O43       1.0  0.08960  0.64620  0.84050  1.0000
  O   O44       1.0  0.41040  0.85380  0.34050  1.0000
  O   O45       1.0  0.41040  0.14620  0.84050  1.0000
  O   O46       1.0  0.08960  0.35380  0.34050  1.0000
  O   O47       1.0  0.91040  0.35380  0.15950  1.0000
  O   O48       1.0  0.58960  0.14620  0.65950  1.0000
  O   O49       1.0  0.98290  0.63120  0.38000  1.0000
  O   O50       1.0  0.51710  0.86880  0.88000  1.0000
  O   O51       1.0  0.48290  0.86880  0.62000  1.0000
  O   O52       1.0  0.01710  0.63120  0.12000  1.0000
  O   O53       1.0  0.01710  0.36880  0.62000  1.0000
  O   O54       1.0  0.48290  0.13120  0.12000  1.0000
  O   O55       1.0  0.51710  0.13120  0.38000  1.0000
  O   O56       1.0  0.98290  0.36880  0.88000  1.0000
  O   O57       1.0  0.97830  0.45270  0.37220  1.0000
  O   O58       1.0  0.52170  0.04730  0.87220  1.0000
  O   O59       1.0  0.47830  0.04730  0.62780  1.0000
  O   O60       1.0  0.02170  0.45270  0.12780  1.0000
  O   O61       1.0  0.02170  0.54730  0.62780  1.0000
  O   O62       1.0  0.47830  0.95270  0.12780  1.0000
  O   O63       1.0  0.52170  0.95270  0.37220  1.0000
  O   O64       1.0  0.97830  0.54730  0.87220  1.0000
  C   C1        1.0  0.20600  0.52650  0.38120  1.0000
  C   C2        1.0  0.29400  0.97350  0.88120  1.0000
  C   C3        1.0  0.70600  0.97350  0.61880  1.0000
  C   C4        1.0  0.79400  0.52650  0.11880  1.0000
  C   C5        1.0  0.79400  0.47350  0.61880  1.0000
  C   C6        1.0  0.70600  0.02650  0.11880  1.0000
  C   C7        1.0  0.29400  0.02650  0.38120  1.0000
  C   C8        1.0  0.20600  0.47350  0.88120  1.0000
  C   C9        1.0  0.27230  0.51010  0.38440  1.0000
  C   C10       1.0  0.22770  0.98990  0.88440  1.0000
  C   C11       1.0  0.77230  0.98990  0.61560  1.0000
  C   C12       1.0  0.72770  0.51010  0.11560  1.0000
  C   C13       1.0  0.72770  0.48990  0.61560  1.0000
  C   C14       1.0  0.77230  0.01010  0.11560  1.0000
  C   C15       1.0  0.22770  0.01010  0.38440  1.0000
  C   C16       1.0  0.27230  0.48990  0.88440  1.0000
  C   C17       1.0  0.30760  0.60850  0.38290  1.0000
  C   C18       1.0  0.19240  0.89150  0.88290  1.0000
  C   C19       1.0  0.80760  0.89150  0.61710  1.0000
  C   C20       1.0  0.69240  0.60850  0.11710  1.0000
  C   C21       1.0  0.69240  0.39150  0.61710  1.0000
  C   C22       1.0  0.80760  0.10850  0.11710  1.0000
  C   C23       1.0  0.19240  0.10850  0.38290  1.0000
  C   C24       1.0  0.30760  0.39150  0.88290  1.0000
  H   H1        1.0  0.29052  0.67960  0.37936  1.0000
  H   H2        1.0  0.20948  0.82040  0.87936  1.0000
  H   H3        1.0  0.79052  0.82040  0.62064  1.0000
  H   H4        1.0  0.70948  0.67960  0.12064  1.0000
  H   H5        1.0  0.70948  0.32040  0.62064  1.0000
  H   H6        1.0  0.79052  0.17960  0.12064  1.0000
  H   H7        1.0  0.20948  0.17960  0.37936  1.0000
  H   H8        1.0  0.29052  0.32040  0.87936  1.0000
  C   C25       1.0  0.36780  0.60010  0.38650  1.0000
  C   C26       1.0  0.13220  0.89990  0.88650  1.0000
  C   C27       1.0  0.86780  0.89990  0.61350  1.0000
  C   C28       1.0  0.63220  0.60010  0.11350  1.0000
  C   C29       1.0  0.63220  0.39990  0.61350  1.0000
  C   C30       1.0  0.86780  0.10010  0.11350  1.0000
  C   C31       1.0  0.13220  0.10010  0.38650  1.0000
  C   C32       1.0  0.36780  0.39990  0.88650  1.0000
  H   H9        1.0  0.39116  0.66516  0.38673  1.0000
  H   H10       1.0  0.10884  0.83484  0.88673  1.0000
  H   H11       1.0  0.89116  0.83484  0.61327  1.0000
  H   H12       1.0  0.60884  0.66516  0.11327  1.0000
  H   H13       1.0  0.60884  0.33484  0.61327  1.0000
  H   H14       1.0  0.89116  0.16516  0.11327  1.0000
  H   H15       1.0  0.10884  0.16516  0.38673  1.0000
  H   H16       1.0  0.39116  0.33484  0.88673  1.0000
  C   C33       1.0  0.39160  0.49460  0.38970  1.0000
  C   C34       1.0  0.10840  0.00540  0.88970  1.0000
  C   C35       1.0  0.89160  0.00540  0.61030  1.0000
  C   C36       1.0  0.60840  0.49460  0.11030  1.0000
  C   C37       1.0  0.60840  0.50540  0.61030  1.0000
  C   C38       1.0  0.89160  0.99460  0.11030  1.0000
  C   C39       1.0  0.10840  0.99460  0.38970  1.0000
  C   C40       1.0  0.39160  0.50540  0.88970  1.0000
  C   C41       1.0  0.35510  0.40000  0.39230  1.0000
  C   C42       1.0  0.14490  0.10000  0.89230  1.0000
  C   C43       1.0  0.85510  0.10000  0.60770  1.0000
  C   C44       1.0  0.64490  0.40000  0.10770  1.0000
  C   C45       1.0  0.64490  0.60000  0.60770  1.0000
  C   C46       1.0  0.85510  0.90000  0.10770  1.0000
  C   C47       1.0  0.14490  0.90000  0.39230  1.0000
  C   C48       1.0  0.35510  0.60000  0.89230  1.0000
  H   H17       1.0  0.37196  0.32843  0.39524  1.0000
  H   H18       1.0  0.12804  0.17157  0.89524  1.0000
  H   H19       1.0  0.87196  0.17157  0.60476  1.0000
  H   H20       1.0  0.62804  0.32843  0.10476  1.0000
  H   H21       1.0  0.62804  0.67157  0.60476  1.0000
  H   H22       1.0  0.87196  0.82843  0.10476  1.0000
  H   H23       1.0  0.12804  0.82843  0.39524  1.0000
  H   H24       1.0  0.37196  0.67157  0.89524  1.0000
  C   C49       1.0  0.29490  0.40740  0.39060  1.0000
  C   C50       1.0  0.20510  0.09260  0.89060  1.0000
  C   C51       1.0  0.79490  0.09260  0.60940  1.0000
  C   C52       1.0  0.70510  0.40740  0.10940  1.0000
  C   C53       1.0  0.70510  0.59260  0.60940  1.0000
  C   C54       1.0  0.79490  0.90740  0.10940  1.0000
  C   C55       1.0  0.20510  0.90740  0.39060  1.0000
  C   C56       1.0  0.29490  0.59260  0.89060  1.0000
  H   H25       1.0  0.27127  0.34352  0.39377  1.0000
  H   H26       1.0  0.22873  0.15648  0.89377  1.0000
  H   H27       1.0  0.77127  0.15648  0.60623  1.0000
  H   H28       1.0  0.72873  0.34352  0.10623  1.0000
  H   H29       1.0  0.72873  0.65648  0.60623  1.0000
  H   H30       1.0  0.77127  0.84352  0.10623  1.0000
  H   H31       1.0  0.22873  0.84352  0.39377  1.0000
  H   H32       1.0  0.27127  0.65648  0.89377  1.0000
  C   C57       1.0  0.56490  0.11490  0.55630  1.0000
  C   C58       1.0  0.93510  0.38510  0.05630  1.0000
  C   C59       1.0  0.06490  0.38510  0.44370  1.0000
  C   C60       1.0  0.43510  0.11490  0.94370  1.0000
  C   C61       1.0  0.43510  0.88510  0.44370  1.0000
  C   C62       1.0  0.06490  0.61490  0.94370  1.0000
  C   C63       1.0  0.93510  0.61490  0.55630  1.0000
  C   C64       1.0  0.56490  0.88510  0.05630  1.0000
  C   C65       1.0  0.55810  0.19290  0.52640  1.0000
  C   C66       1.0  0.94190  0.30710  0.02640  1.0000
  C   C67       1.0  0.05810  0.30710  0.47360  1.0000
  C   C68       1.0  0.44190  0.19290  0.97360  1.0000
  C   C69       1.0  0.44190  0.80710  0.47360  1.0000
  C   C70       1.0  0.05810  0.69290  0.97360  1.0000
  C   C71       1.0  0.94190  0.69290  0.52640  1.0000
  C   C72       1.0  0.55810  0.80710  0.02640  1.0000
  C   C73       1.0  0.56380  0.30650  0.52810  1.0000
  C   C74       1.0  0.93620  0.19350  0.02810  1.0000
  C   C75       1.0  0.06380  0.19350  0.47190  1.0000
  C   C76       1.0  0.43620  0.30650  0.97190  1.0000
  C   C77       1.0  0.43620  0.69350  0.47190  1.0000
  C   C78       1.0  0.06380  0.80650  0.97190  1.0000
  C   C79       1.0  0.93620  0.80650  0.52810  1.0000
  C   C80       1.0  0.56380  0.69350  0.02810  1.0000
  H   H33       1.0  0.57124  0.34056  0.54938  1.0000
  H   H34       1.0  0.92876  0.15944  0.04938  1.0000
  H   H35       1.0  0.07124  0.15944  0.45062  1.0000
  H   H36       1.0  0.42876  0.34056  0.95062  1.0000
  H   H37       1.0  0.42876  0.65944  0.45062  1.0000
  H   H38       1.0  0.07124  0.84056  0.95062  1.0000
  H   H39       1.0  0.92876  0.84056  0.54938  1.0000
  H   H40       1.0  0.57124  0.65944  0.04938  1.0000
  C   C81       1.0  0.55890  0.37620  0.49840  1.0000
  C   C82       1.0  0.94110  0.12380  0.99840  1.0000
  C   C83       1.0  0.05890  0.12380  0.50160  1.0000
  C   C84       1.0  0.44110  0.37620  0.00160  1.0000
  C   C85       1.0  0.44110  0.62380  0.50160  1.0000
  C   C86       1.0  0.05890  0.87620  0.00160  1.0000
  C   C87       1.0  0.94110  0.87620  0.49840  1.0000
  C   C88       1.0  0.55890  0.62380  0.99840  1.0000
  H   H41       1.0  0.56736  0.45384  0.49968  1.0000
  H   H42       1.0  0.93264  0.04616  0.99968  1.0000
  H   H43       1.0  0.06736  0.04616  0.50032  1.0000
  H   H44       1.0  0.43264  0.45384  0.00032  1.0000
  H   H45       1.0  0.43264  0.54616  0.50032  1.0000
  H   H46       1.0  0.06736  0.95384  0.00032  1.0000
  H   H47       1.0  0.93264  0.95384  0.49968  1.0000
  H   H48       1.0  0.56736  0.54616  0.99968  1.0000
  C   C89       1.0  0.54170  0.32830  0.46780  1.0000
  C   C90       1.0  0.95830  0.17170  0.96780  1.0000
  C   C91       1.0  0.04170  0.17170  0.53220  1.0000
  C   C92       1.0  0.45830  0.32830  0.03220  1.0000
  C   C93       1.0  0.45830  0.67170  0.53220  1.0000
  C   C94       1.0  0.04170  0.82830  0.03220  1.0000
  C   C95       1.0  0.95830  0.82830  0.46780  1.0000
  C   C96       1.0  0.54170  0.67170  0.96780  1.0000
  C   C97       1.0  0.53240  0.21790  0.46600  1.0000
  C   C98       1.0  0.96760  0.28210  0.96600  1.0000
  C   C99       1.0  0.03240  0.28210  0.53400  1.0000
  C   C100      1.0  0.46760  0.21790  0.03400  1.0000
  C   C101      1.0  0.46760  0.78210  0.53400  1.0000
  C   C102      1.0  0.03240  0.71790  0.03400  1.0000
  C   C103      1.0  0.96760  0.71790  0.46600  1.0000
  C   C104      1.0  0.53240  0.78210  0.96600  1.0000
  H   H49       1.0  0.52417  0.18473  0.44479  1.0000
  H   H50       1.0  0.97583  0.31527  0.94479  1.0000
  H   H51       1.0  0.02417  0.31527  0.55521  1.0000
  H   H52       1.0  0.47583  0.18473  0.05521  1.0000
  H   H53       1.0  0.47583  0.81527  0.55521  1.0000
  H   H54       1.0  0.02417  0.68473  0.05521  1.0000
  H   H55       1.0  0.97583  0.68473  0.44479  1.0000
  H   H56       1.0  0.52417  0.81527  0.94479  1.0000
  C   C105      1.0  0.53450  0.15200  0.49410  1.0000
  C   C106      1.0  0.96550  0.34800  0.99410  1.0000
  C   C107      1.0  0.03450  0.34800  0.50590  1.0000
  C   C108      1.0  0.46550  0.15200  0.00590  1.0000
  C   C109      1.0  0.46550  0.84800  0.50590  1.0000
  C   C110      1.0  0.03450  0.65200  0.00590  1.0000
  C   C111      1.0  0.96550  0.65200  0.49410  1.0000
  C   C112      1.0  0.53450  0.84800  0.99410  1.0000
  H   H57       1.0  0.52036  0.07796  0.49279  1.0000
  H   H58       1.0  0.97964  0.42204  0.99279  1.0000
  H   H59       1.0  0.02036  0.42204  0.50721  1.0000
  H   H60       1.0  0.47964  0.07796  0.00721  1.0000
  H   H61       1.0  0.47964  0.92204  0.50721  1.0000
  H   H62       1.0  0.02036  0.57796  0.00721  1.0000
  H   H63       1.0  0.97964  0.57796  0.49279  1.0000
  H   H64       1.0  0.52036  0.92204  0.99279  1.0000
  C   C113      1.0  0.58760  0.91870  0.18740  1.0000
  C   C114      1.0  0.91240  0.58130  0.68740  1.0000
  C   C115      1.0  0.08760  0.58130  0.81260  1.0000
  C   C116      1.0  0.41240  0.91870  0.31260  1.0000
  C   C117      1.0  0.41240  0.08130  0.81260  1.0000
  C   C118      1.0  0.08760  0.41870  0.31260  1.0000
  C   C119      1.0  0.91240  0.41870  0.18740  1.0000
  C   C120      1.0  0.58760  0.08130  0.68740  1.0000
  C   C121      1.0  0.59230  0.84310  0.21970  1.0000
  C   C122      1.0  0.90770  0.65690  0.71970  1.0000
  C   C123      1.0  0.09230  0.65690  0.78030  1.0000
  C   C124      1.0  0.40770  0.84310  0.28030  1.0000
  C   C125      1.0  0.40770  0.15690  0.78030  1.0000
  C   C126      1.0  0.09230  0.34310  0.28030  1.0000
  C   C127      1.0  0.90770  0.34310  0.21970  1.0000
  C   C128      1.0  0.59230  0.15690  0.71970  1.0000
  C   C129      1.0  0.57810  0.89420  0.25090  1.0000
  C   C130      1.0  0.92190  0.60580  0.75090  1.0000
  C   C131      1.0  0.07810  0.60580  0.74910  1.0000
  C   C132      1.0  0.42190  0.89420  0.24910  1.0000
  C   C133      1.0  0.42190  0.10580  0.74910  1.0000
  C   C134      1.0  0.07810  0.39420  0.24910  1.0000
  C   C135      1.0  0.92190  0.39420  0.25090  1.0000
  C   C136      1.0  0.57810  0.10580  0.75090  1.0000
  H   H65       1.0  0.56025  0.96558  0.25125  1.0000
  H   H66       1.0  0.93975  0.53442  0.75125  1.0000
  H   H67       1.0  0.06025  0.53442  0.74875  1.0000
  H   H68       1.0  0.43975  0.96558  0.24875  1.0000
  H   H69       1.0  0.43975  0.03442  0.74875  1.0000
  H   H70       1.0  0.06025  0.46558  0.24875  1.0000
  H   H71       1.0  0.93975  0.46558  0.25125  1.0000
  H   H72       1.0  0.56025  0.03442  0.75125  1.0000
  C   C137      1.0  0.59060  0.83860  0.28180  1.0000
  C   C138      1.0  0.90940  0.66140  0.78180  1.0000
  C   C139      1.0  0.09060  0.66140  0.71820  1.0000
  C   C140      1.0  0.40940  0.83860  0.21820  1.0000
  C   C141      1.0  0.40940  0.16140  0.71820  1.0000
  C   C142      1.0  0.09060  0.33860  0.21820  1.0000
  C   C143      1.0  0.90940  0.33860  0.28180  1.0000
  C   C144      1.0  0.59060  0.16140  0.78180  1.0000
  H   H73       1.0  0.58116  0.87280  0.30267  1.0000
  H   H74       1.0  0.91884  0.62720  0.80267  1.0000
  H   H75       1.0  0.08116  0.62720  0.69733  1.0000
  H   H76       1.0  0.41884  0.87280  0.19733  1.0000
  H   H77       1.0  0.41884  0.12720  0.69733  1.0000
  H   H78       1.0  0.08116  0.37280  0.19733  1.0000
  H   H79       1.0  0.91884  0.37280  0.30267  1.0000
  H   H80       1.0  0.58116  0.12720  0.80267  1.0000
  C   C145      1.0  0.61730  0.73190  0.28130  1.0000
  C   C146      1.0  0.88270  0.76810  0.78130  1.0000
  C   C147      1.0  0.11730  0.76810  0.71870  1.0000
  C   C148      1.0  0.38270  0.73190  0.21870  1.0000
  C   C149      1.0  0.38270  0.26810  0.71870  1.0000
  C   C150      1.0  0.11730  0.23190  0.21870  1.0000
  C   C151      1.0  0.88270  0.23190  0.28130  1.0000
  C   C152      1.0  0.61730  0.26810  0.78130  1.0000
  C   C153      1.0  0.63150  0.68080  0.25000  1.0000
  C   C154      1.0  0.86850  0.81920  0.75000  1.0000
  C   C155      1.0  0.13150  0.81920  0.75000  1.0000
  C   C156      1.0  0.36850  0.68080  0.25000  1.0000
  C   C157      1.0  0.36850  0.31920  0.75000  1.0000
  C   C158      1.0  0.13150  0.18080  0.25000  1.0000
  C   C159      1.0  0.86850  0.18080  0.25000  1.0000
  C   C160      1.0  0.63150  0.31920  0.75000  1.0000
  H   H81       1.0  0.64930  0.60942  0.24971  1.0000
  H   H82       1.0  0.85070  0.89058  0.74971  1.0000
  H   H83       1.0  0.14930  0.89058  0.75029  1.0000
  H   H84       1.0  0.35070  0.60942  0.25029  1.0000
  H   H85       1.0  0.35070  0.39058  0.75029  1.0000
  H   H86       1.0  0.14930  0.10942  0.25029  1.0000
  H   H87       1.0  0.85070  0.10942  0.24971  1.0000
  H   H88       1.0  0.64930  0.39058  0.74971  1.0000
  C   C161      1.0  0.61890  0.73640  0.21920  1.0000
  C   C162      1.0  0.88110  0.76360  0.71920  1.0000
  C   C163      1.0  0.11890  0.76360  0.78080  1.0000
  C   C164      1.0  0.38110  0.73640  0.28080  1.0000
  C   C165      1.0  0.38110  0.26360  0.78080  1.0000
  C   C166      1.0  0.11890  0.23640  0.28080  1.0000
  C   C167      1.0  0.88110  0.23640  0.21920  1.0000
  C   C168      1.0  0.61890  0.26360  0.71920  1.0000
  H   H89       1.0  0.62840  0.70221  0.19828  1.0000
  H   H90       1.0  0.87160  0.79779  0.69828  1.0000
  H   H91       1.0  0.12840  0.79779  0.80172  1.0000
  H   H92       1.0  0.37160  0.70221  0.30172  1.0000
  H   H93       1.0  0.37160  0.29779  0.80172  1.0000
  H   H94       1.0  0.12840  0.20221  0.30172  1.0000
  H   H95       1.0  0.87160  0.20221  0.19828  1.0000
  H   H96       1.0  0.62840  0.29779  0.69828  1.0000
  C   C169      1.0  0.95860  0.54750  0.37360  1.0000
  C   C170      1.0  0.54140  0.95250  0.87360  1.0000
  C   C171      1.0  0.45860  0.95250  0.62640  1.0000
  C   C172      1.0  0.04140  0.54750  0.12640  1.0000
  C   C173      1.0  0.04140  0.45250  0.62640  1.0000
  C   C174      1.0  0.45860  0.04750  0.12640  1.0000
  C   C175      1.0  0.54140  0.04750  0.37360  1.0000
  C   C176      1.0  0.95860  0.45250  0.87360  1.0000
  C   C177      1.0  0.89100  0.55650  0.37020  1.0000
  C   C178      1.0  0.60900  0.94350  0.87020  1.0000
  C   C179      1.0  0.39100  0.94350  0.62980  1.0000
  C   C180      1.0  0.10900  0.55650  0.12980  1.0000
  C   C181      1.0  0.10900  0.44350  0.62980  1.0000
  C   C182      1.0  0.39100  0.05650  0.12980  1.0000
  C   C183      1.0  0.60900  0.05650  0.37020  1.0000
  C   C184      1.0  0.89100  0.44350  0.87020  1.0000
  C   C185      1.0  0.86490  0.66320  0.37340  1.0000
  C   C186      1.0  0.63510  0.83680  0.87340  1.0000
  C   C187      1.0  0.36490  0.83680  0.62660  1.0000
  C   C188      1.0  0.13510  0.66320  0.12660  1.0000
  C   C189      1.0  0.13510  0.33680  0.62660  1.0000
  C   C190      1.0  0.36490  0.16320  0.12660  1.0000
  C   C191      1.0  0.63510  0.16320  0.37340  1.0000
  C   C192      1.0  0.86490  0.33680  0.87340  1.0000
  H   H97       1.0  0.88744  0.72655  0.37918  1.0000
  H   H98       1.0  0.61256  0.77345  0.87918  1.0000
  H   H99       1.0  0.38744  0.77345  0.62082  1.0000
  H   H100      1.0  0.11256  0.72655  0.12082  1.0000
  H   H101      1.0  0.11256  0.27345  0.62082  1.0000
  H   H102      1.0  0.38744  0.22655  0.12082  1.0000
  H   H103      1.0  0.61256  0.22655  0.37918  1.0000
  H   H104      1.0  0.88744  0.27345  0.87918  1.0000
  C   C193      1.0  0.80510  0.67530  0.36800  1.0000
  C   C194      1.0  0.69490  0.82470  0.86800  1.0000
  C   C195      1.0  0.30510  0.82470  0.63200  1.0000
  C   C196      1.0  0.19490  0.67530  0.13200  1.0000
  C   C197      1.0  0.19490  0.32470  0.63200  1.0000
  C   C198      1.0  0.30510  0.17530  0.13200  1.0000
  C   C199      1.0  0.69490  0.17530  0.36800  1.0000
  C   C200      1.0  0.80510  0.32470  0.86800  1.0000
  H   H105      1.0  0.78770  0.74673  0.37019  1.0000
  H   H106      1.0  0.71230  0.75327  0.87019  1.0000
  H   H107      1.0  0.28770  0.75327  0.62981  1.0000
  H   H108      1.0  0.21230  0.74673  0.12981  1.0000
  H   H109      1.0  0.21230  0.25327  0.62981  1.0000
  H   H110      1.0  0.28770  0.24673  0.12981  1.0000
  H   H111      1.0  0.71230  0.24673  0.37019  1.0000
  H   H112      1.0  0.78770  0.25327  0.87019  1.0000
  C   C201      1.0  0.77150  0.58070  0.35940  1.0000
  C   C202      1.0  0.72850  0.91930  0.85940  1.0000
  C   C203      1.0  0.27150  0.91930  0.64060  1.0000
  C   C204      1.0  0.22850  0.58070  0.14060  1.0000
  C   C205      1.0  0.22850  0.41930  0.64060  1.0000
  C   C206      1.0  0.27150  0.08070  0.14060  1.0000
  C   C207      1.0  0.72850  0.08070  0.35940  1.0000
  C   C208      1.0  0.77150  0.41930  0.85940  1.0000
  C   C209      1.0  0.79750  0.47400  0.35620  1.0000
  C   C210      1.0  0.70250  0.02600  0.85620  1.0000
  C   C211      1.0  0.29750  0.02600  0.64380  1.0000
  C   C212      1.0  0.20250  0.47400  0.14380  1.0000
  C   C213      1.0  0.20250  0.52600  0.64380  1.0000
  C   C214      1.0  0.29750  0.97400  0.14380  1.0000
  C   C215      1.0  0.70250  0.97400  0.35620  1.0000
  C   C216      1.0  0.79750  0.52600  0.85620  1.0000
  H   H113      1.0  0.77502  0.41063  0.35039  1.0000
  H   H114      1.0  0.72498  0.08937  0.85039  1.0000
  H   H115      1.0  0.27502  0.08937  0.64961  1.0000
  H   H116      1.0  0.22498  0.41063  0.14961  1.0000
  H   H117      1.0  0.22498  0.58937  0.64961  1.0000
  H   H118      1.0  0.27502  0.91063  0.14961  1.0000
  H   H119      1.0  0.72498  0.91063  0.35039  1.0000
  H   H120      1.0  0.77502  0.58937  0.85039  1.0000
  C   C217      1.0  0.85730  0.46190  0.36160  1.0000
  C   C218      1.0  0.64270  0.03810  0.86160  1.0000
  C   C219      1.0  0.35730  0.03810  0.63840  1.0000
  C   C220      1.0  0.14270  0.46190  0.13840  1.0000
  C   C221      1.0  0.14270  0.53810  0.63840  1.0000
  C   C222      1.0  0.35730  0.96190  0.13840  1.0000
  C   C223      1.0  0.64270  0.96190  0.36160  1.0000
  C   C224      1.0  0.85730  0.53810  0.86160  1.0000
  H   H121      1.0  0.87475  0.39044  0.35939  1.0000
  H   H122      1.0  0.62525  0.10956  0.85939  1.0000
  H   H123      1.0  0.37475  0.10956  0.64061  1.0000
  H   H124      1.0  0.12525  0.39044  0.14061  1.0000
  H   H125      1.0  0.12525  0.60956  0.64061  1.0000
  H   H126      1.0  0.37475  0.89044  0.14061  1.0000
  H   H127      1.0  0.62525  0.89044  0.35939  1.0000
  H   H128      1.0  0.87475  0.60956  0.85939  1.0000
  C   C225      1.0  0.70640  0.59260  0.35160  1.0000
  C   C226      1.0  0.79360  0.90740  0.85160  1.0000
  C   C227      1.0  0.20640  0.90740  0.64840  1.0000
  C   C228      1.0  0.29360  0.59260  0.14840  1.0000
  C   C229      1.0  0.29360  0.40740  0.64840  1.0000
  C   C230      1.0  0.20640  0.09260  0.14840  1.0000
  C   C231      1.0  0.79360  0.09260  0.35160  1.0000
  C   C232      1.0  0.70640  0.40740  0.85160  1.0000
  C   C233      1.0  0.69050  0.66120  0.32450  1.0000
  C   C234      1.0  0.80950  0.83880  0.82450  1.0000
  C   C235      1.0  0.19050  0.83880  0.67550  1.0000
  C   C236      1.0  0.30950  0.66120  0.17550  1.0000
  C   C237      1.0  0.30950  0.33880  0.67550  1.0000
  C   C238      1.0  0.19050  0.16120  0.17550  1.0000
  C   C239      1.0  0.80950  0.16120  0.32450  1.0000
  C   C240      1.0  0.69050  0.33880  0.82450  1.0000
  H   H129      1.0  0.71910  0.70030  0.31220  1.0000
  H   H130      1.0  0.78090  0.79970  0.81220  1.0000
  H   H131      1.0  0.21910  0.79970  0.68780  1.0000
  H   H132      1.0  0.28090  0.70030  0.18780  1.0000
  H   H133      1.0  0.28090  0.29970  0.68780  1.0000
  H   H134      1.0  0.21910  0.20030  0.18780  1.0000
  H   H135      1.0  0.78090  0.20030  0.31220  1.0000
  H   H136      1.0  0.71910  0.29970  0.81220  1.0000
  C   C241      1.0  0.63370  0.67290  0.31540  1.0000
  C   C242      1.0  0.86630  0.82710  0.81540  1.0000
  C   C243      1.0  0.13370  0.82710  0.68460  1.0000
  C   C244      1.0  0.36630  0.67290  0.18460  1.0000
  C   C245      1.0  0.36630  0.32710  0.68460  1.0000
  C   C246      1.0  0.13370  0.17290  0.18460  1.0000
  C   C247      1.0  0.86630  0.17290  0.31540  1.0000
  C   C248      1.0  0.63370  0.32710  0.81540  1.0000
  C   C249      1.0  0.58920  0.62400  0.33540  1.0000
  C   C250      1.0  0.91080  0.87600  0.83540  1.0000
  C   C251      1.0  0.08920  0.87600  0.66460  1.0000
  C   C252      1.0  0.41080  0.62400  0.16460  1.0000
  C   C253      1.0  0.41080  0.37600  0.66460  1.0000
  C   C254      1.0  0.08920  0.12400  0.16460  1.0000
  C   C255      1.0  0.91080  0.12400  0.33540  1.0000
  C   C256      1.0  0.58920  0.37600  0.83540  1.0000
  C   C257      1.0  0.52930  0.63470  0.32580  1.0000
  C   C258      1.0  0.97070  0.86530  0.82580  1.0000
  C   C259      1.0  0.02930  0.86530  0.67420  1.0000
  C   C260      1.0  0.47070  0.63470  0.17420  1.0000
  C   C261      1.0  0.47070  0.36530  0.67420  1.0000
  C   C262      1.0  0.02930  0.13470  0.17420  1.0000
  C   C263      1.0  0.97070  0.13470  0.32580  1.0000
  C   C264      1.0  0.52930  0.36530  0.82580  1.0000
  H   H137      1.0  0.51929  0.67280  0.30555  1.0000
  H   H138      1.0  0.98071  0.82720  0.80555  1.0000
  H   H139      1.0  0.01929  0.82720  0.69445  1.0000
  H   H140      1.0  0.48071  0.67280  0.19445  1.0000
  H   H141      1.0  0.48071  0.32720  0.69445  1.0000
  H   H142      1.0  0.01929  0.17280  0.19445  1.0000
  H   H143      1.0  0.98071  0.17280  0.30555  1.0000
  H   H144      1.0  0.51929  0.32720  0.80555  1.0000
  C   C265      1.0  0.48630  0.58870  0.34630  1.0000
  C   C266      1.0  0.01370  0.91130  0.84630  1.0000
  C   C267      1.0  0.98630  0.91130  0.65370  1.0000
  C   C268      1.0  0.51370  0.58870  0.15370  1.0000
  C   C269      1.0  0.51370  0.41130  0.65370  1.0000
  C   C270      1.0  0.98630  0.08870  0.15370  1.0000
  C   C271      1.0  0.01370  0.08870  0.34630  1.0000
  C   C272      1.0  0.48630  0.41130  0.84630  1.0000
  H   H145      1.0  0.44714  0.59790  0.34041  1.0000
  H   H146      1.0  0.05286  0.90210  0.84041  1.0000
  H   H147      1.0  0.94714  0.90210  0.65959  1.0000
  H   H148      1.0  0.55286  0.59790  0.15959  1.0000
  H   H149      1.0  0.55286  0.40210  0.65959  1.0000
  H   H150      1.0  0.94714  0.09790  0.15959  1.0000
  H   H151      1.0  0.05286  0.09790  0.34041  1.0000
  H   H152      1.0  0.44714  0.40210  0.84041  1.0000
  C   C273      1.0  0.50210  0.52600  0.37710  1.0000
  C   C274      1.0  0.99790  0.97400  0.87710  1.0000
  C   C275      1.0  0.00210  0.97400  0.62290  1.0000
  C   C276      1.0  0.49790  0.52600  0.12290  1.0000
  C   C277      1.0  0.49790  0.47400  0.62290  1.0000
  C   C278      1.0  0.00210  0.02600  0.12290  1.0000
  C   C279      1.0  0.99790  0.02600  0.37710  1.0000
  C   C280      1.0  0.50210  0.47400  0.87710  1.0000
  C   C281      1.0  0.45630  0.48240  0.39960  1.0000
  C   C282      1.0  0.04370  0.01760  0.89960  1.0000
  C   C283      1.0  0.95630  0.01760  0.60040  1.0000
  C   C284      1.0  0.54370  0.48240  0.10040  1.0000
  C   C285      1.0  0.54370  0.51760  0.60040  1.0000
  C   C286      1.0  0.95630  0.98240  0.10040  1.0000
  C   C287      1.0  0.04370  0.98240  0.39960  1.0000
  C   C288      1.0  0.45630  0.51760  0.89960  1.0000
  C   C289      1.0  0.47350  0.41670  0.42730  1.0000
  C   C290      1.0  0.02650  0.08330  0.92730  1.0000
  C   C291      1.0  0.97350  0.08330  0.57270  1.0000
  C   C292      1.0  0.52650  0.41670  0.07270  1.0000
  C   C293      1.0  0.52650  0.58330  0.57270  1.0000
  C   C294      1.0  0.97350  0.91670  0.07270  1.0000
  C   C295      1.0  0.02650  0.91670  0.42730  1.0000
  C   C296      1.0  0.47350  0.58330  0.92730  1.0000
  H   H153      1.0  0.44468  0.38171  0.44048  1.0000
  H   H154      1.0  0.05532  0.11829  0.94048  1.0000
  H   H155      1.0  0.94468  0.11829  0.55952  1.0000
  H   H156      1.0  0.55532  0.38171  0.05952  1.0000
  H   H157      1.0  0.55532  0.61829  0.55952  1.0000
  H   H158      1.0  0.94468  0.88171  0.05952  1.0000
  H   H159      1.0  0.05532  0.88171  0.44048  1.0000
  H   H160      1.0  0.44468  0.61829  0.94048  1.0000
  C   C297      1.0  0.53010  0.40040  0.43630  1.0000
  C   C298      1.0  0.96990  0.09960  0.93630  1.0000
  C   C299      1.0  0.03010  0.09960  0.56370  1.0000
  C   C300      1.0  0.46990  0.40040  0.06370  1.0000
  C   C301      1.0  0.46990  0.59960  0.56370  1.0000
  C   C302      1.0  0.03010  0.90040  0.06370  1.0000
  C   C303      1.0  0.96990  0.90040  0.43630  1.0000
  C   C304      1.0  0.53010  0.59960  0.93630  1.0000
  C   C305      1.0  0.57670  0.44960  0.41610  1.0000
  C   C306      1.0  0.92330  0.05040  0.91610  1.0000
  C   C307      1.0  0.07670  0.05040  0.58390  1.0000
  C   C308      1.0  0.42330  0.44960  0.08390  1.0000
  C   C309      1.0  0.42330  0.55040  0.58390  1.0000
  C   C310      1.0  0.07670  0.94960  0.08390  1.0000
  C   C311      1.0  0.92330  0.94960  0.41610  1.0000
  C   C312      1.0  0.57670  0.55040  0.91610  1.0000
  C   C313      1.0  0.63530  0.43340  0.42430  1.0000
  C   C314      1.0  0.86470  0.06660  0.92430  1.0000
  C   C315      1.0  0.13530  0.06660  0.57570  1.0000
  C   C316      1.0  0.36470  0.43340  0.07570  1.0000
  C   C317      1.0  0.36470  0.56660  0.57570  1.0000
  C   C318      1.0  0.13530  0.93340  0.07570  1.0000
  C   C319      1.0  0.86470  0.93340  0.42430  1.0000
  C   C320      1.0  0.63530  0.56660  0.92430  1.0000
  H   H161      1.0  0.64558  0.39131  0.44368  1.0000
  H   H162      1.0  0.85442  0.10869  0.94368  1.0000
  H   H163      1.0  0.14558  0.10869  0.55632  1.0000
  H   H164      1.0  0.35442  0.39131  0.05632  1.0000
  H   H165      1.0  0.35442  0.60869  0.55632  1.0000
  H   H166      1.0  0.14558  0.89131  0.05632  1.0000
  H   H167      1.0  0.85442  0.89131  0.44368  1.0000
  H   H168      1.0  0.64558  0.60869  0.94368  1.0000
  C   C321      1.0  0.67860  0.48030  0.40340  1.0000
  C   C322      1.0  0.82140  0.01970  0.90340  1.0000
  C   C323      1.0  0.17860  0.01970  0.59660  1.0000
  C   C324      1.0  0.32140  0.48030  0.09660  1.0000
  C   C325      1.0  0.32140  0.51970  0.59660  1.0000
  C   C326      1.0  0.17860  0.98030  0.09660  1.0000
  C   C327      1.0  0.82140  0.98030  0.40340  1.0000
  C   C328      1.0  0.67860  0.51970  0.90340  1.0000
  H   H169      1.0  0.71778  0.46947  0.40890  1.0000
  H   H170      1.0  0.78222  0.03053  0.90890  1.0000
  H   H171      1.0  0.21778  0.03053  0.59110  1.0000
  H   H172      1.0  0.28222  0.46947  0.09110  1.0000
  H   H173      1.0  0.28222  0.53053  0.59110  1.0000
  H   H174      1.0  0.21778  0.96947  0.09110  1.0000
  H   H175      1.0  0.78222  0.96947  0.40890  1.0000
  H   H176      1.0  0.71778  0.53053  0.90890  1.0000
  C   C329      1.0  0.66330  0.54320  0.37440  1.0000
  C   C330      1.0  0.83670  0.95680  0.87440  1.0000
  C   C331      1.0  0.16330  0.95680  0.62560  1.0000
  C   C332      1.0  0.33670  0.54320  0.12560  1.0000
  C   C333      1.0  0.33670  0.45680  0.62560  1.0000
  C   C334      1.0  0.16330  0.04320  0.12560  1.0000
  C   C335      1.0  0.83670  0.04320  0.37440  1.0000
  C   C336      1.0  0.66330  0.45680  0.87440  1.0000
  C   C337      1.0  0.60470  0.55930  0.36620  1.0000
  C   C338      1.0  0.89530  0.94070  0.86620  1.0000
  C   C339      1.0  0.10470  0.94070  0.63380  1.0000
  C   C340      1.0  0.39530  0.55930  0.13380  1.0000
  C   C341      1.0  0.39530  0.44070  0.63380  1.0000
  C   C342      1.0  0.10470  0.05930  0.13380  1.0000
  C   C343      1.0  0.89530  0.05930  0.36620  1.0000
  C   C344      1.0  0.60470  0.44070  0.86620  1.0000
  C   C345      1.0  0.56140  0.51250  0.38700  1.0000
  C   C346      1.0  0.93860  0.98750  0.88700  1.0000
  C   C347      1.0  0.06140  0.98750  0.61300  1.0000
  C   C348      1.0  0.43860  0.51250  0.11300  1.0000
  C   C349      1.0  0.43860  0.48750  0.61300  1.0000
  C   C350      1.0  0.06140  0.01250  0.11300  1.0000
  C   C351      1.0  0.93860  0.01250  0.38700  1.0000
  C   C352      1.0  0.56140  0.48750  0.88700  1.0000
