data_image0
_chemical_formula_structural       Pb6S6Cl6O6C6O6C6O6C6H6C6H6O6C12
_chemical_formula_sum              "Pb6 S6 Cl6 O24 C36 H12"
_cell_length_a       10.0345
_cell_length_b       10.0345
_cell_length_c       21.669
_cell_angle_alpha    90
_cell_angle_beta     90
_cell_angle_gamma    120

_space_group_name_H-M_alt    "P 1"
_space_group_IT_number       1

loop_
  _space_group_symop_operation_xyz
  'x, y, z'

loop_
  _atom_site_type_symbol
  _atom_site_label
  _atom_site_symmetry_multiplicity
  _atom_site_fract_x
  _atom_site_fract_y
  _atom_site_fract_z
  _atom_site_occupancy
  Pb  Pb1       1.0  0.06593  0.16577  0.59994  1.0000
  Pb  Pb2       1.0  0.83423  0.90016  0.93327  1.0000
  Pb  Pb3       1.0  0.09984  0.93407  0.26661  1.0000
  Pb  Pb4       1.0  0.93407  0.83423  0.09994  1.0000
  Pb  Pb5       1.0  0.16577  0.09984  0.43327  1.0000
  Pb  Pb6       1.0  0.90016  0.06593  0.76661  1.0000
  S   S1        1.0  0.57770  0.08440  0.43433  1.0000
  S   S2        1.0  0.91560  0.49330  0.76766  1.0000
  S   S3        1.0  0.50670  0.42230  0.10100  1.0000
  S   S4        1.0  0.42230  0.91560  0.93433  1.0000
  S   S5        1.0  0.08440  0.50670  0.26766  1.0000
  S   S6        1.0  0.49330  0.57770  0.60100  1.0000
  Cl  Cl1       1.0  0.22770  0.20140  0.71522  1.0000
  Cl  Cl2       1.0  0.79860  0.02630  0.04855  1.0000
  Cl  Cl3       1.0  0.97370  0.77230  0.38189  1.0000
  Cl  Cl4       1.0  0.77230  0.79860  0.21522  1.0000
  Cl  Cl5       1.0  0.20140  0.97370  0.54855  1.0000
  Cl  Cl6       1.0  0.02630  0.22770  0.88189  1.0000
  O   O1        1.0  0.79110  0.13120  0.54220  1.0000
  O   O2        1.0  0.86880  0.65990  0.87553  1.0000
  O   O3        1.0  0.34010  0.20890  0.20887  1.0000
  O   O4        1.0  0.20890  0.86880  0.04220  1.0000
  O   O5        1.0  0.13120  0.34010  0.37553  1.0000
  O   O6        1.0  0.65990  0.79110  0.70887  1.0000
  C   C1        1.0  0.82080  0.07870  0.49690  1.0000
  C   C2        1.0  0.92130  0.74210  0.83023  1.0000
  C   C3        1.0  0.25790  0.17920  0.16357  1.0000
  C   C4        1.0  0.17920  0.92130  0.99690  1.0000
  C   C5        1.0  0.07870  0.25790  0.33023  1.0000
  C   C6        1.0  0.74210  0.82080  0.66357  1.0000
  O   O7        1.0  0.93390  0.05990  0.49300  1.0000
  O   O8        1.0  0.94010  0.87400  0.82633  1.0000
  O   O9        1.0  0.12600  0.06610  0.15967  1.0000
  O   O10       1.0  0.06610  0.94010  0.99300  1.0000
  O   O11       1.0  0.05990  0.12600  0.32633  1.0000
  O   O12       1.0  0.87400  0.93390  0.65967  1.0000
  C   C7        1.0  0.71530  0.03090  0.44220  1.0000
  C   C8        1.0  0.96910  0.68440  0.77553  1.0000
  C   C9        1.0  0.31560  0.28470  0.10887  1.0000
  C   C10       1.0  0.28470  0.96910  0.94220  1.0000
  C   C11       1.0  0.03090  0.31560  0.27553  1.0000
  C   C12       1.0  0.68440  0.71530  0.60887  1.0000
  O   O13       1.0  0.33760  0.07190  0.34780  1.0000
  O   O14       1.0  0.92810  0.26570  0.68113  1.0000
  O   O15       1.0  0.73430  0.66240  0.01447  1.0000
  O   O16       1.0  0.66240  0.92810  0.84780  1.0000
  O   O17       1.0  0.07190  0.73430  0.18113  1.0000
  O   O18       1.0  0.26570  0.33760  0.51447  1.0000
  C   C13       1.0  0.71640  0.94960  0.39220  1.0000
  C   C14       1.0  0.05040  0.76680  0.72553  1.0000
  C   C15       1.0  0.23320  0.28360  0.05887  1.0000
  C   C16       1.0  0.28360  0.05040  0.89220  1.0000
  C   C17       1.0  0.94960  0.23320  0.22553  1.0000
  C   C18       1.0  0.76680  0.71640  0.55887  1.0000
  H   H1        1.0  0.78520  0.91370  0.38760  1.0000
  H   H2        1.0  0.08630  0.87150  0.72093  1.0000
  H   H3        1.0  0.12850  0.21480  0.05427  1.0000
  H   H4        1.0  0.21480  0.08630  0.88760  1.0000
  H   H5        1.0  0.91370  0.12850  0.22093  1.0000
  H   H6        1.0  0.87150  0.78520  0.55427  1.0000
  C   C19       1.0  0.60370  0.92520  0.34800  1.0000
  C   C20       1.0  0.07480  0.67850  0.68133  1.0000
  C   C21       1.0  0.32150  0.39630  0.01467  1.0000
  C   C22       1.0  0.39630  0.07480  0.84800  1.0000
  C   C23       1.0  0.92520  0.32150  0.18133  1.0000
  C   C24       1.0  0.67850  0.60370  0.51467  1.0000
  H   H7        1.0  0.58670  0.86710  0.31240  1.0000
  H   H8        1.0  0.13290  0.71960  0.64573  1.0000
  H   H9        1.0  0.28040  0.41330  0.97907  1.0000
  H   H10       1.0  0.41330  0.13290  0.81240  1.0000
  H   H11       1.0  0.86710  0.28040  0.14573  1.0000
  H   H12       1.0  0.71960  0.58670  0.47907  1.0000
  O   O19       1.0  0.34290  0.90660  0.28190  1.0000
  O   O20       1.0  0.09340  0.43630  0.61523  1.0000
  O   O21       1.0  0.56370  0.65710  0.94857  1.0000
  O   O22       1.0  0.65710  0.09340  0.78190  1.0000
  O   O23       1.0  0.90660  0.56370  0.11523  1.0000
  O   O24       1.0  0.43630  0.34290  0.44857  1.0000
  C   C25       1.0  0.52160  0.99600  0.36310  1.0000
  C   C26       1.0  0.00400  0.52560  0.69643  1.0000
  C   C27       1.0  0.47440  0.47840  0.02977  1.0000
  C   C28       1.0  0.47840  0.00400  0.86310  1.0000
  C   C29       1.0  0.99600  0.47440  0.19643  1.0000
  C   C30       1.0  0.52560  0.52160  0.52977  1.0000
  C   C31       1.0  0.39090  0.99160  0.32930  1.0000
  C   C32       1.0  0.00840  0.39930  0.66263  1.0000
  C   C33       1.0  0.60070  0.60910  0.99597  1.0000
  C   C34       1.0  0.60910  0.00840  0.82930  1.0000
  C   C35       1.0  0.99160  0.60070  0.16263  1.0000
  C   C36       1.0  0.39930  0.39090  0.49597  1.0000
