data_image0
_chemical_formula_structural       U8C16H16C16H16C20H16C8N24O64
_chemical_formula_sum              "U8 C60 H48 N24 O64"
_cell_length_a       13.0664
_cell_length_b       16.2641
_cell_length_c       15.5578
_cell_angle_alpha    90
_cell_angle_beta     90.874
_cell_angle_gamma    90

_space_group_name_H-M_alt    "P 1"
_space_group_IT_number       1

loop_
  _space_group_symop_operation_xyz
  'x, y, z'

loop_
  _atom_site_type_symbol
  _atom_site_label
  _atom_site_symmetry_multiplicity
  _atom_site_fract_x
  _atom_site_fract_y
  _atom_site_fract_z
  _atom_site_occupancy
  U   U1        1.0  0.71770  0.39398  0.08902  1.0000
  U   U2        1.0  0.28230  0.39398  0.41098  1.0000
  U   U3        1.0  0.21770  0.89398  0.08902  1.0000
  U   U4        1.0  0.78230  0.89398  0.41098  1.0000
  U   U5        1.0  0.28230  0.60602  0.91098  1.0000
  U   U6        1.0  0.71770  0.60602  0.58902  1.0000
  U   U7        1.0  0.78230  0.10602  0.91098  1.0000
  U   U8        1.0  0.21770  0.10602  0.58902  1.0000
  C   C1        1.0  0.95250  0.49410  0.12420  1.0000
  C   C2        1.0  0.04750  0.49410  0.37580  1.0000
  C   C3        1.0  0.45250  0.99410  0.12420  1.0000
  C   C4        1.0  0.54750  0.99410  0.37580  1.0000
  C   C5        1.0  0.04750  0.50590  0.87580  1.0000
  C   C6        1.0  0.95250  0.50590  0.62420  1.0000
  C   C7        1.0  0.54750  0.00590  0.87580  1.0000
  C   C8        1.0  0.45250  0.00590  0.62420  1.0000
  C   C9        1.0  0.04110  0.43610  0.10690  1.0000
  C   C10       1.0  0.95890  0.43610  0.39310  1.0000
  C   C11       1.0  0.54110  0.93610  0.10690  1.0000
  C   C12       1.0  0.45890  0.93610  0.39310  1.0000
  C   C13       1.0  0.95890  0.56390  0.89310  1.0000
  C   C14       1.0  0.04110  0.56390  0.60690  1.0000
  C   C15       1.0  0.45890  0.06390  0.89310  1.0000
  C   C16       1.0  0.54110  0.06390  0.60690  1.0000
  H   H1        1.0  0.07090  0.45140  0.05240  1.0000
  H   H2        1.0  0.92910  0.45140  0.44760  1.0000
  H   H3        1.0  0.57090  0.95140  0.05240  1.0000
  H   H4        1.0  0.42910  0.95140  0.44760  1.0000
  H   H5        1.0  0.92910  0.54860  0.94760  1.0000
  H   H6        1.0  0.07090  0.54860  0.55240  1.0000
  H   H7        1.0  0.42910  0.04860  0.94760  1.0000
  H   H8        1.0  0.57090  0.04860  0.55240  1.0000
  H   H9        1.0  0.09310  0.44470  0.15120  1.0000
  H   H10       1.0  0.90690  0.44470  0.34880  1.0000
  H   H11       1.0  0.59310  0.94470  0.15120  1.0000
  H   H12       1.0  0.40690  0.94470  0.34880  1.0000
  H   H13       1.0  0.90690  0.55530  0.84880  1.0000
  H   H14       1.0  0.09310  0.55530  0.65120  1.0000
  H   H15       1.0  0.40690  0.05530  0.84880  1.0000
  H   H16       1.0  0.59310  0.05530  0.65120  1.0000
  C   C17       1.0  0.90450  0.26850  0.00620  1.0000
  C   C18       1.0  0.09550  0.26850  0.49380  1.0000
  C   C19       1.0  0.40450  0.76850  0.00620  1.0000
  C   C20       1.0  0.59550  0.76850  0.49380  1.0000
  C   C21       1.0  0.09550  0.73150  0.99380  1.0000
  C   C22       1.0  0.90450  0.73150  0.50620  1.0000
  C   C23       1.0  0.59550  0.23150  0.99380  1.0000
  C   C24       1.0  0.40450  0.23150  0.50620  1.0000
  C   C25       1.0  0.00930  0.30450  0.02350  1.0000
  C   C26       1.0  0.99070  0.30450  0.47650  1.0000
  C   C27       1.0  0.50930  0.80450  0.02350  1.0000
  C   C28       1.0  0.49070  0.80450  0.47650  1.0000
  C   C29       1.0  0.99070  0.69550  0.97650  1.0000
  C   C30       1.0  0.00930  0.69550  0.52350  1.0000
  C   C31       1.0  0.49070  0.19550  0.97650  1.0000
  C   C32       1.0  0.50930  0.19550  0.52350  1.0000
  H   H17       1.0  0.05920  0.26030  0.02420  1.0000
  H   H18       1.0  0.94080  0.26030  0.47580  1.0000
  H   H19       1.0  0.55920  0.76030  0.02420  1.0000
  H   H20       1.0  0.44080  0.76030  0.47580  1.0000
  H   H21       1.0  0.94080  0.73970  0.97580  1.0000
  H   H22       1.0  0.05920  0.73970  0.52420  1.0000
  H   H23       1.0  0.44080  0.23970  0.97580  1.0000
  H   H24       1.0  0.55920  0.23970  0.52420  1.0000
  H   H25       1.0  0.02620  0.34130  0.97680  1.0000
  H   H26       1.0  0.97380  0.34130  0.52320  1.0000
  H   H27       1.0  0.52620  0.84130  0.97680  1.0000
  H   H28       1.0  0.47380  0.84130  0.52320  1.0000
  H   H29       1.0  0.97380  0.65870  0.02320  1.0000
  H   H30       1.0  0.02620  0.65870  0.47680  1.0000
  H   H31       1.0  0.47380  0.15870  0.02320  1.0000
  H   H32       1.0  0.52620  0.15870  0.47680  1.0000
  C   C33       1.0  0.00430  0.30830  0.17850  1.0000
  C   C34       1.0  0.99570  0.30830  0.32150  1.0000
  C   C35       1.0  0.50430  0.80830  0.17850  1.0000
  C   C36       1.0  0.49570  0.80830  0.32150  1.0000
  C   C37       1.0  0.99570  0.69170  0.82150  1.0000
  C   C38       1.0  0.00430  0.69170  0.67850  1.0000
  C   C39       1.0  0.49570  0.19170  0.82150  1.0000
  C   C40       1.0  0.50430  0.19170  0.67850  1.0000
  C   C41       1.0  0.00000  0.18890  0.25000  1.0000
  C   C42       1.0  0.50000  0.68890  0.25000  1.0000
  C   C43       1.0  0.00000  0.81110  0.75000  1.0000
  C   C44       1.0  0.50000  0.31110  0.75000  1.0000
  C   C45       1.0  0.97590  0.05780  0.17240  1.0000
  C   C46       1.0  0.02410  0.05780  0.32760  1.0000
  C   C47       1.0  0.47590  0.55780  0.17240  1.0000
  C   C48       1.0  0.52410  0.55780  0.32760  1.0000
  C   C49       1.0  0.02410  0.94220  0.82760  1.0000
  C   C50       1.0  0.97590  0.94220  0.67240  1.0000
  C   C51       1.0  0.52410  0.44220  0.82760  1.0000
  C   C52       1.0  0.47590  0.44220  0.67240  1.0000
  H   H33       1.0  0.95890  0.09600  0.12650  1.0000
  H   H34       1.0  0.04110  0.09600  0.37350  1.0000
  H   H35       1.0  0.45890  0.59600  0.12650  1.0000
  H   H36       1.0  0.54110  0.59600  0.37350  1.0000
  H   H37       1.0  0.04110  0.90400  0.87350  1.0000
  H   H38       1.0  0.95890  0.90400  0.62650  1.0000
  H   H39       1.0  0.54110  0.40400  0.87350  1.0000
  H   H40       1.0  0.45890  0.40400  0.62650  1.0000
  H   H41       1.0  0.91580  0.02430  0.18260  1.0000
  H   H42       1.0  0.08420  0.02430  0.31740  1.0000
  H   H43       1.0  0.41580  0.52430  0.18260  1.0000
  H   H44       1.0  0.58420  0.52430  0.31740  1.0000
  H   H45       1.0  0.08420  0.97570  0.81740  1.0000
  H   H46       1.0  0.91580  0.97570  0.68260  1.0000
  H   H47       1.0  0.58420  0.47570  0.81740  1.0000
  H   H48       1.0  0.41580  0.47570  0.68260  1.0000
  C   C53       1.0  0.06080  0.00300  0.14340  1.0000
  C   C54       1.0  0.93920  0.00300  0.35660  1.0000
  C   C55       1.0  0.56080  0.50300  0.14340  1.0000
  C   C56       1.0  0.43920  0.50300  0.35660  1.0000
  C   C57       1.0  0.93920  0.99700  0.85660  1.0000
  C   C58       1.0  0.06080  0.99700  0.64340  1.0000
  C   C59       1.0  0.43920  0.49700  0.85660  1.0000
  C   C60       1.0  0.56080  0.49700  0.64340  1.0000
  N   N1        1.0  0.01710  0.34920  0.10390  1.0000
  N   N2        1.0  0.98290  0.34920  0.39610  1.0000
  N   N3        1.0  0.51710  0.84920  0.10390  1.0000
  N   N4        1.0  0.48290  0.84920  0.39610  1.0000
  N   N5        1.0  0.98290  0.65080  0.89610  1.0000
  N   N6        1.0  0.01710  0.65080  0.60390  1.0000
  N   N7        1.0  0.48290  0.15080  0.89610  1.0000
  N   N8        1.0  0.51710  0.15080  0.60390  1.0000
  N   N9        1.0  0.99860  0.22550  0.17340  1.0000
  N   N10       1.0  0.00140  0.22550  0.32660  1.0000
  N   N11       1.0  0.49860  0.72550  0.17340  1.0000
  N   N12       1.0  0.50140  0.72550  0.32660  1.0000
  N   N13       1.0  0.00140  0.77450  0.82660  1.0000
  N   N14       1.0  0.99860  0.77450  0.67340  1.0000
  N   N15       1.0  0.50140  0.27450  0.82660  1.0000
  N   N16       1.0  0.49860  0.27450  0.67340  1.0000
  N   N17       1.0  0.00000  0.35330  0.25000  1.0000
  N   N18       1.0  0.50000  0.85330  0.25000  1.0000
  N   N19       1.0  0.00000  0.64670  0.75000  1.0000
  N   N20       1.0  0.50000  0.14670  0.75000  1.0000
  N   N21       1.0  0.00000  0.10430  0.25000  1.0000
  N   N22       1.0  0.50000  0.60430  0.25000  1.0000
  N   N23       1.0  0.00000  0.89570  0.75000  1.0000
  N   N24       1.0  0.50000  0.39570  0.75000  1.0000
  O   O1        1.0  0.72060  0.35290  0.19380  1.0000
  O   O2        1.0  0.27940  0.35290  0.30620  1.0000
  O   O3        1.0  0.22060  0.85290  0.19380  1.0000
  O   O4        1.0  0.77940  0.85290  0.30620  1.0000
  O   O5        1.0  0.27940  0.64710  0.80620  1.0000
  O   O6        1.0  0.72060  0.64710  0.69380  1.0000
  O   O7        1.0  0.77940  0.14710  0.80620  1.0000
  O   O8        1.0  0.22060  0.14710  0.69380  1.0000
  O   O9        1.0  0.71260  0.43500  0.98480  1.0000
  O   O10       1.0  0.28740  0.43500  0.51520  1.0000
  O   O11       1.0  0.21260  0.93500  0.98480  1.0000
  O   O12       1.0  0.78740  0.93500  0.51520  1.0000
  O   O13       1.0  0.28740  0.56500  0.01520  1.0000
  O   O14       1.0  0.71260  0.56500  0.48480  1.0000
  O   O15       1.0  0.78740  0.06500  0.01520  1.0000
  O   O16       1.0  0.21260  0.06500  0.48480  1.0000
  O   O17       1.0  0.15310  0.02400  0.15100  1.0000
  O   O18       1.0  0.84690  0.02400  0.34900  1.0000
  O   O19       1.0  0.65310  0.52400  0.15100  1.0000
  O   O20       1.0  0.34690  0.52400  0.34900  1.0000
  O   O21       1.0  0.84690  0.97600  0.84900  1.0000
  O   O22       1.0  0.15310  0.97600  0.65100  1.0000
  O   O23       1.0  0.34690  0.47600  0.84900  1.0000
  O   O24       1.0  0.65310  0.47600  0.65100  1.0000
  O   O25       1.0  0.03820  0.93460  0.11030  1.0000
  O   O26       1.0  0.96180  0.93460  0.38970  1.0000
  O   O27       1.0  0.53820  0.43460  0.11030  1.0000
  O   O28       1.0  0.46180  0.43460  0.38970  1.0000
  O   O29       1.0  0.96180  0.06540  0.88970  1.0000
  O   O30       1.0  0.03820  0.06540  0.61030  1.0000
  O   O31       1.0  0.46180  0.56540  0.88970  1.0000
  O   O32       1.0  0.53820  0.56540  0.61030  1.0000
  O   O33       1.0  0.89890  0.21320  0.95070  1.0000
  O   O34       1.0  0.10110  0.21320  0.54930  1.0000
  O   O35       1.0  0.39890  0.71320  0.95070  1.0000
  O   O36       1.0  0.60110  0.71320  0.54930  1.0000
  O   O37       1.0  0.10110  0.78680  0.04930  1.0000
  O   O38       1.0  0.89890  0.78680  0.45070  1.0000
  O   O39       1.0  0.60110  0.28680  0.04930  1.0000
  O   O40       1.0  0.39890  0.28680  0.45070  1.0000
  O   O41       1.0  0.83020  0.29370  0.04750  1.0000
  O   O42       1.0  0.16980  0.29370  0.45250  1.0000
  O   O43       1.0  0.33020  0.79370  0.04750  1.0000
  O   O44       1.0  0.66980  0.79370  0.45250  1.0000
  O   O45       1.0  0.16980  0.70630  0.95250  1.0000
  O   O46       1.0  0.83020  0.70630  0.54750  1.0000
  O   O47       1.0  0.66980  0.20630  0.95250  1.0000
  O   O48       1.0  0.33020  0.20630  0.54750  1.0000
  O   O49       1.0  0.86250  0.46790  0.11510  1.0000
  O   O50       1.0  0.13750  0.46790  0.38490  1.0000
  O   O51       1.0  0.36250  0.96790  0.11510  1.0000
  O   O52       1.0  0.63750  0.96790  0.38490  1.0000
  O   O53       1.0  0.13750  0.53210  0.88490  1.0000
  O   O54       1.0  0.86250  0.53210  0.61510  1.0000
  O   O55       1.0  0.63750  0.03210  0.88490  1.0000
  O   O56       1.0  0.36250  0.03210  0.61510  1.0000
  O   O57       1.0  0.97320  0.56540  0.14280  1.0000
  O   O58       1.0  0.02680  0.56540  0.35720  1.0000
  O   O59       1.0  0.47320  0.06540  0.14280  1.0000
  O   O60       1.0  0.52680  0.06540  0.35720  1.0000
  O   O61       1.0  0.02680  0.43460  0.85720  1.0000
  O   O62       1.0  0.97320  0.43460  0.64280  1.0000
  O   O63       1.0  0.52680  0.93460  0.85720  1.0000
  O   O64       1.0  0.47320  0.93460  0.64280  1.0000
