data_image0
_chemical_formula_structural       Zn2P2C6H12C6H12C6O12Zn2P2C6H12C6H12C6O12
_chemical_formula_sum              "Zn4 P4 C36 H48 O24"
_cell_length_a       11.528
_cell_length_b       11.528
_cell_length_c       15.168
_cell_angle_alpha    90
_cell_angle_beta     90
_cell_angle_gamma    120

_space_group_name_H-M_alt    "P 1"
_space_group_IT_number       1

loop_
  _space_group_symop_operation_xyz
  'x, y, z'

loop_
  _atom_site_type_symbol
  _atom_site_label
  _atom_site_symmetry_multiplicity
  _atom_site_fract_x
  _atom_site_fract_y
  _atom_site_fract_z
  _atom_site_occupancy
  Zn  Zn1       1.0  0.33330  0.66670  0.13592  1.0000
  Zn  Zn2       1.0  0.66670  0.33330  0.63592  1.0000
  P   P1        1.0  0.00000  0.00000  0.23164  1.0000
  P   P2        1.0  0.00000  0.00000  0.73164  1.0000
  C   C1        1.0  0.08950  0.16660  0.17980  1.0000
  C   C2        1.0  0.83340  0.92290  0.17980  1.0000
  C   C3        1.0  0.07710  0.91050  0.17980  1.0000
  C   C4        1.0  0.91050  0.83340  0.67980  1.0000
  C   C5        1.0  0.16660  0.07710  0.67980  1.0000
  C   C6        1.0  0.92290  0.08950  0.67980  1.0000
  H   H1        1.0  0.18490  0.19860  0.18160  1.0000
  H   H2        1.0  0.80140  0.98630  0.18160  1.0000
  H   H3        1.0  0.01370  0.81510  0.18160  1.0000
  H   H4        1.0  0.81510  0.80140  0.68160  1.0000
  H   H5        1.0  0.19860  0.01370  0.68160  1.0000
  H   H6        1.0  0.98630  0.18490  0.68160  1.0000
  H   H7        1.0  0.06310  0.15820  0.11840  1.0000
  H   H8        1.0  0.84180  0.90490  0.11840  1.0000
  H   H9        1.0  0.09510  0.93690  0.11840  1.0000
  H   H10       1.0  0.93690  0.84180  0.61840  1.0000
  H   H11       1.0  0.15820  0.09510  0.61840  1.0000
  H   H12       1.0  0.90490  0.06310  0.61840  1.0000
  C   C7        1.0  0.06310  0.26990  0.22370  1.0000
  C   C8        1.0  0.73010  0.79320  0.22370  1.0000
  C   C9        1.0  0.20680  0.93690  0.22370  1.0000
  C   C10       1.0  0.93690  0.73010  0.72370  1.0000
  C   C11       1.0  0.26990  0.20680  0.72370  1.0000
  C   C12       1.0  0.79320  0.06310  0.72370  1.0000
  H   H13       1.0  0.96720  0.23500  0.22710  1.0000
  H   H14       1.0  0.76500  0.73220  0.22710  1.0000
  H   H15       1.0  0.26780  0.03280  0.22710  1.0000
  H   H16       1.0  0.03280  0.76500  0.72710  1.0000
  H   H17       1.0  0.23500  0.26780  0.72710  1.0000
  H   H18       1.0  0.73220  0.96720  0.72710  1.0000
  H   H19       1.0  0.09820  0.28610  0.28330  1.0000
  H   H20       1.0  0.71390  0.81210  0.28330  1.0000
  H   H21       1.0  0.18790  0.90180  0.28330  1.0000
  H   H22       1.0  0.90180  0.71390  0.78330  1.0000
  H   H23       1.0  0.28610  0.18790  0.78330  1.0000
  H   H24       1.0  0.81210  0.09820  0.78330  1.0000
  C   C13       1.0  0.12760  0.40090  0.17300  1.0000
  C   C14       1.0  0.59910  0.72670  0.17300  1.0000
  C   C15       1.0  0.27330  0.87240  0.17300  1.0000
  C   C16       1.0  0.87240  0.59910  0.67300  1.0000
  C   C17       1.0  0.40090  0.27330  0.67300  1.0000
  C   C18       1.0  0.72670  0.12760  0.67300  1.0000
  O   O1        1.0  0.24570  0.48920  0.19520  1.0000
  O   O2        1.0  0.51080  0.75650  0.19520  1.0000
  O   O3        1.0  0.24350  0.75430  0.19520  1.0000
  O   O4        1.0  0.75430  0.51080  0.69520  1.0000
  O   O5        1.0  0.48920  0.24350  0.69520  1.0000
  O   O6        1.0  0.75650  0.24570  0.69520  1.0000
  O   O7        1.0  0.06640  0.41580  0.11210  1.0000
  O   O8        1.0  0.58420  0.65060  0.11210  1.0000
  O   O9        1.0  0.34940  0.93360  0.11210  1.0000
  O   O10       1.0  0.93360  0.58420  0.61210  1.0000
  O   O11       1.0  0.41580  0.34940  0.61210  1.0000
  O   O12       1.0  0.65060  0.06640  0.61210  1.0000
  Zn  Zn3       1.0  0.00000  0.00000  0.38890  1.0000
  Zn  Zn4       1.0  0.00000  0.00000  0.88890  1.0000
  P   P3        1.0  0.33330  0.66670  0.98052  1.0000
  P   P4        1.0  0.66670  0.33330  0.48052  1.0000
  C   C19       1.0  0.49310  0.71640  0.92920  1.0000
  C   C20       1.0  0.28360  0.77670  0.92920  1.0000
  C   C21       1.0  0.22330  0.50690  0.92920  1.0000
  C   C22       1.0  0.50690  0.28360  0.42920  1.0000
  C   C23       1.0  0.71640  0.22330  0.42920  1.0000
  C   C24       1.0  0.77670  0.49310  0.42920  1.0000
  H   H25       1.0  0.52240  0.65430  0.94710  1.0000
  H   H26       1.0  0.34570  0.86810  0.94710  1.0000
  H   H27       1.0  0.13190  0.47760  0.94710  1.0000
  H   H28       1.0  0.47760  0.34570  0.44710  1.0000
  H   H29       1.0  0.65430  0.13190  0.44710  1.0000
  H   H30       1.0  0.86810  0.52240  0.44710  1.0000
  H   H31       1.0  0.48110  0.70930  0.86570  1.0000
  H   H32       1.0  0.29070  0.77180  0.86570  1.0000
  H   H33       1.0  0.22820  0.51890  0.86570  1.0000
  H   H34       1.0  0.51890  0.29070  0.36570  1.0000
  H   H35       1.0  0.70930  0.22820  0.36570  1.0000
  H   H36       1.0  0.77180  0.48110  0.36570  1.0000
  C   C25       1.0  0.60220  0.85740  0.95170  1.0000
  C   C26       1.0  0.14260  0.74480  0.95170  1.0000
  C   C27       1.0  0.25520  0.39780  0.95170  1.0000
  C   C28       1.0  0.39780  0.14260  0.45170  1.0000
  C   C29       1.0  0.85740  0.25520  0.45170  1.0000
  C   C30       1.0  0.74480  0.60220  0.45170  1.0000
  H   H37       1.0  0.58120  0.92120  0.92490  1.0000
  H   H38       1.0  0.07880  0.66000  0.92490  1.0000
  H   H39       1.0  0.34000  0.41880  0.92490  1.0000
  H   H40       1.0  0.41880  0.07880  0.42490  1.0000
  H   H41       1.0  0.92120  0.34000  0.42490  1.0000
  H   H42       1.0  0.66000  0.58120  0.42490  1.0000
  H   H43       1.0  0.60540  0.86990  0.01510  1.0000
  H   H44       1.0  0.13010  0.73550  0.01510  1.0000
  H   H45       1.0  0.26450  0.39460  0.01510  1.0000
  H   H46       1.0  0.39460  0.13010  0.51510  1.0000
  H   H47       1.0  0.86990  0.26450  0.51510  1.0000
  H   H48       1.0  0.73550  0.60540  0.51510  1.0000
  C   C31       1.0  0.73750  0.88420  0.91940  1.0000
  C   C32       1.0  0.11580  0.85330  0.91940  1.0000
  C   C33       1.0  0.14670  0.26250  0.91940  1.0000
  C   C34       1.0  0.26250  0.11580  0.41940  1.0000
  C   C35       1.0  0.88420  0.14670  0.41940  1.0000
  C   C36       1.0  0.85330  0.73750  0.41940  1.0000
  O   O13       1.0  0.83960  0.99060  0.94820  1.0000
  O   O14       1.0  0.00940  0.84900  0.94820  1.0000
  O   O15       1.0  0.15100  0.16040  0.94820  1.0000
  O   O16       1.0  0.16040  0.00940  0.44820  1.0000
  O   O17       1.0  0.99060  0.15100  0.44820  1.0000
  O   O18       1.0  0.84900  0.83960  0.44820  1.0000
  O   O19       1.0  0.74640  0.80850  0.86550  1.0000
  O   O20       1.0  0.19150  0.93790  0.86550  1.0000
  O   O21       1.0  0.06210  0.25360  0.86550  1.0000
  O   O22       1.0  0.25360  0.19150  0.36550  1.0000
  O   O23       1.0  0.80850  0.06210  0.36550  1.0000
  O   O24       1.0  0.93790  0.74640  0.36550  1.0000
