data_image0
_chemical_formula_structural       Fe4O22C2H2O2C2H2C2H2C2H2C2H2C2H2
_chemical_formula_sum              "Fe4 O24 C12 H12"
_cell_length_a       8.2974
_cell_length_b       8.4878
_cell_length_c       13.482
_cell_angle_alpha    88.61
_cell_angle_beta     89.05
_cell_angle_gamma    61.67

_space_group_name_H-M_alt    "P 1"
_space_group_IT_number       1

loop_
  _space_group_symop_operation_xyz
  'x, y, z'

loop_
  _atom_site_type_symbol
  _atom_site_label
  _atom_site_symmetry_multiplicity
  _atom_site_fract_x
  _atom_site_fract_y
  _atom_site_fract_z
  _atom_site_occupancy
  Fe  Fe1       1.0  0.32036  0.84746  0.24543  1.0000
  Fe  Fe2       1.0  0.67964  0.15254  0.75457  1.0000
  Fe  Fe3       1.0  0.00000  0.50000  0.00000  1.0000
  Fe  Fe4       1.0  0.00000  0.50000  0.50000  1.0000
  O   O1        1.0  0.10990  0.85310  0.33740  1.0000
  O   O2        1.0  0.89010  0.14690  0.66260  1.0000
  O   O3        1.0  0.53740  0.83690  0.15850  1.0000
  O   O4        1.0  0.46260  0.16310  0.84150  1.0000
  O   O5        1.0  0.32850  0.61790  0.17660  1.0000
  O   O6        1.0  0.67150  0.38210  0.82340  1.0000
  O   O7        1.0  0.51670  0.66420  0.34530  1.0000
  O   O8        1.0  0.48330  0.33580  0.65470  1.0000
  O   O9        1.0  0.80410  0.69000  0.08190  1.0000
  O   O10       1.0  0.19590  0.31000  0.91810  1.0000
  O   O11       1.0  0.11580  0.03370  0.14830  1.0000
  O   O12       1.0  0.88420  0.96630  0.85170  1.0000
  O   O13       1.0  0.19210  0.49480  0.09100  1.0000
  O   O14       1.0  0.80790  0.50520  0.90900  1.0000
  O   O15       1.0  0.30240  0.08320  0.31210  1.0000
  O   O16       1.0  0.69760  0.91680  0.68790  1.0000
  O   O17       1.0  0.99430  0.70480  0.42330  1.0000
  O   O18       1.0  0.00570  0.29520  0.57670  1.0000
  O   O19       1.0  0.77520  0.52990  0.43130  1.0000
  O   O20       1.0  0.22480  0.47010  0.56870  1.0000
  O   O21       1.0  0.98680  0.30490  0.07900  1.0000
  O   O22       1.0  0.01320  0.69510  0.92100  1.0000
  C   C1        1.0  0.19880  0.62890  0.12280  1.0000
  C   C2        1.0  0.80120  0.37110  0.87720  1.0000
  H   H1        1.0  0.10460  0.74200  0.10620  1.0000
  H   H2        1.0  0.89540  0.25800  0.89380  1.0000
  O   O23       1.0  0.16380  0.33460  0.39710  1.0000
  O   O24       1.0  0.83620  0.66540  0.60290  1.0000
  C   C3        1.0  0.66570  0.64880  0.37480  1.0000
  C   C4        1.0  0.33430  0.35120  0.62520  1.0000
  H   H3        1.0  0.69760  0.73470  0.35210  1.0000
  H   H4        1.0  0.30240  0.26530  0.64790  1.0000
  C   C5        1.0  0.12470  0.16100  0.10750  1.0000
  C   C6        1.0  0.87530  0.83900  0.89250  1.0000
  H   H5        1.0  0.24020  0.15090  0.09690  1.0000
  H   H6        1.0  0.75980  0.84910  0.90310  1.0000
  C   C7        1.0  0.65940  0.70230  0.11700  1.0000
  C   C8        1.0  0.34060  0.29770  0.88300  1.0000
  H   H7        1.0  0.64050  0.60320  0.11210  1.0000
  H   H8        1.0  0.35950  0.39680  0.88790  1.0000
  C   C9        1.0  0.17860  0.18530  0.36620  1.0000
  C   C10       1.0  0.82140  0.81470  0.63380  1.0000
  H   H9        1.0  0.08990  0.15360  0.38610  1.0000
  H   H10       1.0  0.91010  0.84640  0.61390  1.0000
  C   C11       1.0  0.12410  0.72290  0.38730  1.0000
  C   C12       1.0  0.87590  0.27710  0.61270  1.0000
  H   H11       1.0  0.24180  0.63060  0.39890  1.0000
  H   H12       1.0  0.75820  0.36940  0.60110  1.0000
