data_image0
_chemical_formula_structural       Fe4O24C12H12
_chemical_formula_sum              "Fe4 O24 C12 H12"
_cell_length_a       8.2294
_cell_length_b       8.2294
_cell_length_c       14.1221
_cell_angle_alpha    90
_cell_angle_beta     90
_cell_angle_gamma    120

_space_group_name_H-M_alt    "P 1"
_space_group_IT_number       1

loop_
  _space_group_symop_operation_xyz
  'x, y, z'

loop_
  _atom_site_type_symbol
  _atom_site_label
  _atom_site_symmetry_multiplicity
  _atom_site_fract_x
  _atom_site_fract_y
  _atom_site_fract_z
  _atom_site_occupancy
  Fe  Fe1       1.0  0.66670  0.33330  0.25000  1.0000
  Fe  Fe2       1.0  0.33330  0.66670  0.75000  1.0000
  Fe  Fe3       1.0  0.00000  0.00000  0.00000  1.0000
  Fe  Fe4       1.0  0.00000  0.00000  0.50000  1.0000
  O   O1        1.0  0.66200  0.11540  0.16758  1.0000
  O   O2        1.0  0.88460  0.54660  0.16758  1.0000
  O   O3        1.0  0.45340  0.33800  0.16758  1.0000
  O   O4        1.0  0.88460  0.33800  0.33242  1.0000
  O   O5        1.0  0.45340  0.11540  0.33242  1.0000
  O   O6        1.0  0.66200  0.54660  0.33242  1.0000
  O   O7        1.0  0.33800  0.88460  0.83242  1.0000
  O   O8        1.0  0.11540  0.45340  0.83242  1.0000
  O   O9        1.0  0.54660  0.66200  0.83242  1.0000
  O   O10       1.0  0.11540  0.66200  0.66758  1.0000
  O   O11       1.0  0.54660  0.88460  0.66758  1.0000
  O   O12       1.0  0.33800  0.45340  0.66758  1.0000
  O   O13       1.0  0.79470  0.99170  0.08033  1.0000
  O   O14       1.0  0.00830  0.80300  0.08033  1.0000
  O   O15       1.0  0.19700  0.20530  0.08033  1.0000
  O   O16       1.0  0.00830  0.20530  0.41967  1.0000
  O   O17       1.0  0.19700  0.99170  0.41967  1.0000
  O   O18       1.0  0.79470  0.80300  0.41967  1.0000
  O   O19       1.0  0.20530  0.00830  0.91967  1.0000
  O   O20       1.0  0.99170  0.19700  0.91967  1.0000
  O   O21       1.0  0.80300  0.79470  0.91967  1.0000
  O   O22       1.0  0.99170  0.79470  0.58033  1.0000
  O   O23       1.0  0.80300  0.00830  0.58033  1.0000
  O   O24       1.0  0.20530  0.19700  0.58033  1.0000
  C   C1        1.0  0.79120  0.12650  0.11880  1.0000
  C   C2        1.0  0.87350  0.66470  0.11880  1.0000
  C   C3        1.0  0.33530  0.20880  0.11880  1.0000
  C   C4        1.0  0.87350  0.20880  0.38120  1.0000
  C   C5        1.0  0.33530  0.12650  0.38120  1.0000
  C   C6        1.0  0.79120  0.66470  0.38120  1.0000
  C   C7        1.0  0.20880  0.87350  0.88120  1.0000
  C   C8        1.0  0.12650  0.33530  0.88120  1.0000
  C   C9        1.0  0.66470  0.79120  0.88120  1.0000
  C   C10       1.0  0.12650  0.79120  0.61880  1.0000
  C   C11       1.0  0.66470  0.87350  0.61880  1.0000
  C   C12       1.0  0.20880  0.33530  0.61880  1.0000
  H   H1        1.0  0.89490  0.24530  0.10980  1.0000
  H   H2        1.0  0.75470  0.64960  0.10980  1.0000
  H   H3        1.0  0.35040  0.10510  0.10980  1.0000
  H   H4        1.0  0.75470  0.10510  0.39020  1.0000
  H   H5        1.0  0.35040  0.24530  0.39020  1.0000
  H   H6        1.0  0.89490  0.64960  0.39020  1.0000
  H   H7        1.0  0.10510  0.75470  0.89020  1.0000
  H   H8        1.0  0.24530  0.35040  0.89020  1.0000
  H   H9        1.0  0.64960  0.89490  0.89020  1.0000
  H   H10       1.0  0.24530  0.89490  0.60980  1.0000
  H   H11       1.0  0.64960  0.75470  0.60980  1.0000
  H   H12       1.0  0.10510  0.35040  0.60980  1.0000
