data_image0
_chemical_formula_structural       Mn8O64C8H8C8H8C16H8C8H8C16H8C8H8C16H8C8H8C16H8C16H8C16H8C40H16C8H16
_chemical_formula_sum              "Mn8 O64 C184 H120"
_cell_length_a       15.338
_cell_length_b       22.1
_cell_length_c       16.425
_cell_angle_alpha    90
_cell_angle_beta     102.64
_cell_angle_gamma    90

_space_group_name_H-M_alt    "P 1"
_space_group_IT_number       1

loop_
  _space_group_symop_operation_xyz
  'x, y, z'

loop_
  _atom_site_type_symbol
  _atom_site_label
  _atom_site_symmetry_multiplicity
  _atom_site_fract_x
  _atom_site_fract_y
  _atom_site_fract_z
  _atom_site_occupancy
  Mn  Mn1       1.0  0.45457  0.49178  0.63591  1.0000
  Mn  Mn2       1.0  0.54543  0.49178  0.86409  1.0000
  Mn  Mn3       1.0  0.95457  0.99178  0.63591  1.0000
  Mn  Mn4       1.0  0.04543  0.99178  0.86409  1.0000
  Mn  Mn5       1.0  0.54543  0.50822  0.36409  1.0000
  Mn  Mn6       1.0  0.45457  0.50822  0.13591  1.0000
  Mn  Mn7       1.0  0.04543  0.00822  0.36409  1.0000
  Mn  Mn8       1.0  0.95457  0.00822  0.13591  1.0000
  O   O1        1.0  0.37050  0.55813  0.67000  1.0000
  O   O2        1.0  0.62950  0.55813  0.83000  1.0000
  O   O3        1.0  0.87050  0.05813  0.67000  1.0000
  O   O4        1.0  0.12950  0.05813  0.83000  1.0000
  O   O5        1.0  0.62950  0.44187  0.33000  1.0000
  O   O6        1.0  0.37050  0.44187  0.17000  1.0000
  O   O7        1.0  0.12950  0.94187  0.33000  1.0000
  O   O8        1.0  0.87050  0.94187  0.17000  1.0000
  O   O9        1.0  0.23350  0.53870  0.60230  1.0000
  O   O10       1.0  0.76650  0.53870  0.89770  1.0000
  O   O11       1.0  0.73350  0.03870  0.60230  1.0000
  O   O12       1.0  0.26650  0.03870  0.89770  1.0000
  O   O13       1.0  0.76650  0.46130  0.39770  1.0000
  O   O14       1.0  0.23350  0.46130  0.10230  1.0000
  O   O15       1.0  0.26650  0.96130  0.39770  1.0000
  O   O16       1.0  0.73350  0.96130  0.10230  1.0000
  O   O17       1.0  0.62427  0.57487  0.31838  1.0000
  O   O18       1.0  0.37573  0.57487  0.18162  1.0000
  O   O19       1.0  0.12427  0.07487  0.31838  1.0000
  O   O20       1.0  0.87573  0.07487  0.18162  1.0000
  O   O21       1.0  0.37573  0.42513  0.68162  1.0000
  O   O22       1.0  0.62427  0.42513  0.81838  1.0000
  O   O23       1.0  0.87573  0.92513  0.68162  1.0000
  O   O24       1.0  0.12427  0.92513  0.81838  1.0000
  O   O25       1.0  0.57584  0.55111  0.18423  1.0000
  O   O26       1.0  0.42416  0.55111  0.31577  1.0000
  O   O27       1.0  0.07584  0.05111  0.18423  1.0000
  O   O28       1.0  0.92416  0.05111  0.31577  1.0000
  O   O29       1.0  0.42416  0.44889  0.81577  1.0000
  O   O30       1.0  0.57584  0.44889  0.68423  1.0000
  O   O31       1.0  0.92416  0.94889  0.81577  1.0000
  O   O32       1.0  0.07584  0.94889  0.68423  1.0000
  O   O33       1.0  0.00971  0.93654  0.08083  1.0000
  O   O34       1.0  0.99029  0.93654  0.41917  1.0000
  O   O35       1.0  0.50971  0.43654  0.08083  1.0000
  O   O36       1.0  0.49029  0.43654  0.41917  1.0000
  O   O37       1.0  0.99029  0.06346  0.91917  1.0000
  O   O38       1.0  0.00971  0.06346  0.58083  1.0000
  O   O39       1.0  0.49029  0.56346  0.91917  1.0000
  O   O40       1.0  0.50971  0.56346  0.58083  1.0000
  O   O41       1.0  0.07965  0.94096  0.97654  1.0000
  O   O42       1.0  0.92035  0.94096  0.52346  1.0000
  O   O43       1.0  0.57965  0.44096  0.97654  1.0000
  O   O44       1.0  0.42035  0.44096  0.52346  1.0000
  O   O45       1.0  0.92035  0.05904  0.02346  1.0000
  O   O46       1.0  0.07965  0.05904  0.47654  1.0000
  O   O47       1.0  0.42035  0.55904  0.02346  1.0000
  O   O48       1.0  0.57965  0.55904  0.47654  1.0000
  O   O49       1.0  0.09680  0.71739  0.89786  1.0000
  O   O50       1.0  0.90320  0.71739  0.60214  1.0000
  O   O51       1.0  0.59680  0.21739  0.89786  1.0000
  O   O52       1.0  0.40320  0.21739  0.60214  1.0000
  O   O53       1.0  0.90320  0.28261  0.10214  1.0000
  O   O54       1.0  0.09680  0.28261  0.39786  1.0000
  O   O55       1.0  0.40320  0.78261  0.10214  1.0000
  O   O56       1.0  0.59680  0.78261  0.39786  1.0000
  O   O57       1.0  0.92675  0.71720  0.10070  1.0000
  O   O58       1.0  0.07325  0.71720  0.39930  1.0000
  O   O59       1.0  0.42675  0.21720  0.10070  1.0000
  O   O60       1.0  0.57325  0.21720  0.39930  1.0000
  O   O61       1.0  0.07325  0.28280  0.89930  1.0000
  O   O62       1.0  0.92675  0.28280  0.60070  1.0000
  O   O63       1.0  0.57325  0.78280  0.89930  1.0000
  O   O64       1.0  0.42675  0.78280  0.60070  1.0000
  C   C1        1.0  0.16680  0.63240  0.68160  1.0000
  C   C2        1.0  0.83320  0.63240  0.81840  1.0000
  C   C3        1.0  0.66680  0.13240  0.68160  1.0000
  C   C4        1.0  0.33320  0.13240  0.81840  1.0000
  C   C5        1.0  0.83320  0.36760  0.31840  1.0000
  C   C6        1.0  0.16680  0.36760  0.18160  1.0000
  C   C7        1.0  0.33320  0.86760  0.31840  1.0000
  C   C8        1.0  0.66680  0.86760  0.18160  1.0000
  H   H1        1.0  0.13070  0.61520  0.63450  1.0000
  H   H2        1.0  0.86930  0.61520  0.86550  1.0000
  H   H3        1.0  0.63070  0.11520  0.63450  1.0000
  H   H4        1.0  0.36930  0.11520  0.86550  1.0000
  H   H5        1.0  0.86930  0.38480  0.36550  1.0000
  H   H6        1.0  0.13070  0.38480  0.13450  1.0000
  H   H7        1.0  0.36930  0.88480  0.36550  1.0000
  H   H8        1.0  0.63070  0.88480  0.13450  1.0000
  C   C9        1.0  0.13150  0.67550  0.72520  1.0000
  C   C10       1.0  0.86850  0.67550  0.77480  1.0000
  C   C11       1.0  0.63150  0.17550  0.72520  1.0000
  C   C12       1.0  0.36850  0.17550  0.77480  1.0000
  C   C13       1.0  0.86850  0.32450  0.27480  1.0000
  C   C14       1.0  0.13150  0.32450  0.22520  1.0000
  C   C15       1.0  0.36850  0.82450  0.27480  1.0000
  C   C16       1.0  0.63150  0.82450  0.22520  1.0000
  H   H9        1.0  0.07250  0.68790  0.70700  1.0000
  H   H10       1.0  0.92750  0.68790  0.79300  1.0000
  H   H11       1.0  0.57250  0.18790  0.70700  1.0000
  H   H12       1.0  0.42750  0.18790  0.79300  1.0000
  H   H13       1.0  0.92750  0.31210  0.29300  1.0000
  H   H14       1.0  0.07250  0.31210  0.20700  1.0000
  H   H15       1.0  0.42750  0.81210  0.29300  1.0000
  H   H16       1.0  0.57250  0.81210  0.20700  1.0000
  C   C17       1.0  0.18480  0.70053  0.79725  1.0000
  C   C18       1.0  0.81520  0.70053  0.70275  1.0000
  C   C19       1.0  0.68480  0.20053  0.79725  1.0000
  C   C20       1.0  0.31520  0.20053  0.70275  1.0000
  C   C21       1.0  0.81520  0.29947  0.20275  1.0000
  C   C22       1.0  0.18480  0.29947  0.29725  1.0000
  C   C23       1.0  0.31520  0.79947  0.20275  1.0000
  C   C24       1.0  0.68480  0.79947  0.29725  1.0000
  C   C25       1.0  0.27220  0.68246  0.82280  1.0000
  C   C26       1.0  0.72780  0.68246  0.67720  1.0000
  C   C27       1.0  0.77220  0.18246  0.82280  1.0000
  C   C28       1.0  0.22780  0.18246  0.67720  1.0000
  C   C29       1.0  0.72780  0.31754  0.17720  1.0000
  C   C30       1.0  0.27220  0.31754  0.32280  1.0000
  C   C31       1.0  0.22780  0.81754  0.17720  1.0000
  C   C32       1.0  0.77220  0.81754  0.32280  1.0000
  H   H17       1.0  0.30780  0.69910  0.87070  1.0000
  H   H18       1.0  0.69220  0.69910  0.62930  1.0000
  H   H19       1.0  0.80780  0.19910  0.87070  1.0000
  H   H20       1.0  0.19220  0.19910  0.62930  1.0000
  H   H21       1.0  0.69220  0.30090  0.12930  1.0000
  H   H22       1.0  0.30780  0.30090  0.37070  1.0000
  H   H23       1.0  0.19220  0.80090  0.12930  1.0000
  H   H24       1.0  0.80780  0.80090  0.37070  1.0000
  C   C33       1.0  0.30770  0.63916  0.77730  1.0000
  C   C34       1.0  0.69230  0.63916  0.72270  1.0000
  C   C35       1.0  0.80770  0.13916  0.77730  1.0000
  C   C36       1.0  0.19230  0.13916  0.72270  1.0000
  C   C37       1.0  0.69230  0.36084  0.22270  1.0000
  C   C38       1.0  0.30770  0.36084  0.27730  1.0000
  C   C39       1.0  0.19230  0.86084  0.22270  1.0000
  C   C40       1.0  0.80770  0.86084  0.27730  1.0000
  H   H25       1.0  0.36700  0.62710  0.79480  1.0000
  H   H26       1.0  0.63300  0.62710  0.70520  1.0000
  H   H27       1.0  0.86700  0.12710  0.79480  1.0000
  H   H28       1.0  0.13300  0.12710  0.70520  1.0000
  H   H29       1.0  0.63300  0.37290  0.20520  1.0000
  H   H30       1.0  0.36700  0.37290  0.29480  1.0000
  H   H31       1.0  0.13300  0.87290  0.20520  1.0000
  H   H32       1.0  0.86700  0.87290  0.29480  1.0000
  C   C41       1.0  0.25460  0.61420  0.70600  1.0000
  C   C42       1.0  0.74540  0.61420  0.79400  1.0000
  C   C43       1.0  0.75460  0.11420  0.70600  1.0000
  C   C44       1.0  0.24540  0.11420  0.79400  1.0000
  C   C45       1.0  0.74540  0.38580  0.29400  1.0000
  C   C46       1.0  0.25460  0.38580  0.20600  1.0000
  C   C47       1.0  0.24540  0.88580  0.29400  1.0000
  C   C48       1.0  0.75460  0.88580  0.20600  1.0000
  C   C49       1.0  0.73640  0.68813  0.11920  1.0000
  C   C50       1.0  0.26360  0.68813  0.38080  1.0000
  C   C51       1.0  0.23640  0.18813  0.11920  1.0000
  C   C52       1.0  0.76360  0.18813  0.38080  1.0000
  C   C53       1.0  0.26360  0.31187  0.88080  1.0000
  C   C54       1.0  0.73640  0.31187  0.61920  1.0000
  C   C55       1.0  0.76360  0.81187  0.88080  1.0000
  C   C56       1.0  0.23640  0.81187  0.61920  1.0000
  H   H33       1.0  0.72530  0.70470  0.06590  1.0000
  H   H34       1.0  0.27470  0.70470  0.43410  1.0000
  H   H35       1.0  0.22530  0.20470  0.06590  1.0000
  H   H36       1.0  0.77470  0.20470  0.43410  1.0000
  H   H37       1.0  0.27470  0.29530  0.93410  1.0000
  H   H38       1.0  0.72530  0.29530  0.56590  1.0000
  H   H39       1.0  0.77470  0.79530  0.93410  1.0000
  H   H40       1.0  0.22530  0.79530  0.56590  1.0000
  C   C57       1.0  0.67550  0.64750  0.13990  1.0000
  C   C58       1.0  0.32450  0.64750  0.36010  1.0000
  C   C59       1.0  0.17550  0.14750  0.13990  1.0000
  C   C60       1.0  0.82450  0.14750  0.36010  1.0000
  C   C61       1.0  0.32450  0.35250  0.86010  1.0000
  C   C62       1.0  0.67550  0.35250  0.63990  1.0000
  C   C63       1.0  0.82450  0.85250  0.86010  1.0000
  C   C64       1.0  0.17550  0.85250  0.63990  1.0000
  H   H41       1.0  0.62450  0.63680  0.10050  1.0000
  H   H42       1.0  0.37550  0.63680  0.39950  1.0000
  H   H43       1.0  0.12450  0.13680  0.10050  1.0000
  H   H44       1.0  0.87550  0.13680  0.39950  1.0000
  H   H45       1.0  0.37550  0.36320  0.89950  1.0000
  H   H46       1.0  0.62450  0.36320  0.60050  1.0000
  H   H47       1.0  0.87550  0.86320  0.89950  1.0000
  H   H48       1.0  0.12450  0.86320  0.60050  1.0000
  C   C65       1.0  0.69091  0.62316  0.21909  1.0000
  C   C66       1.0  0.30909  0.62316  0.28091  1.0000
  C   C67       1.0  0.19091  0.12316  0.21909  1.0000
  C   C68       1.0  0.80909  0.12316  0.28091  1.0000
  C   C69       1.0  0.30909  0.37684  0.78091  1.0000
  C   C70       1.0  0.69091  0.37684  0.71909  1.0000
  C   C71       1.0  0.80909  0.87684  0.78091  1.0000
  C   C72       1.0  0.19091  0.87684  0.71909  1.0000
  C   C73       1.0  0.76670  0.63936  0.27608  1.0000
  C   C74       1.0  0.23330  0.63936  0.22392  1.0000
  C   C75       1.0  0.26670  0.13936  0.27608  1.0000
  C   C76       1.0  0.73330  0.13936  0.22392  1.0000
  C   C77       1.0  0.23330  0.36064  0.72392  1.0000
  C   C78       1.0  0.76670  0.36064  0.77608  1.0000
  C   C79       1.0  0.73330  0.86064  0.72392  1.0000
  C   C80       1.0  0.26670  0.86064  0.77608  1.0000
  H   H49       1.0  0.77730  0.62340  0.32970  1.0000
  H   H50       1.0  0.22270  0.62340  0.17030  1.0000
  H   H51       1.0  0.27730  0.12340  0.32970  1.0000
  H   H52       1.0  0.72270  0.12340  0.17030  1.0000
  H   H53       1.0  0.22270  0.37660  0.67030  1.0000
  H   H54       1.0  0.77730  0.37660  0.82970  1.0000
  H   H55       1.0  0.72270  0.87660  0.67030  1.0000
  H   H56       1.0  0.27730  0.87660  0.82970  1.0000
  C   C81       1.0  0.82780  0.67936  0.25470  1.0000
  C   C82       1.0  0.17220  0.67936  0.24530  1.0000
  C   C83       1.0  0.32780  0.17936  0.25470  1.0000
  C   C84       1.0  0.67220  0.17936  0.24530  1.0000
  C   C85       1.0  0.17220  0.32064  0.74530  1.0000
  C   C86       1.0  0.82780  0.32064  0.75470  1.0000
  C   C87       1.0  0.67220  0.82064  0.74530  1.0000
  C   C88       1.0  0.32780  0.82064  0.75470  1.0000
  H   H57       1.0  0.87940  0.68950  0.29370  1.0000
  H   H58       1.0  0.12060  0.68950  0.20630  1.0000
  H   H59       1.0  0.37940  0.18950  0.29370  1.0000
  H   H60       1.0  0.62060  0.18950  0.20630  1.0000
  H   H61       1.0  0.12060  0.31050  0.70630  1.0000
  H   H62       1.0  0.87940  0.31050  0.79370  1.0000
  H   H63       1.0  0.62060  0.81050  0.70630  1.0000
  H   H64       1.0  0.37940  0.81050  0.79370  1.0000
  C   C89       1.0  0.81230  0.70418  0.17570  1.0000
  C   C90       1.0  0.18770  0.70418  0.32430  1.0000
  C   C91       1.0  0.31230  0.20418  0.17570  1.0000
  C   C92       1.0  0.68770  0.20418  0.32430  1.0000
  C   C93       1.0  0.18770  0.29582  0.82430  1.0000
  C   C94       1.0  0.81230  0.29582  0.67570  1.0000
  C   C95       1.0  0.68770  0.79582  0.82430  1.0000
  C   C96       1.0  0.31230  0.79582  0.67570  1.0000
  C   C97       1.0  0.01390  0.72092  0.00100  1.0000
  C   C98       1.0  0.98610  0.72092  0.49900  1.0000
  C   C99       1.0  0.51390  0.22092  0.00100  1.0000
  C   C100      1.0  0.48610  0.22092  0.49900  1.0000
  C   C101      1.0  0.98610  0.27908  0.99900  1.0000
  C   C102      1.0  0.01390  0.27908  0.50100  1.0000
  C   C103      1.0  0.48610  0.77908  0.99900  1.0000
  C   C104      1.0  0.51390  0.77908  0.50100  1.0000
  H   H65       1.0  0.00870  0.67910  0.99670  1.0000
  H   H66       1.0  0.99130  0.67910  0.50330  1.0000
  H   H67       1.0  0.50870  0.17910  0.99670  1.0000
  H   H68       1.0  0.49130  0.17910  0.50330  1.0000
  H   H69       1.0  0.99130  0.32090  0.00330  1.0000
  H   H70       1.0  0.00870  0.32090  0.49670  1.0000
  H   H71       1.0  0.49130  0.82090  0.00330  1.0000
  H   H72       1.0  0.50870  0.82090  0.49670  1.0000
  C   C105      1.0  0.97460  0.75231  0.05711  1.0000
  C   C106      1.0  0.02540  0.75231  0.44289  1.0000
  C   C107      1.0  0.47460  0.25231  0.05711  1.0000
  C   C108      1.0  0.52540  0.25231  0.44289  1.0000
  C   C109      1.0  0.02540  0.24769  0.94289  1.0000
  C   C110      1.0  0.97460  0.24769  0.55711  1.0000
  C   C111      1.0  0.52540  0.74769  0.94289  1.0000
  C   C112      1.0  0.47460  0.74769  0.55711  1.0000
  C   C113      1.0  0.98415  0.81454  0.06572  1.0000
  C   C114      1.0  0.01585  0.81454  0.43428  1.0000
  C   C115      1.0  0.48415  0.31454  0.06572  1.0000
  C   C116      1.0  0.51585  0.31454  0.43428  1.0000
  C   C117      1.0  0.01585  0.18546  0.93428  1.0000
  C   C118      1.0  0.98415  0.18546  0.56572  1.0000
  C   C119      1.0  0.51585  0.68546  0.93428  1.0000
  C   C120      1.0  0.48415  0.68546  0.56572  1.0000
  H   H73       1.0  0.95910  0.83530  0.10420  1.0000
  H   H74       1.0  0.04090  0.83530  0.39580  1.0000
  H   H75       1.0  0.45910  0.33530  0.10420  1.0000
  H   H76       1.0  0.54090  0.33530  0.39580  1.0000
  H   H77       1.0  0.04090  0.16470  0.89580  1.0000
  H   H78       1.0  0.95910  0.16470  0.60420  1.0000
  H   H79       1.0  0.54090  0.66470  0.89580  1.0000
  H   H80       1.0  0.45910  0.66470  0.60420  1.0000
  C   C121      1.0  0.03173  0.84533  0.01591  1.0000
  C   C122      1.0  0.96827  0.84533  0.48409  1.0000
  C   C123      1.0  0.53173  0.34533  0.01591  1.0000
  C   C124      1.0  0.46827  0.34533  0.48409  1.0000
  C   C125      1.0  0.96827  0.15467  0.98409  1.0000
  C   C126      1.0  0.03173  0.15467  0.51591  1.0000
  C   C127      1.0  0.46827  0.65467  0.98409  1.0000
  C   C128      1.0  0.53173  0.65467  0.51591  1.0000
  C   C129      1.0  0.07017  0.81508  0.95796  1.0000
  C   C130      1.0  0.92983  0.81508  0.54204  1.0000
  C   C131      1.0  0.57017  0.31508  0.95796  1.0000
  C   C132      1.0  0.42983  0.31508  0.54204  1.0000
  C   C133      1.0  0.92983  0.18492  0.04204  1.0000
  C   C134      1.0  0.07017  0.18492  0.45796  1.0000
  C   C135      1.0  0.42983  0.68492  0.04204  1.0000
  C   C136      1.0  0.57017  0.68492  0.45796  1.0000
  H   H81       1.0  0.10130  0.83630  0.92440  1.0000
  H   H82       1.0  0.89870  0.83630  0.57560  1.0000
  H   H83       1.0  0.60130  0.33630  0.92440  1.0000
  H   H84       1.0  0.39870  0.33630  0.57560  1.0000
  H   H85       1.0  0.89870  0.16370  0.07560  1.0000
  H   H86       1.0  0.10130  0.16370  0.42440  1.0000
  H   H87       1.0  0.39870  0.66370  0.07560  1.0000
  H   H88       1.0  0.60130  0.66370  0.42440  1.0000
  C   C137      1.0  0.06100  0.75260  0.95146  1.0000
  C   C138      1.0  0.93900  0.75260  0.54854  1.0000
  C   C139      1.0  0.56100  0.25260  0.95146  1.0000
  C   C140      1.0  0.43900  0.25260  0.54854  1.0000
  C   C141      1.0  0.93900  0.24740  0.04854  1.0000
  C   C142      1.0  0.06100  0.24740  0.45146  1.0000
  C   C143      1.0  0.43900  0.74740  0.04854  1.0000
  C   C144      1.0  0.56100  0.74740  0.45146  1.0000
  C   C145      1.0  0.29130  0.56650  0.65620  1.0000
  C   C146      1.0  0.70870  0.56650  0.84380  1.0000
  C   C147      1.0  0.79130  0.06650  0.65620  1.0000
  C   C148      1.0  0.20870  0.06650  0.84380  1.0000
  C   C149      1.0  0.70870  0.43350  0.34380  1.0000
  C   C150      1.0  0.29130  0.43350  0.15620  1.0000
  C   C151      1.0  0.20870  0.93350  0.34380  1.0000
  C   C152      1.0  0.79130  0.93350  0.15620  1.0000
  C   C153      1.0  0.62420  0.57962  0.24200  1.0000
  C   C154      1.0  0.37580  0.57962  0.25800  1.0000
  C   C155      1.0  0.12420  0.07962  0.24200  1.0000
  C   C156      1.0  0.87580  0.07962  0.25800  1.0000
  C   C157      1.0  0.37580  0.42038  0.75800  1.0000
  C   C158      1.0  0.62420  0.42038  0.74200  1.0000
  C   C159      1.0  0.87580  0.92038  0.75800  1.0000
  C   C160      1.0  0.12420  0.92038  0.74200  1.0000
  C   C161      1.0  0.03976  0.91296  0.02480  1.0000
  C   C162      1.0  0.96024  0.91296  0.47520  1.0000
  C   C163      1.0  0.53976  0.41296  0.02480  1.0000
  C   C164      1.0  0.46024  0.41296  0.47520  1.0000
  C   C165      1.0  0.96024  0.08704  0.97520  1.0000
  C   C166      1.0  0.03976  0.08704  0.52480  1.0000
  C   C167      1.0  0.46024  0.58704  0.97520  1.0000
  C   C168      1.0  0.53976  0.58704  0.52480  1.0000
  C   C169      1.0  0.14710  0.74803  0.84600  1.0000
  C   C170      1.0  0.85290  0.74803  0.65400  1.0000
  C   C171      1.0  0.64710  0.24803  0.84600  1.0000
  C   C172      1.0  0.35290  0.24803  0.65400  1.0000
  C   C173      1.0  0.85290  0.25197  0.15400  1.0000
  C   C174      1.0  0.14710  0.25197  0.34600  1.0000
  C   C175      1.0  0.35290  0.75197  0.15400  1.0000
  C   C176      1.0  0.64710  0.75197  0.34600  1.0000
  H   H89       1.0  0.19520  0.77130  0.88010  1.0000
  H   H90       1.0  0.80480  0.77130  0.61990  1.0000
  H   H91       1.0  0.69520  0.27130  0.88010  1.0000
  H   H92       1.0  0.30480  0.27130  0.61990  1.0000
  H   H93       1.0  0.80480  0.22870  0.11990  1.0000
  H   H94       1.0  0.19520  0.22870  0.38010  1.0000
  H   H95       1.0  0.30480  0.72870  0.11990  1.0000
  H   H96       1.0  0.69520  0.72870  0.38010  1.0000
  H   H97       1.0  0.10870  0.77550  0.80810  1.0000
  H   H98       1.0  0.89130  0.77550  0.69190  1.0000
  H   H99       1.0  0.60870  0.27550  0.80810  1.0000
  H   H100      1.0  0.39130  0.27550  0.69190  1.0000
  H   H101      1.0  0.89130  0.22450  0.19190  1.0000
  H   H102      1.0  0.10870  0.22450  0.30810  1.0000
  H   H103      1.0  0.39130  0.72450  0.19190  1.0000
  H   H104      1.0  0.60870  0.72450  0.30810  1.0000
  C   C177      1.0  0.87650  0.74896  0.15160  1.0000
  C   C178      1.0  0.12350  0.74896  0.34840  1.0000
  C   C179      1.0  0.37650  0.24896  0.15160  1.0000
  C   C180      1.0  0.62350  0.24896  0.34840  1.0000
  C   C181      1.0  0.12350  0.25104  0.84840  1.0000
  C   C182      1.0  0.87650  0.25104  0.65160  1.0000
  C   C183      1.0  0.62350  0.75104  0.84840  1.0000
  C   C184      1.0  0.37650  0.75104  0.65160  1.0000
  H   H105      1.0  0.84400  0.78240  0.12070  1.0000
  H   H106      1.0  0.15600  0.78240  0.37930  1.0000
  H   H107      1.0  0.34400  0.28240  0.12070  1.0000
  H   H108      1.0  0.65600  0.28240  0.37930  1.0000
  H   H109      1.0  0.15600  0.21760  0.87930  1.0000
  H   H110      1.0  0.84400  0.21760  0.62070  1.0000
  H   H111      1.0  0.65600  0.71760  0.87930  1.0000
  H   H112      1.0  0.34400  0.71760  0.62070  1.0000
  H   H113      1.0  0.91630  0.76500  0.20110  1.0000
  H   H114      1.0  0.08370  0.76500  0.29890  1.0000
  H   H115      1.0  0.41630  0.26500  0.20110  1.0000
  H   H116      1.0  0.58370  0.26500  0.29890  1.0000
  H   H117      1.0  0.08370  0.23500  0.79890  1.0000
  H   H118      1.0  0.91630  0.23500  0.70110  1.0000
  H   H119      1.0  0.58370  0.73500  0.79890  1.0000
  H   H120      1.0  0.41630  0.73500  0.70110  1.0000
