data_image0
_chemical_formula_structural       C24H8C8H8C24H8C8H8O32Bi4
_chemical_formula_sum              "C64 H32 O32 Bi4"
_cell_length_a       10.7068
_cell_length_b       17.7294
_cell_length_c       13.2435
_cell_angle_alpha    90
_cell_angle_beta     104.446
_cell_angle_gamma    90

_space_group_name_H-M_alt    "P 1"
_space_group_IT_number       1

loop_
  _space_group_symop_operation_xyz
  'x, y, z'

loop_
  _atom_site_type_symbol
  _atom_site_label
  _atom_site_symmetry_multiplicity
  _atom_site_fract_x
  _atom_site_fract_y
  _atom_site_fract_z
  _atom_site_occupancy
  C   C1        1.0  0.74330  0.05130  0.39710  1.0000
  C   C2        1.0  0.25670  0.05130  0.10290  1.0000
  C   C3        1.0  0.24330  0.55130  0.39710  1.0000
  C   C4        1.0  0.75670  0.55130  0.10290  1.0000
  C   C5        1.0  0.25670  0.94870  0.60290  1.0000
  C   C6        1.0  0.74330  0.94870  0.89710  1.0000
  C   C7        1.0  0.75670  0.44870  0.60290  1.0000
  C   C8        1.0  0.24330  0.44870  0.89710  1.0000
  C   C9        1.0  0.87650  0.02610  0.45130  1.0000
  C   C10       1.0  0.12350  0.02610  0.04870  1.0000
  C   C11       1.0  0.37650  0.52610  0.45130  1.0000
  C   C12       1.0  0.62350  0.52610  0.04870  1.0000
  C   C13       1.0  0.12350  0.97390  0.54870  1.0000
  C   C14       1.0  0.87650  0.97390  0.95130  1.0000
  C   C15       1.0  0.62350  0.47390  0.54870  1.0000
  C   C16       1.0  0.37650  0.47390  0.95130  1.0000
  C   C17       1.0  0.98020  0.04230  0.41010  1.0000
  C   C18       1.0  0.01980  0.04230  0.08990  1.0000
  C   C19       1.0  0.48020  0.54230  0.41010  1.0000
  C   C20       1.0  0.51980  0.54230  0.08990  1.0000
  C   C21       1.0  0.01980  0.95770  0.58990  1.0000
  C   C22       1.0  0.98020  0.95770  0.91010  1.0000
  C   C23       1.0  0.51980  0.45770  0.58990  1.0000
  C   C24       1.0  0.48020  0.45770  0.91010  1.0000
  H   H1        1.0  0.96760  0.07120  0.34990  1.0000
  H   H2        1.0  0.03240  0.07120  0.15010  1.0000
  H   H3        1.0  0.46760  0.57120  0.34990  1.0000
  H   H4        1.0  0.53240  0.57120  0.15010  1.0000
  H   H5        1.0  0.03240  0.92880  0.65010  1.0000
  H   H6        1.0  0.96760  0.92880  0.84990  1.0000
  H   H7        1.0  0.53240  0.42880  0.65010  1.0000
  H   H8        1.0  0.46760  0.42880  0.84990  1.0000
  C   C25       1.0  0.89760  0.98410  0.54230  1.0000
  C   C26       1.0  0.10240  0.98410  0.95770  1.0000
  C   C27       1.0  0.39760  0.48410  0.54230  1.0000
  C   C28       1.0  0.60240  0.48410  0.95770  1.0000
  C   C29       1.0  0.10240  0.01590  0.45770  1.0000
  C   C30       1.0  0.89760  0.01590  0.04230  1.0000
  C   C31       1.0  0.60240  0.51590  0.45770  1.0000
  C   C32       1.0  0.39760  0.51590  0.04230  1.0000
  H   H9        1.0  0.82920  0.97360  0.57170  1.0000
  H   H10       1.0  0.17080  0.97360  0.92830  1.0000
  H   H11       1.0  0.32920  0.47360  0.57170  1.0000
  H   H12       1.0  0.67080  0.47360  0.92830  1.0000
  H   H13       1.0  0.17080  0.02640  0.42830  1.0000
  H   H14       1.0  0.82920  0.02640  0.07170  1.0000
  H   H15       1.0  0.67080  0.52640  0.42830  1.0000
  H   H16       1.0  0.32920  0.52640  0.07170  1.0000
  C   C33       1.0  0.60290  0.15170  0.09970  1.0000
  C   C34       1.0  0.39710  0.15170  0.40030  1.0000
  C   C35       1.0  0.10290  0.65170  0.09970  1.0000
  C   C36       1.0  0.89710  0.65170  0.40030  1.0000
  C   C37       1.0  0.39710  0.84830  0.90030  1.0000
  C   C38       1.0  0.60290  0.84830  0.59970  1.0000
  C   C39       1.0  0.89710  0.34830  0.90030  1.0000
  C   C40       1.0  0.10290  0.34830  0.59970  1.0000
  C   C41       1.0  0.67540  0.20380  0.04620  1.0000
  C   C42       1.0  0.32460  0.20380  0.45380  1.0000
  C   C43       1.0  0.17540  0.70380  0.04620  1.0000
  C   C44       1.0  0.82460  0.70380  0.45380  1.0000
  C   C45       1.0  0.32460  0.79620  0.95380  1.0000
  C   C46       1.0  0.67540  0.79620  0.54620  1.0000
  C   C47       1.0  0.82460  0.29620  0.95380  1.0000
  C   C48       1.0  0.17540  0.29620  0.54620  1.0000
  C   C49       1.0  0.70180  0.27690  0.08110  1.0000
  C   C50       1.0  0.29820  0.27690  0.41890  1.0000
  C   C51       1.0  0.20180  0.77690  0.08110  1.0000
  C   C52       1.0  0.79820  0.77690  0.41890  1.0000
  C   C53       1.0  0.29820  0.72310  0.91890  1.0000
  C   C54       1.0  0.70180  0.72310  0.58110  1.0000
  C   C55       1.0  0.79820  0.22310  0.91890  1.0000
  C   C56       1.0  0.20180  0.22310  0.58110  1.0000
  H   H17       1.0  0.66950  0.29480  0.13550  1.0000
  H   H18       1.0  0.33050  0.29480  0.36450  1.0000
  H   H19       1.0  0.16950  0.79480  0.13550  1.0000
  H   H20       1.0  0.83050  0.79480  0.36450  1.0000
  H   H21       1.0  0.33050  0.70520  0.86450  1.0000
  H   H22       1.0  0.66950  0.70520  0.63550  1.0000
  H   H23       1.0  0.83050  0.20520  0.86450  1.0000
  H   H24       1.0  0.16950  0.20520  0.63550  1.0000
  C   C57       1.0  0.72370  0.17630  0.96440  1.0000
  C   C58       1.0  0.27630  0.17630  0.53560  1.0000
  C   C59       1.0  0.22370  0.67630  0.96440  1.0000
  C   C60       1.0  0.77630  0.67630  0.53560  1.0000
  C   C61       1.0  0.27630  0.82370  0.03560  1.0000
  C   C62       1.0  0.72370  0.82370  0.46440  1.0000
  C   C63       1.0  0.77630  0.32370  0.03560  1.0000
  C   C64       1.0  0.22370  0.32370  0.46440  1.0000
  H   H25       1.0  0.70610  0.12710  0.94080  1.0000
  H   H26       1.0  0.29390  0.12710  0.55920  1.0000
  H   H27       1.0  0.20610  0.62710  0.94080  1.0000
  H   H28       1.0  0.79390  0.62710  0.55920  1.0000
  H   H29       1.0  0.29390  0.87290  0.05920  1.0000
  H   H30       1.0  0.70610  0.87290  0.44080  1.0000
  H   H31       1.0  0.79390  0.37290  0.05920  1.0000
  H   H32       1.0  0.20610  0.37290  0.44080  1.0000
  O   O1        1.0  0.72850  0.09410  0.32010  1.0000
  O   O2        1.0  0.27150  0.09410  0.17990  1.0000
  O   O3        1.0  0.22850  0.59410  0.32010  1.0000
  O   O4        1.0  0.77150  0.59410  0.17990  1.0000
  O   O5        1.0  0.27150  0.90590  0.67990  1.0000
  O   O6        1.0  0.72850  0.90590  0.82010  1.0000
  O   O7        1.0  0.77150  0.40590  0.67990  1.0000
  O   O8        1.0  0.22850  0.40590  0.82010  1.0000
  O   O9        1.0  0.65040  0.02810  0.42890  1.0000
  O   O10       1.0  0.34960  0.02810  0.07110  1.0000
  O   O11       1.0  0.15040  0.52810  0.42890  1.0000
  O   O12       1.0  0.84960  0.52810  0.07110  1.0000
  O   O13       1.0  0.34960  0.97190  0.57110  1.0000
  O   O14       1.0  0.65040  0.97190  0.92890  1.0000
  O   O15       1.0  0.84960  0.47190  0.57110  1.0000
  O   O16       1.0  0.15040  0.47190  0.92890  1.0000
  O   O17       1.0  0.54370  0.17990  0.16390  1.0000
  O   O18       1.0  0.45630  0.17990  0.33610  1.0000
  O   O19       1.0  0.04370  0.67990  0.16390  1.0000
  O   O20       1.0  0.95630  0.67990  0.33610  1.0000
  O   O21       1.0  0.45630  0.82010  0.83610  1.0000
  O   O22       1.0  0.54370  0.82010  0.66390  1.0000
  O   O23       1.0  0.95630  0.32010  0.83610  1.0000
  O   O24       1.0  0.04370  0.32010  0.66390  1.0000
  O   O25       1.0  0.60190  0.08230  0.08220  1.0000
  O   O26       1.0  0.39810  0.08230  0.41780  1.0000
  O   O27       1.0  0.10190  0.58230  0.08220  1.0000
  O   O28       1.0  0.89810  0.58230  0.41780  1.0000
  O   O29       1.0  0.39810  0.91770  0.91780  1.0000
  O   O30       1.0  0.60190  0.91770  0.58220  1.0000
  O   O31       1.0  0.89810  0.41770  0.91780  1.0000
  O   O32       1.0  0.10190  0.41770  0.58220  1.0000
  Bi  Bi1       1.0  0.50000  0.07556  0.25000  1.0000
  Bi  Bi2       1.0  0.00000  0.57556  0.25000  1.0000
  Bi  Bi3       1.0  0.50000  0.92444  0.75000  1.0000
  Bi  Bi4       1.0  0.00000  0.42444  0.75000  1.0000
