data_image0
_chemical_formula_structural       C108H36C36H36C36H36C36H36C72Bi18O144
_chemical_formula_sum              "C288 H144 Bi18 O144"
_cell_length_a       17.6932
_cell_length_b       17.6932
_cell_length_c       29.735
_cell_angle_alpha    90
_cell_angle_beta     90
_cell_angle_gamma    120

_space_group_name_H-M_alt    "P 1"
_space_group_IT_number       1

loop_
  _space_group_symop_operation_xyz
  'x, y, z'

loop_
  _atom_site_type_symbol
  _atom_site_label
  _atom_site_symmetry_multiplicity
  _atom_site_fract_x
  _atom_site_fract_y
  _atom_site_fract_z
  _atom_site_occupancy
  C   C1        1.0  0.10320  0.16080  0.93640  1.0000
  C   C2        1.0  0.83920  0.94240  0.93640  1.0000
  C   C3        1.0  0.05760  0.89680  0.93640  1.0000
  C   C4        1.0  0.16080  0.10320  0.56360  1.0000
  C   C5        1.0  0.89680  0.05760  0.56360  1.0000
  C   C6        1.0  0.94240  0.83920  0.56360  1.0000
  C   C7        1.0  0.76987  0.49413  0.26973  1.0000
  C   C8        1.0  0.50587  0.27573  0.26973  1.0000
  C   C9        1.0  0.72427  0.23013  0.26973  1.0000
  C   C10       1.0  0.82747  0.43653  0.89693  1.0000
  C   C11       1.0  0.56347  0.39093  0.89693  1.0000
  C   C12       1.0  0.60907  0.17253  0.89693  1.0000
  C   C13       1.0  0.43653  0.82747  0.60307  1.0000
  C   C14       1.0  0.17253  0.60907  0.60307  1.0000
  C   C15       1.0  0.39093  0.56347  0.60307  1.0000
  C   C16       1.0  0.49413  0.76987  0.23027  1.0000
  C   C17       1.0  0.23013  0.72427  0.23027  1.0000
  C   C18       1.0  0.27573  0.50587  0.23027  1.0000
  C   C19       1.0  0.89680  0.83920  0.06360  1.0000
  C   C20       1.0  0.16080  0.05760  0.06360  1.0000
  C   C21       1.0  0.94240  0.10320  0.06360  1.0000
  C   C22       1.0  0.83920  0.89680  0.43640  1.0000
  C   C23       1.0  0.10320  0.94240  0.43640  1.0000
  C   C24       1.0  0.05760  0.16080  0.43640  1.0000
  C   C25       1.0  0.23013  0.50587  0.73027  1.0000
  C   C26       1.0  0.49413  0.72427  0.73027  1.0000
  C   C27       1.0  0.27573  0.76987  0.73027  1.0000
  C   C28       1.0  0.17253  0.56347  0.10307  1.0000
  C   C29       1.0  0.43653  0.60907  0.10307  1.0000
  C   C30       1.0  0.39093  0.82747  0.10307  1.0000
  C   C31       1.0  0.56347  0.17253  0.39693  1.0000
  C   C32       1.0  0.82747  0.39093  0.39693  1.0000
  C   C33       1.0  0.60907  0.43653  0.39693  1.0000
  C   C34       1.0  0.50587  0.23013  0.76973  1.0000
  C   C35       1.0  0.76987  0.27573  0.76973  1.0000
  C   C36       1.0  0.72427  0.49413  0.76973  1.0000
  C   C37       1.0  0.15480  0.25030  0.91700  1.0000
  C   C38       1.0  0.74970  0.90450  0.91700  1.0000
  C   C39       1.0  0.09550  0.84520  0.91700  1.0000
  C   C40       1.0  0.25030  0.15480  0.58300  1.0000
  C   C41       1.0  0.84520  0.09550  0.58300  1.0000
  C   C42       1.0  0.90450  0.74970  0.58300  1.0000
  C   C43       1.0  0.82147  0.58363  0.25033  1.0000
  C   C44       1.0  0.41637  0.23783  0.25033  1.0000
  C   C45       1.0  0.76217  0.17853  0.25033  1.0000
  C   C46       1.0  0.91697  0.48813  0.91633  1.0000
  C   C47       1.0  0.51187  0.42883  0.91633  1.0000
  C   C48       1.0  0.57117  0.08303  0.91633  1.0000
  C   C49       1.0  0.48813  0.91697  0.58367  1.0000
  C   C50       1.0  0.08303  0.57117  0.58367  1.0000
  C   C51       1.0  0.42883  0.51187  0.58367  1.0000
  C   C52       1.0  0.58363  0.82147  0.24967  1.0000
  C   C53       1.0  0.17853  0.76217  0.24967  1.0000
  C   C54       1.0  0.23783  0.41637  0.24967  1.0000
  C   C55       1.0  0.84520  0.74970  0.08300  1.0000
  C   C56       1.0  0.25030  0.09550  0.08300  1.0000
  C   C57       1.0  0.90450  0.15480  0.08300  1.0000
  C   C58       1.0  0.74970  0.84520  0.41700  1.0000
  C   C59       1.0  0.15480  0.90450  0.41700  1.0000
  C   C60       1.0  0.09550  0.25030  0.41700  1.0000
  C   C61       1.0  0.17853  0.41637  0.74967  1.0000
  C   C62       1.0  0.58363  0.76217  0.74967  1.0000
  C   C63       1.0  0.23783  0.82147  0.74967  1.0000
  C   C64       1.0  0.08303  0.51187  0.08367  1.0000
  C   C65       1.0  0.48813  0.57117  0.08367  1.0000
  C   C66       1.0  0.42883  0.91697  0.08367  1.0000
  C   C67       1.0  0.51187  0.08303  0.41633  1.0000
  C   C68       1.0  0.91697  0.42883  0.41633  1.0000
  C   C69       1.0  0.57117  0.48813  0.41633  1.0000
  C   C70       1.0  0.41637  0.17853  0.75033  1.0000
  C   C71       1.0  0.82147  0.23783  0.75033  1.0000
  C   C72       1.0  0.76217  0.58363  0.75033  1.0000
  C   C73       1.0  0.21130  0.26770  0.88200  1.0000
  C   C74       1.0  0.73230  0.94360  0.88200  1.0000
  C   C75       1.0  0.05640  0.78870  0.88200  1.0000
  C   C76       1.0  0.26770  0.21130  0.61800  1.0000
  C   C77       1.0  0.78870  0.05640  0.61800  1.0000
  C   C78       1.0  0.94360  0.73230  0.61800  1.0000
  C   C79       1.0  0.87797  0.60103  0.21533  1.0000
  C   C80       1.0  0.39897  0.27693  0.21533  1.0000
  C   C81       1.0  0.72307  0.12203  0.21533  1.0000
  C   C82       1.0  0.93437  0.54463  0.95133  1.0000
  C   C83       1.0  0.45537  0.38973  0.95133  1.0000
  C   C84       1.0  0.61027  0.06563  0.95133  1.0000
  C   C85       1.0  0.54463  0.93437  0.54867  1.0000
  C   C86       1.0  0.06563  0.61027  0.54867  1.0000
  C   C87       1.0  0.38973  0.45537  0.54867  1.0000
  C   C88       1.0  0.60103  0.87797  0.28467  1.0000
  C   C89       1.0  0.12203  0.72307  0.28467  1.0000
  C   C90       1.0  0.27693  0.39897  0.28467  1.0000
  C   C91       1.0  0.78870  0.73230  0.11800  1.0000
  C   C92       1.0  0.26770  0.05640  0.11800  1.0000
  C   C93       1.0  0.94360  0.21130  0.11800  1.0000
  C   C94       1.0  0.73230  0.78870  0.38200  1.0000
  C   C95       1.0  0.21130  0.94360  0.38200  1.0000
  C   C96       1.0  0.05640  0.26770  0.38200  1.0000
  C   C97       1.0  0.12203  0.39897  0.78467  1.0000
  C   C98       1.0  0.60103  0.72307  0.78467  1.0000
  C   C99       1.0  0.27693  0.87797  0.78467  1.0000
  C   C100      1.0  0.06563  0.45537  0.04867  1.0000
  C   C101      1.0  0.54463  0.61027  0.04867  1.0000
  C   C102      1.0  0.38973  0.93437  0.04867  1.0000
  C   C103      1.0  0.45537  0.06563  0.45133  1.0000
  C   C104      1.0  0.93437  0.38973  0.45133  1.0000
  C   C105      1.0  0.61027  0.54463  0.45133  1.0000
  C   C106      1.0  0.39897  0.12203  0.71533  1.0000
  C   C107      1.0  0.87797  0.27693  0.71533  1.0000
  C   C108      1.0  0.72307  0.60103  0.71533  1.0000
  H   H1        1.0  0.21970  0.22240  0.87050  1.0000
  H   H2        1.0  0.77760  0.99730  0.87050  1.0000
  H   H3        1.0  0.00270  0.78030  0.87050  1.0000
  H   H4        1.0  0.22240  0.21970  0.62950  1.0000
  H   H5        1.0  0.78030  0.00270  0.62950  1.0000
  H   H6        1.0  0.99730  0.77760  0.62950  1.0000
  H   H7        1.0  0.88637  0.55573  0.20383  1.0000
  H   H8        1.0  0.44427  0.33063  0.20383  1.0000
  H   H9        1.0  0.66937  0.11363  0.20383  1.0000
  H   H10       1.0  0.88907  0.55303  0.96283  1.0000
  H   H11       1.0  0.44697  0.33603  0.96283  1.0000
  H   H12       1.0  0.66397  0.11093  0.96283  1.0000
  H   H13       1.0  0.55303  0.88907  0.53717  1.0000
  H   H14       1.0  0.11093  0.66397  0.53717  1.0000
  H   H15       1.0  0.33603  0.44697  0.53717  1.0000
  H   H16       1.0  0.55573  0.88637  0.29617  1.0000
  H   H17       1.0  0.11363  0.66937  0.29617  1.0000
  H   H18       1.0  0.33063  0.44427  0.29617  1.0000
  H   H19       1.0  0.78030  0.77760  0.12950  1.0000
  H   H20       1.0  0.22240  0.00270  0.12950  1.0000
  H   H21       1.0  0.99730  0.21970  0.12950  1.0000
  H   H22       1.0  0.77760  0.78030  0.37050  1.0000
  H   H23       1.0  0.21970  0.99730  0.37050  1.0000
  H   H24       1.0  0.00270  0.22240  0.37050  1.0000
  H   H25       1.0  0.11363  0.44427  0.79617  1.0000
  H   H26       1.0  0.55573  0.66937  0.79617  1.0000
  H   H27       1.0  0.33063  0.88637  0.79617  1.0000
  H   H28       1.0  0.11093  0.44697  0.03717  1.0000
  H   H29       1.0  0.55303  0.66397  0.03717  1.0000
  H   H30       1.0  0.33603  0.88907  0.03717  1.0000
  H   H31       1.0  0.44697  0.11093  0.46283  1.0000
  H   H32       1.0  0.88907  0.33603  0.46283  1.0000
  H   H33       1.0  0.66397  0.55303  0.46283  1.0000
  H   H34       1.0  0.44427  0.11363  0.70383  1.0000
  H   H35       1.0  0.88637  0.33063  0.70383  1.0000
  H   H36       1.0  0.66937  0.55573  0.70383  1.0000
  C   C109      1.0  0.14470  0.31890  0.93420  1.0000
  C   C110      1.0  0.68110  0.82580  0.93420  1.0000
  C   C111      1.0  0.17420  0.85530  0.93420  1.0000
  C   C112      1.0  0.31890  0.14470  0.56580  1.0000
  C   C113      1.0  0.85530  0.17420  0.56580  1.0000
  C   C114      1.0  0.82580  0.68110  0.56580  1.0000
  C   C115      1.0  0.81137  0.65223  0.26753  1.0000
  C   C116      1.0  0.34777  0.15913  0.26753  1.0000
  C   C117      1.0  0.84087  0.18863  0.26753  1.0000
  C   C118      1.0  0.98557  0.47803  0.89913  1.0000
  C   C119      1.0  0.52197  0.50753  0.89913  1.0000
  C   C120      1.0  0.49247  0.01443  0.89913  1.0000
  C   C121      1.0  0.47803  0.98557  0.60087  1.0000
  C   C122      1.0  0.01443  0.49247  0.60087  1.0000
  C   C123      1.0  0.50753  0.52197  0.60087  1.0000
  C   C124      1.0  0.65223  0.81137  0.23247  1.0000
  C   C125      1.0  0.18863  0.84087  0.23247  1.0000
  C   C126      1.0  0.15913  0.34777  0.23247  1.0000
  C   C127      1.0  0.85530  0.68110  0.06580  1.0000
  C   C128      1.0  0.31890  0.17420  0.06580  1.0000
  C   C129      1.0  0.82580  0.14470  0.06580  1.0000
  C   C130      1.0  0.68110  0.85530  0.43420  1.0000
  C   C131      1.0  0.14470  0.82580  0.43420  1.0000
  C   C132      1.0  0.17420  0.31890  0.43420  1.0000
  C   C133      1.0  0.18863  0.34777  0.73247  1.0000
  C   C134      1.0  0.65223  0.84087  0.73247  1.0000
  C   C135      1.0  0.15913  0.81137  0.73247  1.0000
  C   C136      1.0  0.01443  0.52197  0.10087  1.0000
  C   C137      1.0  0.47803  0.49247  0.10087  1.0000
  C   C138      1.0  0.50753  0.98557  0.10087  1.0000
  C   C139      1.0  0.52197  0.01443  0.39913  1.0000
  C   C140      1.0  0.98557  0.50753  0.39913  1.0000
  C   C141      1.0  0.49247  0.47803  0.39913  1.0000
  C   C142      1.0  0.34777  0.18863  0.76753  1.0000
  C   C143      1.0  0.81137  0.15913  0.76753  1.0000
  C   C144      1.0  0.84087  0.65223  0.76753  1.0000
  H   H37       1.0  0.10680  0.30840  0.95900  1.0000
  H   H38       1.0  0.69160  0.79840  0.95900  1.0000
  H   H39       1.0  0.20160  0.89320  0.95900  1.0000
  H   H40       1.0  0.30840  0.10680  0.54100  1.0000
  H   H41       1.0  0.89320  0.20160  0.54100  1.0000
  H   H42       1.0  0.79840  0.69160  0.54100  1.0000
  H   H43       1.0  0.77347  0.64173  0.29233  1.0000
  H   H44       1.0  0.35827  0.13173  0.29233  1.0000
  H   H45       1.0  0.86827  0.22653  0.29233  1.0000
  H   H46       1.0  0.97507  0.44013  0.87433  1.0000
  H   H47       1.0  0.55987  0.53493  0.87433  1.0000
  H   H48       1.0  0.46507  0.02493  0.87433  1.0000
  H   H49       1.0  0.44013  0.97507  0.62567  1.0000
  H   H50       1.0  0.02493  0.46507  0.62567  1.0000
  H   H51       1.0  0.53493  0.55987  0.62567  1.0000
  H   H52       1.0  0.64173  0.77347  0.20767  1.0000
  H   H53       1.0  0.22653  0.86827  0.20767  1.0000
  H   H54       1.0  0.13173  0.35827  0.20767  1.0000
  H   H55       1.0  0.89320  0.69160  0.04100  1.0000
  H   H56       1.0  0.30840  0.20160  0.04100  1.0000
  H   H57       1.0  0.79840  0.10680  0.04100  1.0000
  H   H58       1.0  0.69160  0.89320  0.45900  1.0000
  H   H59       1.0  0.10680  0.79840  0.45900  1.0000
  H   H60       1.0  0.20160  0.30840  0.45900  1.0000
  H   H61       1.0  0.22653  0.35827  0.70767  1.0000
  H   H62       1.0  0.64173  0.86827  0.70767  1.0000
  H   H63       1.0  0.13173  0.77347  0.70767  1.0000
  H   H64       1.0  0.02493  0.55987  0.12567  1.0000
  H   H65       1.0  0.44013  0.46507  0.12567  1.0000
  H   H66       1.0  0.53493  0.97507  0.12567  1.0000
  H   H67       1.0  0.55987  0.02493  0.37433  1.0000
  H   H68       1.0  0.97507  0.53493  0.37433  1.0000
  H   H69       1.0  0.46507  0.44013  0.37433  1.0000
  H   H70       1.0  0.35827  0.22653  0.79233  1.0000
  H   H71       1.0  0.77347  0.13173  0.79233  1.0000
  H   H72       1.0  0.86827  0.64173  0.79233  1.0000
  C   C145      1.0  0.18880  0.40060  0.91560  1.0000
  C   C146      1.0  0.59940  0.78820  0.91560  1.0000
  C   C147      1.0  0.21180  0.81120  0.91560  1.0000
  C   C148      1.0  0.40060  0.18880  0.58440  1.0000
  C   C149      1.0  0.81120  0.21180  0.58440  1.0000
  C   C150      1.0  0.78820  0.59940  0.58440  1.0000
  C   C151      1.0  0.85547  0.73393  0.24893  1.0000
  C   C152      1.0  0.26607  0.12153  0.24893  1.0000
  C   C153      1.0  0.87847  0.14453  0.24893  1.0000
  C   C154      1.0  0.06727  0.52213  0.91773  1.0000
  C   C155      1.0  0.47787  0.54513  0.91773  1.0000
  C   C156      1.0  0.45487  0.93273  0.91773  1.0000
  C   C157      1.0  0.52213  0.06727  0.58227  1.0000
  C   C158      1.0  0.93273  0.45487  0.58227  1.0000
  C   C159      1.0  0.54513  0.47787  0.58227  1.0000
  C   C160      1.0  0.73393  0.85547  0.25107  1.0000
  C   C161      1.0  0.14453  0.87847  0.25107  1.0000
  C   C162      1.0  0.12153  0.26607  0.25107  1.0000
  C   C163      1.0  0.81120  0.59940  0.08440  1.0000
  C   C164      1.0  0.40060  0.21180  0.08440  1.0000
  C   C165      1.0  0.78820  0.18880  0.08440  1.0000
  C   C166      1.0  0.59940  0.81120  0.41560  1.0000
  C   C167      1.0  0.18880  0.78820  0.41560  1.0000
  C   C168      1.0  0.21180  0.40060  0.41560  1.0000
  C   C169      1.0  0.14453  0.26607  0.75107  1.0000
  C   C170      1.0  0.73393  0.87847  0.75107  1.0000
  C   C171      1.0  0.12153  0.85547  0.75107  1.0000
  C   C172      1.0  0.93273  0.47787  0.08227  1.0000
  C   C173      1.0  0.52213  0.45487  0.08227  1.0000
  C   C174      1.0  0.54513  0.06727  0.08227  1.0000
  C   C175      1.0  0.47787  0.93273  0.41773  1.0000
  C   C176      1.0  0.06727  0.54513  0.41773  1.0000
  C   C177      1.0  0.45487  0.52213  0.41773  1.0000
  C   C178      1.0  0.26607  0.14453  0.74893  1.0000
  C   C179      1.0  0.85547  0.12153  0.74893  1.0000
  C   C180      1.0  0.87847  0.73393  0.74893  1.0000
  H   H73       1.0  0.18140  0.44620  0.92770  1.0000
  H   H74       1.0  0.55380  0.73520  0.92770  1.0000
  H   H75       1.0  0.26480  0.81860  0.92770  1.0000
  H   H76       1.0  0.44620  0.18140  0.57230  1.0000
  H   H77       1.0  0.81860  0.26480  0.57230  1.0000
  H   H78       1.0  0.73520  0.55380  0.57230  1.0000
  H   H79       1.0  0.84807  0.77953  0.26103  1.0000
  H   H80       1.0  0.22047  0.06853  0.26103  1.0000
  H   H81       1.0  0.93147  0.15193  0.26103  1.0000
  H   H82       1.0  0.11287  0.51473  0.90563  1.0000
  H   H83       1.0  0.48527  0.59813  0.90563  1.0000
  H   H84       1.0  0.40187  0.88713  0.90563  1.0000
  H   H85       1.0  0.51473  0.11287  0.59437  1.0000
  H   H86       1.0  0.88713  0.40187  0.59437  1.0000
  H   H87       1.0  0.59813  0.48527  0.59437  1.0000
  H   H88       1.0  0.77953  0.84807  0.23897  1.0000
  H   H89       1.0  0.15193  0.93147  0.23897  1.0000
  H   H90       1.0  0.06853  0.22047  0.23897  1.0000
  H   H91       1.0  0.81860  0.55380  0.07230  1.0000
  H   H92       1.0  0.44620  0.26480  0.07230  1.0000
  H   H93       1.0  0.73520  0.18140  0.07230  1.0000
  H   H94       1.0  0.55380  0.81860  0.42770  1.0000
  H   H95       1.0  0.18140  0.73520  0.42770  1.0000
  H   H96       1.0  0.26480  0.44620  0.42770  1.0000
  H   H97       1.0  0.15193  0.22047  0.73897  1.0000
  H   H98       1.0  0.77953  0.93147  0.73897  1.0000
  H   H99       1.0  0.06853  0.84807  0.73897  1.0000
  H   H100      1.0  0.88713  0.48527  0.09437  1.0000
  H   H101      1.0  0.51473  0.40187  0.09437  1.0000
  H   H102      1.0  0.59813  0.11287  0.09437  1.0000
  H   H103      1.0  0.48527  0.88713  0.40563  1.0000
  H   H104      1.0  0.11287  0.59813  0.40563  1.0000
  H   H105      1.0  0.40187  0.51473  0.40563  1.0000
  H   H106      1.0  0.22047  0.15193  0.76103  1.0000
  H   H107      1.0  0.84807  0.06853  0.76103  1.0000
  H   H108      1.0  0.93147  0.77953  0.76103  1.0000
  C   C181      1.0  0.25700  0.35090  0.86280  1.0000
  C   C182      1.0  0.64910  0.90610  0.86280  1.0000
  C   C183      1.0  0.09390  0.74300  0.86280  1.0000
  C   C184      1.0  0.35090  0.25700  0.63720  1.0000
  C   C185      1.0  0.74300  0.09390  0.63720  1.0000
  C   C186      1.0  0.90610  0.64910  0.63720  1.0000
  C   C187      1.0  0.92367  0.68423  0.19613  1.0000
  C   C188      1.0  0.31577  0.23943  0.19613  1.0000
  C   C189      1.0  0.76057  0.07633  0.19613  1.0000
  C   C190      1.0  0.01757  0.59033  0.97053  1.0000
  C   C191      1.0  0.40967  0.42723  0.97053  1.0000
  C   C192      1.0  0.57277  0.98243  0.97053  1.0000
  C   C193      1.0  0.59033  0.01757  0.52947  1.0000
  C   C194      1.0  0.98243  0.57277  0.52947  1.0000
  C   C195      1.0  0.42723  0.40967  0.52947  1.0000
  C   C196      1.0  0.68423  0.92367  0.30387  1.0000
  C   C197      1.0  0.07633  0.76057  0.30387  1.0000
  C   C198      1.0  0.23943  0.31577  0.30387  1.0000
  C   C199      1.0  0.74300  0.64910  0.13720  1.0000
  C   C200      1.0  0.35090  0.09390  0.13720  1.0000
  C   C201      1.0  0.90610  0.25700  0.13720  1.0000
  C   C202      1.0  0.64910  0.74300  0.36280  1.0000
  C   C203      1.0  0.25700  0.90610  0.36280  1.0000
  C   C204      1.0  0.09390  0.35090  0.36280  1.0000
  C   C205      1.0  0.07633  0.31577  0.80387  1.0000
  C   C206      1.0  0.68423  0.76057  0.80387  1.0000
  C   C207      1.0  0.23943  0.92367  0.80387  1.0000
  C   C208      1.0  0.98243  0.40967  0.02947  1.0000
  C   C209      1.0  0.59033  0.57277  0.02947  1.0000
  C   C210      1.0  0.42723  0.01757  0.02947  1.0000
  C   C211      1.0  0.40967  0.98243  0.47053  1.0000
  C   C212      1.0  0.01757  0.42723  0.47053  1.0000
  C   C213      1.0  0.57277  0.59033  0.47053  1.0000
  C   C214      1.0  0.31577  0.07633  0.69613  1.0000
  C   C215      1.0  0.92367  0.23943  0.69613  1.0000
  C   C216      1.0  0.76057  0.68423  0.69613  1.0000
  H   H109      1.0  0.29630  0.36200  0.83860  1.0000
  H   H110      1.0  0.63800  0.93430  0.83860  1.0000
  H   H111      1.0  0.06570  0.70370  0.83860  1.0000
  H   H112      1.0  0.36200  0.29630  0.66140  1.0000
  H   H113      1.0  0.70370  0.06570  0.66140  1.0000
  H   H114      1.0  0.93430  0.63800  0.66140  1.0000
  H   H115      1.0  0.96297  0.69533  0.17193  1.0000
  H   H116      1.0  0.30467  0.26763  0.17193  1.0000
  H   H117      1.0  0.73237  0.03703  0.17193  1.0000
  H   H118      1.0  0.02867  0.62963  0.99473  1.0000
  H   H119      1.0  0.37037  0.39903  0.99473  1.0000
  H   H120      1.0  0.60097  0.97133  0.99473  1.0000
  H   H121      1.0  0.62963  0.02867  0.50527  1.0000
  H   H122      1.0  0.97133  0.60097  0.50527  1.0000
  H   H123      1.0  0.39903  0.37037  0.50527  1.0000
  H   H124      1.0  0.69533  0.96297  0.32807  1.0000
  H   H125      1.0  0.03703  0.73237  0.32807  1.0000
  H   H126      1.0  0.26763  0.30467  0.32807  1.0000
  H   H127      1.0  0.70370  0.63800  0.16140  1.0000
  H   H128      1.0  0.36200  0.06570  0.16140  1.0000
  H   H129      1.0  0.93430  0.29630  0.16140  1.0000
  H   H130      1.0  0.63800  0.70370  0.33860  1.0000
  H   H131      1.0  0.29630  0.93430  0.33860  1.0000
  H   H132      1.0  0.06570  0.36200  0.33860  1.0000
  H   H133      1.0  0.03703  0.30467  0.82807  1.0000
  H   H134      1.0  0.69533  0.73237  0.82807  1.0000
  H   H135      1.0  0.26763  0.96297  0.82807  1.0000
  H   H136      1.0  0.97133  0.37037  0.00527  1.0000
  H   H137      1.0  0.62963  0.60097  0.00527  1.0000
  H   H138      1.0  0.39903  0.02867  0.00527  1.0000
  H   H139      1.0  0.37037  0.97133  0.49473  1.0000
  H   H140      1.0  0.02867  0.39903  0.49473  1.0000
  H   H141      1.0  0.60097  0.62963  0.49473  1.0000
  H   H142      1.0  0.30467  0.03703  0.67193  1.0000
  H   H143      1.0  0.96297  0.26763  0.67193  1.0000
  H   H144      1.0  0.73237  0.69533  0.67193  1.0000
  C   C217      1.0  0.24420  0.41730  0.87940  1.0000
  C   C218      1.0  0.58270  0.82690  0.87940  1.0000
  C   C219      1.0  0.17310  0.75580  0.87940  1.0000
  C   C220      1.0  0.41730  0.24420  0.62060  1.0000
  C   C221      1.0  0.75580  0.17310  0.62060  1.0000
  C   C222      1.0  0.82690  0.58270  0.62060  1.0000
  C   C223      1.0  0.91087  0.75063  0.21273  1.0000
  C   C224      1.0  0.24937  0.16023  0.21273  1.0000
  C   C225      1.0  0.83977  0.08913  0.21273  1.0000
  C   C226      1.0  0.08397  0.57753  0.95393  1.0000
  C   C227      1.0  0.42247  0.50643  0.95393  1.0000
  C   C228      1.0  0.49357  0.91603  0.95393  1.0000
  C   C229      1.0  0.57753  0.08397  0.54607  1.0000
  C   C230      1.0  0.91603  0.49357  0.54607  1.0000
  C   C231      1.0  0.50643  0.42247  0.54607  1.0000
  C   C232      1.0  0.75063  0.91087  0.28727  1.0000
  C   C233      1.0  0.08913  0.83977  0.28727  1.0000
  C   C234      1.0  0.16023  0.24937  0.28727  1.0000
  C   C235      1.0  0.75580  0.58270  0.12060  1.0000
  C   C236      1.0  0.41730  0.17310  0.12060  1.0000
  C   C237      1.0  0.82690  0.24420  0.12060  1.0000
  C   C238      1.0  0.58270  0.75580  0.37940  1.0000
  C   C239      1.0  0.24420  0.82690  0.37940  1.0000
  C   C240      1.0  0.17310  0.41730  0.37940  1.0000
  C   C241      1.0  0.08913  0.24937  0.78727  1.0000
  C   C242      1.0  0.75063  0.83977  0.78727  1.0000
  C   C243      1.0  0.16023  0.91087  0.78727  1.0000
  C   C244      1.0  0.91603  0.42247  0.04607  1.0000
  C   C245      1.0  0.57753  0.49357  0.04607  1.0000
  C   C246      1.0  0.50643  0.08397  0.04607  1.0000
  C   C247      1.0  0.42247  0.91603  0.45393  1.0000
  C   C248      1.0  0.08397  0.50643  0.45393  1.0000
  C   C249      1.0  0.49357  0.57753  0.45393  1.0000
  C   C250      1.0  0.24937  0.08913  0.71273  1.0000
  C   C251      1.0  0.91087  0.16023  0.71273  1.0000
  C   C252      1.0  0.83977  0.75063  0.71273  1.0000
  C   C253      1.0  0.28400  0.50430  0.85610  1.0000
  C   C254      1.0  0.49570  0.77970  0.85610  1.0000
  C   C255      1.0  0.22030  0.71600  0.85610  1.0000
  C   C256      1.0  0.50430  0.28400  0.64390  1.0000
  C   C257      1.0  0.71600  0.22030  0.64390  1.0000
  C   C258      1.0  0.77970  0.49570  0.64390  1.0000
  C   C259      1.0  0.95067  0.83763  0.18943  1.0000
  C   C260      1.0  0.16237  0.11303  0.18943  1.0000
  C   C261      1.0  0.88697  0.04933  0.18943  1.0000
  C   C262      1.0  0.17097  0.61733  0.97723  1.0000
  C   C263      1.0  0.38267  0.55363  0.97723  1.0000
  C   C264      1.0  0.44637  0.82903  0.97723  1.0000
  C   C265      1.0  0.61733  0.17097  0.52277  1.0000
  C   C266      1.0  0.82903  0.44637  0.52277  1.0000
  C   C267      1.0  0.55363  0.38267  0.52277  1.0000
  C   C268      1.0  0.83763  0.95067  0.31057  1.0000
  C   C269      1.0  0.04933  0.88697  0.31057  1.0000
  C   C270      1.0  0.11303  0.16237  0.31057  1.0000
  C   C271      1.0  0.71600  0.49570  0.14390  1.0000
  C   C272      1.0  0.50430  0.22030  0.14390  1.0000
  C   C273      1.0  0.77970  0.28400  0.14390  1.0000
  C   C274      1.0  0.49570  0.71600  0.35610  1.0000
  C   C275      1.0  0.28400  0.77970  0.35610  1.0000
  C   C276      1.0  0.22030  0.50430  0.35610  1.0000
  C   C277      1.0  0.04933  0.16237  0.81057  1.0000
  C   C278      1.0  0.83763  0.88697  0.81057  1.0000
  C   C279      1.0  0.11303  0.95067  0.81057  1.0000
  C   C280      1.0  0.82903  0.38267  0.02277  1.0000
  C   C281      1.0  0.61733  0.44637  0.02277  1.0000
  C   C282      1.0  0.55363  0.17097  0.02277  1.0000
  C   C283      1.0  0.38267  0.82903  0.47723  1.0000
  C   C284      1.0  0.17097  0.55363  0.47723  1.0000
  C   C285      1.0  0.44637  0.61733  0.47723  1.0000
  C   C286      1.0  0.16237  0.04933  0.68943  1.0000
  C   C287      1.0  0.95067  0.11303  0.68943  1.0000
  C   C288      1.0  0.88697  0.83763  0.68943  1.0000
  Bi  Bi1       1.0  0.00000  0.00000  0.00000  1.0000
  Bi  Bi2       1.0  0.00000  0.00000  0.50000  1.0000
  Bi  Bi3       1.0  0.66667  0.33333  0.33333  1.0000
  Bi  Bi4       1.0  0.66667  0.33333  0.83333  1.0000
  Bi  Bi5       1.0  0.33333  0.66667  0.66667  1.0000
  Bi  Bi6       1.0  0.33333  0.66667  0.16667  1.0000
  Bi  Bi7       1.0  0.00000  0.00000  0.85014  1.0000
  Bi  Bi8       1.0  0.00000  0.00000  0.64986  1.0000
  Bi  Bi9       1.0  0.66667  0.33333  0.18347  1.0000
  Bi  Bi10      1.0  0.66667  0.33333  0.98319  1.0000
  Bi  Bi11      1.0  0.33333  0.66667  0.51681  1.0000
  Bi  Bi12      1.0  0.33333  0.66667  0.31653  1.0000
  Bi  Bi13      1.0  0.00000  0.00000  0.14986  1.0000
  Bi  Bi14      1.0  0.00000  0.00000  0.35014  1.0000
  Bi  Bi15      1.0  0.33333  0.66667  0.81653  1.0000
  Bi  Bi16      1.0  0.33333  0.66667  0.01681  1.0000
  Bi  Bi17      1.0  0.66667  0.33333  0.48319  1.0000
  Bi  Bi18      1.0  0.66667  0.33333  0.68347  1.0000
  O   O1        1.0  0.05980  0.15140  0.97130  1.0000
  O   O2        1.0  0.84860  0.90840  0.97130  1.0000
  O   O3        1.0  0.09160  0.94020  0.97130  1.0000
  O   O4        1.0  0.15140  0.05980  0.52870  1.0000
  O   O5        1.0  0.94020  0.09160  0.52870  1.0000
  O   O6        1.0  0.90840  0.84860  0.52870  1.0000
  O   O7        1.0  0.72647  0.48473  0.30463  1.0000
  O   O8        1.0  0.51527  0.24173  0.30463  1.0000
  O   O9        1.0  0.75827  0.27353  0.30463  1.0000
  O   O10       1.0  0.81807  0.39313  0.86203  1.0000
  O   O11       1.0  0.60687  0.42493  0.86203  1.0000
  O   O12       1.0  0.57507  0.18193  0.86203  1.0000
  O   O13       1.0  0.39313  0.81807  0.63797  1.0000
  O   O14       1.0  0.18193  0.57507  0.63797  1.0000
  O   O15       1.0  0.42493  0.60687  0.63797  1.0000
  O   O16       1.0  0.48473  0.72647  0.19537  1.0000
  O   O17       1.0  0.27353  0.75827  0.19537  1.0000
  O   O18       1.0  0.24173  0.51527  0.19537  1.0000
  O   O19       1.0  0.94020  0.84860  0.02870  1.0000
  O   O20       1.0  0.15140  0.09160  0.02870  1.0000
  O   O21       1.0  0.90840  0.05980  0.02870  1.0000
  O   O22       1.0  0.84860  0.94020  0.47130  1.0000
  O   O23       1.0  0.05980  0.90840  0.47130  1.0000
  O   O24       1.0  0.09160  0.15140  0.47130  1.0000
  O   O25       1.0  0.27353  0.51527  0.69537  1.0000
  O   O26       1.0  0.48473  0.75827  0.69537  1.0000
  O   O27       1.0  0.24173  0.72647  0.69537  1.0000
  O   O28       1.0  0.18193  0.60687  0.13797  1.0000
  O   O29       1.0  0.39313  0.57507  0.13797  1.0000
  O   O30       1.0  0.42493  0.81807  0.13797  1.0000
  O   O31       1.0  0.60687  0.18193  0.36203  1.0000
  O   O32       1.0  0.81807  0.42493  0.36203  1.0000
  O   O33       1.0  0.57507  0.39313  0.36203  1.0000
  O   O34       1.0  0.51527  0.27353  0.80463  1.0000
  O   O35       1.0  0.72647  0.24173  0.80463  1.0000
  O   O36       1.0  0.75827  0.48473  0.80463  1.0000
  O   O37       1.0  0.10340  0.09740  0.91730  1.0000
  O   O38       1.0  0.90260  0.00600  0.91730  1.0000
  O   O39       1.0  0.99400  0.89660  0.91730  1.0000
  O   O40       1.0  0.09740  0.10340  0.58270  1.0000
  O   O41       1.0  0.89660  0.99400  0.58270  1.0000
  O   O42       1.0  0.00600  0.90260  0.58270  1.0000
  O   O43       1.0  0.77007  0.43073  0.25063  1.0000
  O   O44       1.0  0.56927  0.33933  0.25063  1.0000
  O   O45       1.0  0.66067  0.22993  0.25063  1.0000
  O   O46       1.0  0.76407  0.43673  0.91603  1.0000
  O   O47       1.0  0.56327  0.32733  0.91603  1.0000
  O   O48       1.0  0.67267  0.23593  0.91603  1.0000
  O   O49       1.0  0.43673  0.76407  0.58397  1.0000
  O   O50       1.0  0.23593  0.67267  0.58397  1.0000
  O   O51       1.0  0.32733  0.56327  0.58397  1.0000
  O   O52       1.0  0.43073  0.77007  0.24937  1.0000
  O   O53       1.0  0.22993  0.66067  0.24937  1.0000
  O   O54       1.0  0.33933  0.56927  0.24937  1.0000
  O   O55       1.0  0.89660  0.90260  0.08270  1.0000
  O   O56       1.0  0.09740  0.99400  0.08270  1.0000
  O   O57       1.0  0.00600  0.10340  0.08270  1.0000
  O   O58       1.0  0.90260  0.89660  0.41730  1.0000
  O   O59       1.0  0.10340  0.00600  0.41730  1.0000
  O   O60       1.0  0.99400  0.09740  0.41730  1.0000
  O   O61       1.0  0.22993  0.56927  0.74937  1.0000
  O   O62       1.0  0.43073  0.66067  0.74937  1.0000
  O   O63       1.0  0.33933  0.77007  0.74937  1.0000
  O   O64       1.0  0.23593  0.56327  0.08397  1.0000
  O   O65       1.0  0.43673  0.67267  0.08397  1.0000
  O   O66       1.0  0.32733  0.76407  0.08397  1.0000
  O   O67       1.0  0.56327  0.23593  0.41603  1.0000
  O   O68       1.0  0.76407  0.32733  0.41603  1.0000
  O   O69       1.0  0.67267  0.43673  0.41603  1.0000
  O   O70       1.0  0.56927  0.22993  0.75063  1.0000
  O   O71       1.0  0.77007  0.33933  0.75063  1.0000
  O   O72       1.0  0.66067  0.43073  0.75063  1.0000
  O   O73       1.0  0.25630  0.55570  0.86750  1.0000
  O   O74       1.0  0.44430  0.70060  0.86750  1.0000
  O   O75       1.0  0.29940  0.74370  0.86750  1.0000
  O   O76       1.0  0.55570  0.25630  0.63250  1.0000
  O   O77       1.0  0.74370  0.29940  0.63250  1.0000
  O   O78       1.0  0.70060  0.44430  0.63250  1.0000
  O   O79       1.0  0.92297  0.88903  0.20083  1.0000
  O   O80       1.0  0.11097  0.03393  0.20083  1.0000
  O   O81       1.0  0.96607  0.07703  0.20083  1.0000
  O   O82       1.0  0.22237  0.58963  0.96583  1.0000
  O   O83       1.0  0.41037  0.63273  0.96583  1.0000
  O   O84       1.0  0.36727  0.77763  0.96583  1.0000
  O   O85       1.0  0.58963  0.22237  0.53417  1.0000
  O   O86       1.0  0.77763  0.36727  0.53417  1.0000
  O   O87       1.0  0.63273  0.41037  0.53417  1.0000
  O   O88       1.0  0.88903  0.92297  0.29917  1.0000
  O   O89       1.0  0.07703  0.96607  0.29917  1.0000
  O   O90       1.0  0.03393  0.11097  0.29917  1.0000
  O   O91       1.0  0.74370  0.44430  0.13250  1.0000
  O   O92       1.0  0.55570  0.29940  0.13250  1.0000
  O   O93       1.0  0.70060  0.25630  0.13250  1.0000
  O   O94       1.0  0.44430  0.74370  0.36750  1.0000
  O   O95       1.0  0.25630  0.70060  0.36750  1.0000
  O   O96       1.0  0.29940  0.55570  0.36750  1.0000
  O   O97       1.0  0.07703  0.11097  0.79917  1.0000
  O   O98       1.0  0.88903  0.96607  0.79917  1.0000
  O   O99       1.0  0.03393  0.92297  0.79917  1.0000
  O   O100      1.0  0.77763  0.41037  0.03417  1.0000
  O   O101      1.0  0.58963  0.36727  0.03417  1.0000
  O   O102      1.0  0.63273  0.22237  0.03417  1.0000
  O   O103      1.0  0.41037  0.77763  0.46583  1.0000
  O   O104      1.0  0.22237  0.63273  0.46583  1.0000
  O   O105      1.0  0.36727  0.58963  0.46583  1.0000
  O   O106      1.0  0.11097  0.07703  0.70083  1.0000
  O   O107      1.0  0.92297  0.03393  0.70083  1.0000
  O   O108      1.0  0.96607  0.88903  0.70083  1.0000
  O   O109      1.0  0.33820  0.52270  0.82600  1.0000
  O   O110      1.0  0.47730  0.81550  0.82600  1.0000
  O   O111      1.0  0.18450  0.66180  0.82600  1.0000
  O   O112      1.0  0.52270  0.33820  0.67400  1.0000
  O   O113      1.0  0.66180  0.18450  0.67400  1.0000
  O   O114      1.0  0.81550  0.47730  0.67400  1.0000
  O   O115      1.0  0.00487  0.85603  0.15933  1.0000
  O   O116      1.0  0.14397  0.14883  0.15933  1.0000
  O   O117      1.0  0.85117  0.99513  0.15933  1.0000
  O   O118      1.0  0.18937  0.67153  0.00733  1.0000
  O   O119      1.0  0.32847  0.51783  0.00733  1.0000
  O   O120      1.0  0.48217  0.81063  0.00733  1.0000
  O   O121      1.0  0.67153  0.18937  0.49267  1.0000
  O   O122      1.0  0.81063  0.48217  0.49267  1.0000
  O   O123      1.0  0.51783  0.32847  0.49267  1.0000
  O   O124      1.0  0.85603  0.00487  0.34067  1.0000
  O   O125      1.0  0.99513  0.85117  0.34067  1.0000
  O   O126      1.0  0.14883  0.14397  0.34067  1.0000
  O   O127      1.0  0.66180  0.47730  0.17400  1.0000
  O   O128      1.0  0.52270  0.18450  0.17400  1.0000
  O   O129      1.0  0.81550  0.33820  0.17400  1.0000
  O   O130      1.0  0.47730  0.66180  0.32600  1.0000
  O   O131      1.0  0.33820  0.81550  0.32600  1.0000
  O   O132      1.0  0.18450  0.52270  0.32600  1.0000
  O   O133      1.0  0.99513  0.14397  0.84067  1.0000
  O   O134      1.0  0.85603  0.85117  0.84067  1.0000
  O   O135      1.0  0.14883  0.00487  0.84067  1.0000
  O   O136      1.0  0.81063  0.32847  0.99267  1.0000
  O   O137      1.0  0.67153  0.48217  0.99267  1.0000
  O   O138      1.0  0.51783  0.18937  0.99267  1.0000
  O   O139      1.0  0.32847  0.81063  0.50733  1.0000
  O   O140      1.0  0.18937  0.51783  0.50733  1.0000
  O   O141      1.0  0.48217  0.67153  0.50733  1.0000
  O   O142      1.0  0.14397  0.99513  0.65933  1.0000
  O   O143      1.0  0.00487  0.14883  0.65933  1.0000
  O   O144      1.0  0.85117  0.85603  0.65933  1.0000
