data_image0
_chemical_formula_structural       Na2P2O20N2C4H4C2H28
_chemical_formula_sum              "Na2 P2 O20 N2 C6 H32"
_cell_length_a       6.365
_cell_length_b       7.186
_cell_length_c       17.816
_cell_angle_alpha    90
_cell_angle_beta     94.04
_cell_angle_gamma    90

_space_group_name_H-M_alt    "P 1"
_space_group_IT_number       1

loop_
  _space_group_symop_operation_xyz
  'x, y, z'

loop_
  _atom_site_type_symbol
  _atom_site_label
  _atom_site_symmetry_multiplicity
  _atom_site_fract_x
  _atom_site_fract_y
  _atom_site_fract_z
  _atom_site_occupancy
  Na  Na1       1.0  0.71477  0.89594  0.33015  1.0000
  Na  Na2       1.0  0.28523  0.39594  0.66985  1.0000
  P   P1        1.0  0.09179  0.42201  0.21719  1.0000
  P   P2        1.0  0.90821  0.92201  0.78281  1.0000
  O   O1        1.0  0.73530  0.59930  0.39564  1.0000
  O   O2        1.0  0.26470  0.09930  0.60436  1.0000
  O   O3        1.0  0.76020  0.40900  0.49499  1.0000
  O   O4        1.0  0.23980  0.90900  0.50501  1.0000
  O   O5        1.0  0.20610  0.25940  0.18452  1.0000
  O   O6        1.0  0.79390  0.75940  0.81548  1.0000
  O   O7        1.0  0.18400  0.60740  0.19370  1.0000
  O   O8        1.0  0.81600  0.10740  0.80630  1.0000
  O   O9        1.0  0.85560  0.41180  0.20306  1.0000
  O   O10       1.0  0.14440  0.91180  0.79694  1.0000
  O   O11       1.0  0.59740  0.72440  0.21663  1.0000
  O   O12       1.0  0.40260  0.22440  0.78337  1.0000
  O   O13       1.0  0.59230  0.18150  0.27070  1.0000
  O   O14       1.0  0.40770  0.68150  0.72930  1.0000
  O   O15       1.0  0.03110  0.93250  0.25373  1.0000
  O   O16       1.0  0.96890  0.43250  0.74627  1.0000
  O   O17       1.0  0.88190  0.05530  0.43317  1.0000
  O   O18       1.0  0.11810  0.55530  0.56683  1.0000
  O   O19       1.0  0.35690  0.85590  0.36249  1.0000
  O   O20       1.0  0.64310  0.35590  0.63751  1.0000
  N   N1        1.0  0.36640  0.46120  0.34300  1.0000
  N   N2        1.0  0.63360  0.96120  0.65700  1.0000
  C   C1        1.0  0.66450  0.48300  0.43857  1.0000
  C   C2        1.0  0.33550  0.98300  0.56143  1.0000
  C   C3        1.0  0.43950  0.41280  0.42107  1.0000
  C   C4        1.0  0.56050  0.91280  0.57893  1.0000
  H   H1        1.0  0.43520  0.27890  0.42760  1.0000
  H   H2        1.0  0.56480  0.77890  0.57240  1.0000
  H   H3        1.0  0.34690  0.46870  0.45570  1.0000
  H   H4        1.0  0.65310  0.96870  0.54430  1.0000
  C   C5        1.0  0.14330  0.40940  0.31949  1.0000
  C   C6        1.0  0.85670  0.90940  0.68051  1.0000
  H   H5        1.0  0.04840  0.49290  0.34330  1.0000
  H   H6        1.0  0.95160  0.99290  0.65670  1.0000
  H   H7        1.0  0.11590  0.28400  0.33640  1.0000
  H   H8        1.0  0.88410  0.78400  0.66360  1.0000
  H   H9        1.0  0.47300  0.70200  0.20000  1.0000
  H   H10       1.0  0.52700  0.20200  0.80000  1.0000
  H   H11       1.0  0.68500  0.62400  0.21100  1.0000
  H   H12       1.0  0.31500  0.12400  0.78900  1.0000
  H   H13       1.0  0.50000  0.17300  0.24200  1.0000
  H   H14       1.0  0.50000  0.67300  0.75800  1.0000
  H   H15       1.0  0.69800  0.25000  0.24700  1.0000
  H   H16       1.0  0.30200  0.75000  0.75300  1.0000
  H   H17       1.0  0.06400  0.84800  0.23690  1.0000
  H   H18       1.0  0.93600  0.34800  0.76310  1.0000
  H   H19       1.0  0.98800  0.99800  0.45500  1.0000
  H   H20       1.0  0.01200  0.49800  0.54500  1.0000
  H   H21       1.0  0.86000  0.14500  0.45200  1.0000
  H   H22       1.0  0.14000  0.64500  0.54800  1.0000
  H   H23       1.0  0.25200  0.88200  0.33720  1.0000
  H   H24       1.0  0.74800  0.38200  0.66280  1.0000
  H   H25       1.0  0.33900  0.87000  0.40600  1.0000
  H   H26       1.0  0.66100  0.37000  0.59400  1.0000
  H   H27       1.0  0.46000  0.41000  0.31600  1.0000
  H   H28       1.0  0.54000  0.91000  0.68400  1.0000
  H   H29       1.0  0.38300  0.58900  0.33950  1.0000
  H   H30       1.0  0.61700  0.08900  0.66050  1.0000
  H   H31       1.0  0.11300  0.02300  0.22300  1.0000
  H   H32       1.0  0.88700  0.52300  0.77700  1.0000
