data_image0
_chemical_formula_structural       Zn4C8H4C8H4C8H4C12O24
_chemical_formula_sum              "Zn4 C36 H12 O24"
_cell_length_a       9.506
_cell_length_b       15.482
_cell_length_c       12.498
_cell_angle_alpha    90
_cell_angle_beta     94.954
_cell_angle_gamma    90

_space_group_name_H-M_alt    "P 1"
_space_group_IT_number       1

loop_
  _space_group_symop_operation_xyz
  'x, y, z'

loop_
  _atom_site_type_symbol
  _atom_site_label
  _atom_site_symmetry_multiplicity
  _atom_site_fract_x
  _atom_site_fract_y
  _atom_site_fract_z
  _atom_site_occupancy
  Zn  Zn1       1.0  0.14014  0.08367  0.45719  1.0000
  Zn  Zn2       1.0  0.35986  0.58367  0.04281  1.0000
  Zn  Zn3       1.0  0.85986  0.91633  0.54281  1.0000
  Zn  Zn4       1.0  0.64014  0.41633  0.95719  1.0000
  C   C1        1.0  0.27180  0.88980  0.68540  1.0000
  C   C2        1.0  0.22820  0.38980  0.81460  1.0000
  C   C3        1.0  0.72820  0.11020  0.31460  1.0000
  C   C4        1.0  0.77180  0.61020  0.18540  1.0000
  C   C5        1.0  0.41020  0.90210  0.66160  1.0000
  C   C6        1.0  0.08980  0.40210  0.83840  1.0000
  C   C7        1.0  0.58980  0.09790  0.33840  1.0000
  C   C8        1.0  0.91020  0.59790  0.16160  1.0000
  H   H1        1.0  0.43110  0.94430  0.61240  1.0000
  H   H2        1.0  0.06890  0.44430  0.88760  1.0000
  H   H3        1.0  0.56890  0.05570  0.38760  1.0000
  H   H4        1.0  0.93110  0.55570  0.11240  1.0000
  C   C9        1.0  0.51830  0.85140  0.71160  1.0000
  C   C10       1.0  0.98170  0.35140  0.78840  1.0000
  C   C11       1.0  0.48170  0.14860  0.28840  1.0000
  C   C12       1.0  0.01830  0.64860  0.21160  1.0000
  C   C13       1.0  0.48700  0.79090  0.78790  1.0000
  C   C14       1.0  0.01300  0.29090  0.71210  1.0000
  C   C15       1.0  0.51300  0.20910  0.21210  1.0000
  C   C16       1.0  0.98700  0.70910  0.28790  1.0000
  H   H5        1.0  0.55910  0.75780  0.82200  1.0000
  H   H6        1.0  0.94090  0.25780  0.67800  1.0000
  H   H7        1.0  0.44090  0.24220  0.17800  1.0000
  H   H8        1.0  0.05910  0.74220  0.32200  1.0000
  C   C17       1.0  0.34840  0.77910  0.81410  1.0000
  C   C18       1.0  0.15160  0.27910  0.68590  1.0000
  C   C19       1.0  0.65160  0.22090  0.18590  1.0000
  C   C20       1.0  0.84840  0.72090  0.31410  1.0000
  C   C21       1.0  0.24170  0.82840  0.76180  1.0000
  C   C22       1.0  0.25830  0.32840  0.73820  1.0000
  C   C23       1.0  0.75830  0.17160  0.23820  1.0000
  C   C24       1.0  0.74170  0.67160  0.26180  1.0000
  H   H9        1.0  0.14880  0.82040  0.77790  1.0000
  H   H10       1.0  0.35120  0.32040  0.72210  1.0000
  H   H11       1.0  0.85120  0.17960  0.22210  1.0000
  H   H12       1.0  0.64880  0.67960  0.27790  1.0000
  C   C25       1.0  0.15250  0.93600  0.62060  1.0000
  C   C26       1.0  0.34750  0.43600  0.87940  1.0000
  C   C27       1.0  0.84750  0.06400  0.37940  1.0000
  C   C28       1.0  0.65250  0.56400  0.12060  1.0000
  C   C29       1.0  0.66600  0.85850  0.67560  1.0000
  C   C30       1.0  0.83400  0.35850  0.82440  1.0000
  C   C31       1.0  0.33400  0.14150  0.32440  1.0000
  C   C32       1.0  0.16600  0.64150  0.17560  1.0000
  C   C33       1.0  0.31270  0.71030  0.89280  1.0000
  C   C34       1.0  0.18730  0.21030  0.60720  1.0000
  C   C35       1.0  0.68730  0.28970  0.10720  1.0000
  C   C36       1.0  0.81270  0.78970  0.39280  1.0000
  O   O1        1.0  0.18690  0.97960  0.54330  1.0000
  O   O2        1.0  0.31310  0.47960  0.95670  1.0000
  O   O3        1.0  0.81310  0.02040  0.45670  1.0000
  O   O4        1.0  0.68690  0.52040  0.04330  1.0000
  O   O5        1.0  0.02920  0.92380  0.64530  1.0000
  O   O6        1.0  0.47080  0.42380  0.85470  1.0000
  O   O7        1.0  0.97080  0.07620  0.35470  1.0000
  O   O8        1.0  0.52920  0.57620  0.14530  1.0000
  O   O9        1.0  0.18950  0.68940  0.89910  1.0000
  O   O10       1.0  0.31050  0.18940  0.60090  1.0000
  O   O11       1.0  0.81050  0.31060  0.10090  1.0000
  O   O12       1.0  0.68950  0.81060  0.39910  1.0000
  O   O13       1.0  0.41630  0.67580  0.94830  1.0000
  O   O14       1.0  0.08370  0.17580  0.55170  1.0000
  O   O15       1.0  0.58370  0.32420  0.05170  1.0000
  O   O16       1.0  0.91630  0.82420  0.44830  1.0000
  O   O17       1.0  0.75190  0.79960  0.69830  1.0000
  O   O18       1.0  0.74810  0.29960  0.80170  1.0000
  O   O19       1.0  0.24810  0.20040  0.30170  1.0000
  O   O20       1.0  0.25190  0.70040  0.19830  1.0000
  O   O21       1.0  0.69040  0.92290  0.61920  1.0000
  O   O22       1.0  0.80960  0.42290  0.88080  1.0000
  O   O23       1.0  0.30960  0.07710  0.38080  1.0000
  O   O24       1.0  0.19040  0.57710  0.11920  1.0000
