data_image0
_chemical_formula_structural       CrCu2Mo6C4H2C2H2C2H2C4H2C2H2C4H2C2H2C2H2C4N4O2H2O2H2O2H2O22
_chemical_formula_sum              "Cr1 Cu2 Mo6 C26 H22 N4 O28"
_cell_length_a       11.4777
_cell_length_b       14.0993
_cell_length_c       17.1751
_cell_angle_alpha    76.829
_cell_angle_beta     72.209
_cell_angle_gamma    80.252

_space_group_name_H-M_alt    "P 1"
_space_group_IT_number       1

loop_
  _space_group_symop_operation_xyz
  'x, y, z'

loop_
  _atom_site_type_symbol
  _atom_site_label
  _atom_site_symmetry_multiplicity
  _atom_site_fract_x
  _atom_site_fract_y
  _atom_site_fract_z
  _atom_site_occupancy
  Cr  Cr1       1.0  0.50000  0.50000  0.00000  1.0000
  Cu  Cu1       1.0  0.97044  0.68942  0.96738  1.0000
  Cu  Cu2       1.0  0.02956  0.31058  0.03262  1.0000
  Mo  Mo1       1.0  0.74249  0.61199  0.87249  1.0000
  Mo  Mo2       1.0  0.25751  0.38801  0.12751  1.0000
  Mo  Mo3       1.0  0.76529  0.36874  0.92129  1.0000
  Mo  Mo4       1.0  0.23471  0.63126  0.07871  1.0000
  Mo  Mo5       1.0  0.52468  0.25434  0.04758  1.0000
  Mo  Mo6       1.0  0.47532  0.74566  0.95242  1.0000
  C   C1        1.0  0.04870  0.50100  0.95840  1.0000
  C   C2        1.0  0.95130  0.49900  0.04160  1.0000
  C   C3        1.0  0.77270  0.78600  0.09180  1.0000
  C   C4        1.0  0.22730  0.21400  0.90820  1.0000
  H   H1        1.0  0.75580  0.72400  0.12240  1.0000
  H   H2        1.0  0.24420  0.27600  0.87760  1.0000
  C   C5        1.0  0.70260  0.86840  0.12070  1.0000
  C   C6        1.0  0.29740  0.13160  0.87930  1.0000
  H   H3        1.0  0.63830  0.86070  0.16950  1.0000
  H   H4        1.0  0.36170  0.13930  0.83050  1.0000
  C   C7        1.0  0.72790  0.96050  0.07780  1.0000
  C   C8        1.0  0.27210  0.03950  0.92220  1.0000
  H   H5        1.0  0.68280  0.01570  0.09760  1.0000
  H   H6        1.0  0.31720  0.98430  0.90240  1.0000
  C   C9        1.0  0.82250  0.96990  0.00400  1.0000
  C   C10       1.0  0.17750  0.03010  0.99600  1.0000
  C   C11       1.0  0.86080  0.06250  0.95540  1.0000
  C   C12       1.0  0.13920  0.93750  0.04460  1.0000
  H   H7        1.0  0.81860  0.12040  0.97140  1.0000
  H   H8        1.0  0.18140  0.87960  0.02860  1.0000
  C   C13       1.0  0.95890  0.06620  0.88570  1.0000
  C   C14       1.0  0.04110  0.93380  0.11430  1.0000
  H   H9        1.0  0.98330  0.12670  0.85550  1.0000
  H   H10       1.0  0.01670  0.87330  0.14450  1.0000
  C   C15       1.0  0.02510  0.97810  0.85830  1.0000
  C   C16       1.0  0.97490  0.02190  0.14170  1.0000
  C   C17       1.0  0.12960  0.97610  0.78840  1.0000
  C   C18       1.0  0.87040  0.02390  0.21160  1.0000
  H   H11       1.0  0.16020  0.03420  0.75700  1.0000
  H   H12       1.0  0.83980  0.96580  0.24300  1.0000
  C   C19       1.0  0.18540  0.88740  0.76750  1.0000
  C   C20       1.0  0.81460  0.11260  0.23250  1.0000
  H   H13       1.0  0.25230  0.88500  0.72070  1.0000
  H   H14       1.0  0.74770  0.11500  0.27930  1.0000
  C   C21       1.0  0.14080  0.80210  0.81680  1.0000
  C   C22       1.0  0.85920  0.19790  0.18320  1.0000
  H   H15       1.0  0.17940  0.74260  0.80230  1.0000
  H   H16       1.0  0.82060  0.25740  0.19770  1.0000
  C   C23       1.0  0.98770  0.88780  0.90310  1.0000
  C   C24       1.0  0.01230  0.11220  0.09690  1.0000
  C   C25       1.0  0.88790  0.88490  0.97850  1.0000
  C   C26       1.0  0.11210  0.11510  0.02150  1.0000
  N   N1        1.0  0.86160  0.79440  0.02250  1.0000
  N   N2        1.0  0.13840  0.20560  0.97750  1.0000
  N   N3        1.0  0.04580  0.80130  0.88360  1.0000
  N   N4        1.0  0.95420  0.19870  0.11640  1.0000
  O   O1        1.0  0.61350  0.39230  0.04070  1.0000
  O   O2        1.0  0.38650  0.60770  0.95930  1.0000
  H   H17       1.0  0.63630  0.40280  0.08030  1.0000
  H   H18       1.0  0.36370  0.59720  0.91970  1.0000
  O   O3        1.0  0.61790  0.49340  0.89020  1.0000
  O   O4        1.0  0.38210  0.50660  0.10980  1.0000
  H   H19       1.0  0.58640  0.48550  0.85360  1.0000
  H   H20       1.0  0.41360  0.51450  0.14640  1.0000
  O   O5        1.0  0.59440  0.60510  0.99930  1.0000
  O   O6        1.0  0.40560  0.39490  0.00070  1.0000
  H   H21       1.0  0.60090  0.60670  0.04700  1.0000
  H   H22       1.0  0.39910  0.39330  0.95300  1.0000
  O   O7        1.0  0.64010  0.28560  0.93860  1.0000
  O   O8        1.0  0.35990  0.71440  0.06140  1.0000
  O   O9        1.0  0.81040  0.49140  0.92920  1.0000
  O   O10       1.0  0.18960  0.50860  0.07080  1.0000
  O   O11       1.0  0.59950  0.69990  0.85890  1.0000
  O   O12       1.0  0.40050  0.30010  0.14110  1.0000
  O   O13       1.0  0.61730  0.18170  0.10280  1.0000
  O   O14       1.0  0.38270  0.81830  0.89720  1.0000
  O   O15       1.0  0.44630  0.17720  0.02500  1.0000
  O   O16       1.0  0.55370  0.82280  0.97500  1.0000
  O   O17       1.0  0.86230  0.29490  0.97390  1.0000
  O   O18       1.0  0.13770  0.70510  0.02610  1.0000
  O   O19       1.0  0.80910  0.60500  0.77070  1.0000
  O   O20       1.0  0.19090  0.39500  0.22930  1.0000
  O   O21       1.0  0.82380  0.68780  0.89530  1.0000
  O   O22       1.0  0.17620  0.31220  0.10470  1.0000
  O   O23       1.0  0.07300  0.58130  0.91410  1.0000
  O   O24       1.0  0.92700  0.41870  0.08590  1.0000
  O   O25       1.0  0.09680  0.41830  0.94060  1.0000
  O   O26       1.0  0.90320  0.58170  0.05940  1.0000
  O   O27       1.0  0.83420  0.36630  0.81840  1.0000
  O   O28       1.0  0.16580  0.63370  0.18160  1.0000
