data_image0
_chemical_formula_structural       Ga264S320Ga16S128N16C128N32C80N16C96N16C96N16C128N16C80H720
_chemical_formula_sum              "Ga280 S448 N112 C608 H720"
_cell_length_a       24.003
_cell_length_b       24.003
_cell_length_c       85.886
_cell_angle_alpha    90
_cell_angle_beta     90
_cell_angle_gamma    90

_space_group_name_H-M_alt    "P 1"
_space_group_IT_number       1

loop_
  _space_group_symop_operation_xyz
  'x, y, z'

loop_
  _atom_site_type_symbol
  _atom_site_label
  _atom_site_symmetry_multiplicity
  _atom_site_fract_x
  _atom_site_fract_y
  _atom_site_fract_z
  _atom_site_occupancy
  Ga  Ga1       1.0  0.50000  0.25000  0.40589  1.0000
  Ga  Ga2       1.0  0.00000  0.75000  0.90589  1.0000
  Ga  Ga3       1.0  0.50000  0.75000  0.65589  1.0000
  Ga  Ga4       1.0  0.00000  0.25000  0.15589  1.0000
  Ga  Ga5       1.0  0.50000  0.75000  0.59411  1.0000
  Ga  Ga6       1.0  0.00000  0.25000  0.09411  1.0000
  Ga  Ga7       1.0  0.50000  0.25000  0.34411  1.0000
  Ga  Ga8       1.0  0.00000  0.75000  0.84411  1.0000
  Ga  Ga9       1.0  0.55354  0.15178  0.37512  1.0000
  Ga  Ga10      1.0  0.05354  0.65178  0.87513  1.0000
  Ga  Ga11      1.0  0.94646  0.84822  0.87513  1.0000
  Ga  Ga12      1.0  0.44646  0.34822  0.37512  1.0000
  Ga  Ga13      1.0  0.59822  0.80354  0.62512  1.0000
  Ga  Ga14      1.0  0.09822  0.30354  0.12512  1.0000
  Ga  Ga15      1.0  0.90178  0.19646  0.12512  1.0000
  Ga  Ga16      1.0  0.40178  0.69646  0.62512  1.0000
  Ga  Ga17      1.0  0.44646  0.84822  0.62488  1.0000
  Ga  Ga18      1.0  0.94646  0.34822  0.12488  1.0000
  Ga  Ga19      1.0  0.05354  0.15178  0.12488  1.0000
  Ga  Ga20      1.0  0.55354  0.65178  0.62488  1.0000
  Ga  Ga21      1.0  0.40178  0.19646  0.37488  1.0000
  Ga  Ga22      1.0  0.90178  0.69646  0.87488  1.0000
  Ga  Ga23      1.0  0.09822  0.80354  0.87488  1.0000
  Ga  Ga24      1.0  0.59822  0.30354  0.37488  1.0000
  Ga  Ga25      1.0  0.63803  0.21195  0.40287  1.0000
  Ga  Ga26      1.0  0.13803  0.71195  0.90287  1.0000
  Ga  Ga27      1.0  0.86197  0.78805  0.90287  1.0000
  Ga  Ga28      1.0  0.36197  0.28805  0.40287  1.0000
  Ga  Ga29      1.0  0.53805  0.88803  0.65287  1.0000
  Ga  Ga30      1.0  0.03805  0.38803  0.15287  1.0000
  Ga  Ga31      1.0  0.96195  0.11197  0.15287  1.0000
  Ga  Ga32      1.0  0.46195  0.61197  0.65287  1.0000
  Ga  Ga33      1.0  0.36197  0.78805  0.59713  1.0000
  Ga  Ga34      1.0  0.86197  0.28805  0.09713  1.0000
  Ga  Ga35      1.0  0.13803  0.21195  0.09713  1.0000
  Ga  Ga36      1.0  0.63803  0.71195  0.59713  1.0000
  Ga  Ga37      1.0  0.46195  0.11197  0.34713  1.0000
  Ga  Ga38      1.0  0.96195  0.61197  0.84713  1.0000
  Ga  Ga39      1.0  0.03805  0.88803  0.84713  1.0000
  Ga  Ga40      1.0  0.53805  0.38803  0.34713  1.0000
  Ga  Ga41      1.0  0.08424  0.09883  0.48335  1.0000
  Ga  Ga42      1.0  0.58424  0.59883  0.98335  1.0000
  Ga  Ga43      1.0  0.41576  0.90117  0.98335  1.0000
  Ga  Ga44      1.0  0.91576  0.40117  0.48335  1.0000
  Ga  Ga45      1.0  0.65117  0.33424  0.73335  1.0000
  Ga  Ga46      1.0  0.15117  0.83424  0.23335  1.0000
  Ga  Ga47      1.0  0.84883  0.66576  0.23335  1.0000
  Ga  Ga48      1.0  0.34883  0.16576  0.73335  1.0000
  Ga  Ga49      1.0  0.91576  0.90117  0.51665  1.0000
  Ga  Ga50      1.0  0.41576  0.40117  0.01665  1.0000
  Ga  Ga51      1.0  0.58424  0.09883  0.01665  1.0000
  Ga  Ga52      1.0  0.08424  0.59883  0.51665  1.0000
  Ga  Ga53      1.0  0.34883  0.66576  0.26665  1.0000
  Ga  Ga54      1.0  0.84883  0.16576  0.76665  1.0000
  Ga  Ga55      1.0  0.15117  0.33424  0.76665  1.0000
  Ga  Ga56      1.0  0.65117  0.83424  0.26665  1.0000
  Ga  Ga57      1.0  0.21665  0.15832  0.48300  1.0000
  Ga  Ga58      1.0  0.71665  0.65832  0.98300  1.0000
  Ga  Ga59      1.0  0.28335  0.84168  0.98300  1.0000
  Ga  Ga60      1.0  0.78335  0.34168  0.48300  1.0000
  Ga  Ga61      1.0  0.59168  0.46665  0.73300  1.0000
  Ga  Ga62      1.0  0.09168  0.96665  0.23300  1.0000
  Ga  Ga63      1.0  0.90832  0.53335  0.23300  1.0000
  Ga  Ga64      1.0  0.40832  0.03335  0.73300  1.0000
  Ga  Ga65      1.0  0.78335  0.84168  0.51700  1.0000
  Ga  Ga66      1.0  0.28335  0.34168  0.01700  1.0000
  Ga  Ga67      1.0  0.71665  0.15832  0.01700  1.0000
  Ga  Ga68      1.0  0.21665  0.65832  0.51700  1.0000
  Ga  Ga69      1.0  0.40832  0.53335  0.26700  1.0000
  Ga  Ga70      1.0  0.90832  0.03335  0.76700  1.0000
  Ga  Ga71      1.0  0.09168  0.46665  0.76700  1.0000
  Ga  Ga72      1.0  0.59168  0.96665  0.26700  1.0000
  Ga  Ga73      1.0  0.16330  0.06510  0.51518  1.0000
  Ga  Ga74      1.0  0.66330  0.56510  0.01518  1.0000
  Ga  Ga75      1.0  0.33670  0.93490  0.01518  1.0000
  Ga  Ga76      1.0  0.83670  0.43490  0.51518  1.0000
  Ga  Ga77      1.0  0.68490  0.41330  0.76518  1.0000
  Ga  Ga78      1.0  0.18490  0.91330  0.26518  1.0000
  Ga  Ga79      1.0  0.81510  0.58670  0.26518  1.0000
  Ga  Ga80      1.0  0.31510  0.08670  0.76518  1.0000
  Ga  Ga81      1.0  0.83670  0.93490  0.48482  1.0000
  Ga  Ga82      1.0  0.33670  0.43490  0.98482  1.0000
  Ga  Ga83      1.0  0.66330  0.06510  0.98482  1.0000
  Ga  Ga84      1.0  0.16330  0.56510  0.48482  1.0000
  Ga  Ga85      1.0  0.31510  0.58670  0.23482  1.0000
  Ga  Ga86      1.0  0.81510  0.08670  0.73482  1.0000
  Ga  Ga87      1.0  0.18490  0.41330  0.73482  1.0000
  Ga  Ga88      1.0  0.68490  0.91330  0.23482  1.0000
  Ga  Ga89      1.0  0.18909  0.00795  0.47406  1.0000
  Ga  Ga90      1.0  0.68909  0.50795  0.97406  1.0000
  Ga  Ga91      1.0  0.31091  0.99205  0.97406  1.0000
  Ga  Ga92      1.0  0.81091  0.49205  0.47406  1.0000
  Ga  Ga93      1.0  0.74205  0.43909  0.72406  1.0000
  Ga  Ga94      1.0  0.24205  0.93909  0.22406  1.0000
  Ga  Ga95      1.0  0.75795  0.56091  0.22406  1.0000
  Ga  Ga96      1.0  0.25795  0.06091  0.72406  1.0000
  Ga  Ga97      1.0  0.81091  0.99205  0.52594  1.0000
  Ga  Ga98      1.0  0.31091  0.49205  0.02594  1.0000
  Ga  Ga99      1.0  0.68909  0.00795  0.02594  1.0000
  Ga  Ga100     1.0  0.18909  0.50795  0.52594  1.0000
  Ga  Ga101     1.0  0.25795  0.56091  0.27594  1.0000
  Ga  Ga102     1.0  0.75795  0.06091  0.77594  1.0000
  Ga  Ga103     1.0  0.24205  0.43909  0.77594  1.0000
  Ga  Ga104     1.0  0.74205  0.93909  0.27594  1.0000
  Ga  Ga105     1.0  0.35272  0.19985  0.48483  1.0000
  Ga  Ga106     1.0  0.85272  0.69985  0.98483  1.0000
  Ga  Ga107     1.0  0.14728  0.80015  0.98483  1.0000
  Ga  Ga108     1.0  0.64728  0.30015  0.48483  1.0000
  Ga  Ga109     1.0  0.55015  0.60272  0.73483  1.0000
  Ga  Ga110     1.0  0.05015  0.10272  0.23483  1.0000
  Ga  Ga111     1.0  0.94985  0.39728  0.23483  1.0000
  Ga  Ga112     1.0  0.44985  0.89728  0.73483  1.0000
  Ga  Ga113     1.0  0.64728  0.80015  0.51517  1.0000
  Ga  Ga114     1.0  0.14728  0.30015  0.01517  1.0000
  Ga  Ga115     1.0  0.85272  0.19985  0.01517  1.0000
  Ga  Ga116     1.0  0.35272  0.69985  0.51517  1.0000
  Ga  Ga117     1.0  0.44985  0.39728  0.26517  1.0000
  Ga  Ga118     1.0  0.94985  0.89728  0.76517  1.0000
  Ga  Ga119     1.0  0.05015  0.60272  0.76517  1.0000
  Ga  Ga120     1.0  0.55015  0.10272  0.26517  1.0000
  Ga  Ga121     1.0  0.31269  0.11814  0.51625  1.0000
  Ga  Ga122     1.0  0.81269  0.61814  0.01625  1.0000
  Ga  Ga123     1.0  0.18731  0.88186  0.01625  1.0000
  Ga  Ga124     1.0  0.68731  0.38186  0.51625  1.0000
  Ga  Ga125     1.0  0.63186  0.56269  0.76625  1.0000
  Ga  Ga126     1.0  0.13186  0.06269  0.26625  1.0000
  Ga  Ga127     1.0  0.86814  0.43731  0.26625  1.0000
  Ga  Ga128     1.0  0.36814  0.93731  0.76625  1.0000
  Ga  Ga129     1.0  0.68731  0.88186  0.48375  1.0000
  Ga  Ga130     1.0  0.18731  0.38186  0.98375  1.0000
  Ga  Ga131     1.0  0.81269  0.11814  0.98375  1.0000
  Ga  Ga132     1.0  0.31269  0.61814  0.48375  1.0000
  Ga  Ga133     1.0  0.36814  0.43731  0.23375  1.0000
  Ga  Ga134     1.0  0.86814  0.93731  0.73375  1.0000
  Ga  Ga135     1.0  0.13186  0.56269  0.73375  1.0000
  Ga  Ga136     1.0  0.63186  0.06269  0.23375  1.0000
  Ga  Ga137     1.0  0.33752  0.06004  0.47599  1.0000
  Ga  Ga138     1.0  0.83752  0.56004  0.97599  1.0000
  Ga  Ga139     1.0  0.16248  0.93996  0.97599  1.0000
  Ga  Ga140     1.0  0.66248  0.43996  0.47599  1.0000
  Ga  Ga141     1.0  0.68996  0.58752  0.72599  1.0000
  Ga  Ga142     1.0  0.18996  0.08752  0.22599  1.0000
  Ga  Ga143     1.0  0.81004  0.41248  0.22599  1.0000
  Ga  Ga144     1.0  0.31004  0.91248  0.72599  1.0000
  Ga  Ga145     1.0  0.66248  0.93996  0.52401  1.0000
  Ga  Ga146     1.0  0.16248  0.43996  0.02401  1.0000
  Ga  Ga147     1.0  0.83752  0.06004  0.02401  1.0000
  Ga  Ga148     1.0  0.33752  0.56004  0.52401  1.0000
  Ga  Ga149     1.0  0.31004  0.41248  0.27401  1.0000
  Ga  Ga150     1.0  0.81004  0.91248  0.77402  1.0000
  Ga  Ga151     1.0  0.18996  0.58752  0.77402  1.0000
  Ga  Ga152     1.0  0.68996  0.08752  0.27401  1.0000
  Ga  Ga153     1.0  0.25820  0.02671  0.54339  1.0000
  Ga  Ga154     1.0  0.75820  0.52671  0.04339  1.0000
  Ga  Ga155     1.0  0.24180  0.97329  0.04339  1.0000
  Ga  Ga156     1.0  0.74180  0.47329  0.54339  1.0000
  Ga  Ga157     1.0  0.72329  0.50820  0.79339  1.0000
  Ga  Ga158     1.0  0.22329  0.00820  0.29339  1.0000
  Ga  Ga159     1.0  0.77671  0.49180  0.29339  1.0000
  Ga  Ga160     1.0  0.27671  0.99180  0.79339  1.0000
  Ga  Ga161     1.0  0.74180  0.97329  0.45661  1.0000
  Ga  Ga162     1.0  0.24180  0.47329  0.95661  1.0000
  Ga  Ga163     1.0  0.75820  0.02671  0.95661  1.0000
  Ga  Ga164     1.0  0.25820  0.52671  0.45661  1.0000
  Ga  Ga165     1.0  0.27671  0.49180  0.20661  1.0000
  Ga  Ga166     1.0  0.77671  0.99180  0.70661  1.0000
  Ga  Ga167     1.0  0.22329  0.50820  0.70661  1.0000
  Ga  Ga168     1.0  0.72329  0.00820  0.20661  1.0000
  Ga  Ga169     1.0  0.28371  0.96626  0.50769  1.0000
  Ga  Ga170     1.0  0.78371  0.46626  0.00769  1.0000
  Ga  Ga171     1.0  0.21629  0.03374  0.00769  1.0000
  Ga  Ga172     1.0  0.71629  0.53374  0.50769  1.0000
  Ga  Ga173     1.0  0.78374  0.53371  0.75769  1.0000
  Ga  Ga174     1.0  0.28374  0.03371  0.25769  1.0000
  Ga  Ga175     1.0  0.71626  0.46629  0.25769  1.0000
  Ga  Ga176     1.0  0.21626  0.96629  0.75769  1.0000
  Ga  Ga177     1.0  0.71629  0.03374  0.49231  1.0000
  Ga  Ga178     1.0  0.21629  0.53374  0.99231  1.0000
  Ga  Ga179     1.0  0.78371  0.96626  0.99231  1.0000
  Ga  Ga180     1.0  0.28371  0.46626  0.49231  1.0000
  Ga  Ga181     1.0  0.21626  0.46629  0.24231  1.0000
  Ga  Ga182     1.0  0.71626  0.96629  0.74231  1.0000
  Ga  Ga183     1.0  0.28374  0.53371  0.74231  1.0000
  Ga  Ga184     1.0  0.78374  0.03371  0.24231  1.0000
  Ga  Ga185     1.0  0.30349  0.92178  0.46940  1.0000
  Ga  Ga186     1.0  0.80349  0.42178  0.96940  1.0000
  Ga  Ga187     1.0  0.19651  0.07822  0.96940  1.0000
  Ga  Ga188     1.0  0.69651  0.57822  0.46940  1.0000
  Ga  Ga189     1.0  0.82822  0.55349  0.71940  1.0000
  Ga  Ga190     1.0  0.32822  0.05349  0.21940  1.0000
  Ga  Ga191     1.0  0.67178  0.44651  0.21940  1.0000
  Ga  Ga192     1.0  0.17178  0.94651  0.71940  1.0000
  Ga  Ga193     1.0  0.69651  0.07822  0.53060  1.0000
  Ga  Ga194     1.0  0.19651  0.57822  0.03060  1.0000
  Ga  Ga195     1.0  0.80349  0.92178  0.03060  1.0000
  Ga  Ga196     1.0  0.30349  0.42178  0.53060  1.0000
  Ga  Ga197     1.0  0.17178  0.44651  0.28060  1.0000
  Ga  Ga198     1.0  0.67178  0.94651  0.78060  1.0000
  Ga  Ga199     1.0  0.32822  0.55349  0.78060  1.0000
  Ga  Ga200     1.0  0.82822  0.05349  0.28060  1.0000
  Ga  Ga201     1.0  0.35686  0.75805  0.34050  1.0000
  Ga  Ga202     1.0  0.85686  0.25805  0.84050  1.0000
  Ga  Ga203     1.0  0.14314  0.24195  0.84050  1.0000
  Ga  Ga204     1.0  0.64314  0.74195  0.34050  1.0000
  Ga  Ga205     1.0  0.99195  0.60686  0.59050  1.0000
  Ga  Ga206     1.0  0.49195  0.10686  0.09050  1.0000
  Ga  Ga207     1.0  0.50805  0.39314  0.09050  1.0000
  Ga  Ga208     1.0  0.00805  0.89314  0.59050  1.0000
  Ga  Ga209     1.0  0.64314  0.24195  0.65950  1.0000
  Ga  Ga210     1.0  0.14314  0.74195  0.15950  1.0000
  Ga  Ga211     1.0  0.85686  0.75805  0.15950  1.0000
  Ga  Ga212     1.0  0.35686  0.25805  0.65950  1.0000
  Ga  Ga213     1.0  0.00805  0.39314  0.40950  1.0000
  Ga  Ga214     1.0  0.50805  0.89314  0.90950  1.0000
  Ga  Ga215     1.0  0.49195  0.60686  0.90950  1.0000
  Ga  Ga216     1.0  0.99195  0.10686  0.40950  1.0000
  Ga  Ga217     1.0  0.41703  0.67618  0.36914  1.0000
  Ga  Ga218     1.0  0.91703  0.17618  0.86914  1.0000
  Ga  Ga219     1.0  0.08297  0.32382  0.86914  1.0000
  Ga  Ga220     1.0  0.58297  0.82382  0.36914  1.0000
  Ga  Ga221     1.0  0.07382  0.66703  0.61914  1.0000
  Ga  Ga222     1.0  0.57382  0.16703  0.11914  1.0000
  Ga  Ga223     1.0  0.42618  0.33297  0.11914  1.0000
  Ga  Ga224     1.0  0.92618  0.83297  0.61914  1.0000
  Ga  Ga225     1.0  0.58297  0.32382  0.63086  1.0000
  Ga  Ga226     1.0  0.08297  0.82382  0.13086  1.0000
  Ga  Ga227     1.0  0.91703  0.67618  0.13086  1.0000
  Ga  Ga228     1.0  0.41703  0.17618  0.63086  1.0000
  Ga  Ga229     1.0  0.92618  0.33297  0.38086  1.0000
  Ga  Ga230     1.0  0.42618  0.83297  0.88086  1.0000
  Ga  Ga231     1.0  0.57382  0.66703  0.88086  1.0000
  Ga  Ga232     1.0  0.07382  0.16703  0.38086  1.0000
  Ga  Ga233     1.0  0.50000  0.75000  0.39984  1.0000
  Ga  Ga234     1.0  0.00000  0.25000  0.89984  1.0000
  Ga  Ga235     1.0  0.00000  0.75000  0.64984  1.0000
  Ga  Ga236     1.0  0.50000  0.25000  0.14984  1.0000
  Ga  Ga237     1.0  0.50000  0.25000  0.60016  1.0000
  Ga  Ga238     1.0  0.00000  0.75000  0.10016  1.0000
  Ga  Ga239     1.0  0.00000  0.25000  0.35016  1.0000
  Ga  Ga240     1.0  0.50000  0.75000  0.85016  1.0000
  Ga  Ga241     1.0  0.50000  0.75000  0.33764  1.0000
  Ga  Ga242     1.0  0.00000  0.25000  0.83764  1.0000
  Ga  Ga243     1.0  0.00000  0.75000  0.58764  1.0000
  Ga  Ga244     1.0  0.50000  0.25000  0.08764  1.0000
  Ga  Ga245     1.0  0.50000  0.25000  0.66236  1.0000
  Ga  Ga246     1.0  0.00000  0.75000  0.16236  1.0000
  Ga  Ga247     1.0  0.00000  0.25000  0.41236  1.0000
  Ga  Ga248     1.0  0.50000  0.75000  0.91236  1.0000
  Ga  Ga249     1.0  0.42589  0.83370  0.36860  1.0000
  Ga  Ga250     1.0  0.92589  0.33370  0.86860  1.0000
  Ga  Ga251     1.0  0.07411  0.16630  0.86860  1.0000
  Ga  Ga252     1.0  0.57411  0.66630  0.36860  1.0000
  Ga  Ga253     1.0  0.91630  0.67589  0.61860  1.0000
  Ga  Ga254     1.0  0.41630  0.17589  0.11860  1.0000
  Ga  Ga255     1.0  0.58370  0.32411  0.11860  1.0000
  Ga  Ga256     1.0  0.08370  0.82411  0.61860  1.0000
  Ga  Ga257     1.0  0.57411  0.16630  0.63140  1.0000
  Ga  Ga258     1.0  0.07411  0.66630  0.13140  1.0000
  Ga  Ga259     1.0  0.92589  0.83370  0.13140  1.0000
  Ga  Ga260     1.0  0.42589  0.33370  0.63140  1.0000
  Ga  Ga261     1.0  0.08370  0.32411  0.38140  1.0000
  Ga  Ga262     1.0  0.58370  0.82411  0.88140  1.0000
  Ga  Ga263     1.0  0.41630  0.67589  0.88140  1.0000
  Ga  Ga264     1.0  0.91630  0.17589  0.38140  1.0000
  S   S1        1.0  0.47747  0.17420  0.39061  1.0000
  S   S2        1.0  0.97747  0.67420  0.89061  1.0000
  S   S3        1.0  0.02253  0.82580  0.89061  1.0000
  S   S4        1.0  0.52253  0.32580  0.39061  1.0000
  S   S5        1.0  0.57580  0.72747  0.64061  1.0000
  S   S6        1.0  0.07580  0.22747  0.14061  1.0000
  S   S7        1.0  0.92420  0.27253  0.14061  1.0000
  S   S8        1.0  0.42420  0.77253  0.64061  1.0000
  S   S9        1.0  0.52253  0.82580  0.60939  1.0000
  S   S10       1.0  0.02253  0.32580  0.10939  1.0000
  S   S11       1.0  0.97747  0.17420  0.10939  1.0000
  S   S12       1.0  0.47747  0.67420  0.60939  1.0000
  S   S13       1.0  0.42420  0.27253  0.35939  1.0000
  S   S14       1.0  0.92420  0.77253  0.85939  1.0000
  S   S15       1.0  0.07580  0.72747  0.85939  1.0000
  S   S16       1.0  0.57580  0.22747  0.35939  1.0000
  S   S17       1.0  0.53342  0.07725  0.36086  1.0000
  S   S18       1.0  0.03342  0.57725  0.86086  1.0000
  S   S19       1.0  0.96658  0.92275  0.86086  1.0000
  S   S20       1.0  0.46658  0.42275  0.36086  1.0000
  S   S21       1.0  0.67275  0.78342  0.61086  1.0000
  S   S22       1.0  0.17275  0.28342  0.11086  1.0000
  S   S23       1.0  0.82725  0.21658  0.11086  1.0000
  S   S24       1.0  0.32725  0.71658  0.61086  1.0000
  S   S25       1.0  0.46658  0.92275  0.63914  1.0000
  S   S26       1.0  0.96658  0.42275  0.13914  1.0000
  S   S27       1.0  0.03342  0.07725  0.13914  1.0000
  S   S28       1.0  0.53342  0.57725  0.63914  1.0000
  S   S29       1.0  0.32725  0.21658  0.38914  1.0000
  S   S30       1.0  0.82725  0.71658  0.88914  1.0000
  S   S31       1.0  0.17275  0.78342  0.88914  1.0000
  S   S32       1.0  0.67275  0.28342  0.38914  1.0000
  S   S33       1.0  0.62710  0.13210  0.38979  1.0000
  S   S34       1.0  0.12710  0.63210  0.88979  1.0000
  S   S35       1.0  0.87290  0.86790  0.88979  1.0000
  S   S36       1.0  0.37290  0.36790  0.38979  1.0000
  S   S37       1.0  0.61790  0.87710  0.63979  1.0000
  S   S38       1.0  0.11790  0.37710  0.13979  1.0000
  S   S39       1.0  0.88210  0.12290  0.13979  1.0000
  S   S40       1.0  0.38210  0.62290  0.63979  1.0000
  S   S41       1.0  0.37290  0.86790  0.61021  1.0000
  S   S42       1.0  0.87290  0.36790  0.11021  1.0000
  S   S43       1.0  0.12710  0.13210  0.11021  1.0000
  S   S44       1.0  0.62710  0.63210  0.61021  1.0000
  S   S45       1.0  0.38210  0.12290  0.36021  1.0000
  S   S46       1.0  0.88210  0.62290  0.86021  1.0000
  S   S47       1.0  0.11790  0.87710  0.86021  1.0000
  S   S48       1.0  0.61790  0.37710  0.36021  1.0000
  S   S49       1.0  0.57343  0.23276  0.42079  1.0000
  S   S50       1.0  0.07343  0.73276  0.92079  1.0000
  S   S51       1.0  0.92657  0.76724  0.92079  1.0000
  S   S52       1.0  0.42657  0.26724  0.42079  1.0000
  S   S53       1.0  0.51724  0.82343  0.67079  1.0000
  S   S54       1.0  0.01724  0.32343  0.17079  1.0000
  S   S55       1.0  0.98276  0.17657  0.17079  1.0000
  S   S56       1.0  0.48276  0.67657  0.67079  1.0000
  S   S57       1.0  0.42657  0.76724  0.57921  1.0000
  S   S58       1.0  0.92657  0.26724  0.07921  1.0000
  S   S59       1.0  0.07343  0.23276  0.07921  1.0000
  S   S60       1.0  0.57343  0.73276  0.57921  1.0000
  S   S61       1.0  0.48276  0.17657  0.32921  1.0000
  S   S62       1.0  0.98276  0.67657  0.82921  1.0000
  S   S63       1.0  0.01724  0.82343  0.82921  1.0000
  S   S64       1.0  0.51724  0.32343  0.32921  1.0000
  S   S65       1.0  0.12872  0.17722  0.47621  1.0000
  S   S66       1.0  0.62872  0.67722  0.97621  1.0000
  S   S67       1.0  0.37128  0.82278  0.97621  1.0000
  S   S68       1.0  0.87128  0.32278  0.47621  1.0000
  S   S69       1.0  0.57278  0.37872  0.72621  1.0000
  S   S70       1.0  0.07278  0.87872  0.22621  1.0000
  S   S71       1.0  0.92722  0.62128  0.22621  1.0000
  S   S72       1.0  0.42722  0.12128  0.72621  1.0000
  S   S73       1.0  0.87128  0.82278  0.52379  1.0000
  S   S74       1.0  0.37128  0.32278  0.02379  1.0000
  S   S75       1.0  0.62872  0.17722  0.02379  1.0000
  S   S76       1.0  0.12872  0.67722  0.52379  1.0000
  S   S77       1.0  0.42722  0.62128  0.27379  1.0000
  S   S78       1.0  0.92722  0.12128  0.77379  1.0000
  S   S79       1.0  0.07278  0.37872  0.77379  1.0000
  S   S80       1.0  0.57278  0.87872  0.27379  1.0000
  S   S81       1.0  0.07493  0.08467  0.50911  1.0000
  S   S82       1.0  0.57493  0.58467  0.00911  1.0000
  S   S83       1.0  0.42507  0.91533  0.00911  1.0000
  S   S84       1.0  0.92507  0.41533  0.50911  1.0000
  S   S85       1.0  0.66533  0.32493  0.75911  1.0000
  S   S86       1.0  0.16533  0.82493  0.25911  1.0000
  S   S87       1.0  0.83467  0.67507  0.25911  1.0000
  S   S88       1.0  0.33467  0.17507  0.75911  1.0000
  S   S89       1.0  0.92507  0.91533  0.49089  1.0000
  S   S90       1.0  0.42507  0.41533  0.99089  1.0000
  S   S91       1.0  0.57493  0.08467  0.99089  1.0000
  S   S92       1.0  0.07493  0.58467  0.49089  1.0000
  S   S93       1.0  0.33467  0.67507  0.24089  1.0000
  S   S94       1.0  0.83467  0.17507  0.74089  1.0000
  S   S95       1.0  0.16533  0.32493  0.74089  1.0000
  S   S96       1.0  0.66533  0.82493  0.24089  1.0000
  S   S97       1.0  0.10000  0.02381  0.46852  1.0000
  S   S98       1.0  0.60000  0.52381  0.96852  1.0000
  S   S99       1.0  0.40000  0.97619  0.96852  1.0000
  S   S100      1.0  0.90000  0.47619  0.46852  1.0000
  S   S101      1.0  0.72619  0.35000  0.71852  1.0000
  S   S102      1.0  0.22619  0.85000  0.21852  1.0000
  S   S103      1.0  0.77381  0.65000  0.21852  1.0000
  S   S104      1.0  0.27381  0.15000  0.71852  1.0000
  S   S105      1.0  0.90000  0.97619  0.53148  1.0000
  S   S106      1.0  0.40000  0.47619  0.03148  1.0000
  S   S107      1.0  0.60000  0.02381  0.03148  1.0000
  S   S108      1.0  0.10000  0.52381  0.53148  1.0000
  S   S109      1.0  0.27381  0.65000  0.28148  1.0000
  S   S110      1.0  0.77381  0.15000  0.78148  1.0000
  S   S111      1.0  0.22619  0.35000  0.78148  1.0000
  S   S112      1.0  0.72619  0.85000  0.28148  1.0000
  S   S113      1.0  0.21689  0.93435  0.46008  1.0000
  S   S114      1.0  0.71689  0.43435  0.96008  1.0000
  S   S115      1.0  0.28311  0.06565  0.96008  1.0000
  S   S116      1.0  0.78311  0.56565  0.46008  1.0000
  S   S117      1.0  0.81565  0.46689  0.71008  1.0000
  S   S118      1.0  0.31565  0.96689  0.21008  1.0000
  S   S119      1.0  0.68435  0.53311  0.21008  1.0000
  S   S120      1.0  0.18435  0.03311  0.71008  1.0000
  S   S121      1.0  0.78311  0.06565  0.53992  1.0000
  S   S122      1.0  0.28311  0.56565  0.03992  1.0000
  S   S123      1.0  0.71689  0.93435  0.03992  1.0000
  S   S124      1.0  0.21689  0.43435  0.53992  1.0000
  S   S125      1.0  0.18435  0.53311  0.28992  1.0000
  S   S126      1.0  0.68435  0.03311  0.78992  1.0000
  S   S127      1.0  0.31565  0.46689  0.78992  1.0000
  S   S128      1.0  0.81565  0.96689  0.28992  1.0000
  S   S129      1.0  0.19325  0.98850  0.50074  1.0000
  S   S130      1.0  0.69325  0.48850  0.00074  1.0000
  S   S131      1.0  0.30675  0.01150  0.00074  1.0000
  S   S132      1.0  0.80675  0.51150  0.50074  1.0000
  S   S133      1.0  0.76150  0.44325  0.75074  1.0000
  S   S134      1.0  0.26150  0.94325  0.25074  1.0000
  S   S135      1.0  0.73850  0.55675  0.25074  1.0000
  S   S136      1.0  0.23850  0.05675  0.75074  1.0000
  S   S137      1.0  0.80675  0.01150  0.49926  1.0000
  S   S138      1.0  0.30675  0.51150  0.99926  1.0000
  S   S139      1.0  0.69325  0.98850  0.99926  1.0000
  S   S140      1.0  0.19325  0.48850  0.49926  1.0000
  S   S141      1.0  0.23850  0.55675  0.24926  1.0000
  S   S142      1.0  0.73850  0.05675  0.74926  1.0000
  S   S143      1.0  0.26150  0.44325  0.74926  1.0000
  S   S144      1.0  0.76150  0.94325  0.24926  1.0000
  S   S145      1.0  0.16697  0.04343  0.54034  1.0000
  S   S146      1.0  0.66697  0.54343  0.04034  1.0000
  S   S147      1.0  0.33303  0.95657  0.04034  1.0000
  S   S148      1.0  0.83303  0.45657  0.54034  1.0000
  S   S149      1.0  0.70657  0.41697  0.79034  1.0000
  S   S150      1.0  0.20657  0.91697  0.29034  1.0000
  S   S151      1.0  0.79343  0.58303  0.29034  1.0000
  S   S152      1.0  0.29343  0.08303  0.79034  1.0000
  S   S153      1.0  0.83303  0.95657  0.45966  1.0000
  S   S154      1.0  0.33303  0.45657  0.95966  1.0000
  S   S155      1.0  0.66697  0.04343  0.95966  1.0000
  S   S156      1.0  0.16697  0.54343  0.45966  1.0000
  S   S157      1.0  0.29343  0.58303  0.20966  1.0000
  S   S158      1.0  0.79343  0.08303  0.70966  1.0000
  S   S159      1.0  0.20657  0.41697  0.70966  1.0000
  S   S160      1.0  0.70657  0.91697  0.20966  1.0000
  S   S161      1.0  0.24667  0.08224  0.46859  1.0000
  S   S162      1.0  0.74667  0.58224  0.96859  1.0000
  S   S163      1.0  0.25333  0.91776  0.96859  1.0000
  S   S164      1.0  0.75333  0.41776  0.46859  1.0000
  S   S165      1.0  0.66776  0.49667  0.71859  1.0000
  S   S166      1.0  0.16776  0.99667  0.21859  1.0000
  S   S167      1.0  0.83224  0.50333  0.21859  1.0000
  S   S168      1.0  0.33224  0.00333  0.71859  1.0000
  S   S169      1.0  0.75333  0.91776  0.53141  1.0000
  S   S170      1.0  0.25333  0.41776  0.03141  1.0000
  S   S171      1.0  0.74667  0.08224  0.03141  1.0000
  S   S172      1.0  0.24667  0.58224  0.53141  1.0000
  S   S173      1.0  0.33224  0.50333  0.28141  1.0000
  S   S174      1.0  0.83224  0.00333  0.78141  1.0000
  S   S175      1.0  0.16776  0.49667  0.78141  1.0000
  S   S176      1.0  0.66776  0.99667  0.28141  1.0000
  S   S177      1.0  0.22081  0.14001  0.50945  1.0000
  S   S178      1.0  0.72081  0.64001  0.00945  1.0000
  S   S179      1.0  0.27919  0.85999  0.00945  1.0000
  S   S180      1.0  0.77919  0.35999  0.50945  1.0000
  S   S181      1.0  0.60999  0.47081  0.75945  1.0000
  S   S182      1.0  0.10999  0.97081  0.25945  1.0000
  S   S183      1.0  0.89001  0.52919  0.25945  1.0000
  S   S184      1.0  0.39001  0.02919  0.75945  1.0000
  S   S185      1.0  0.77919  0.85999  0.49055  1.0000
  S   S186      1.0  0.27919  0.35999  0.99055  1.0000
  S   S187      1.0  0.72081  0.14001  0.99055  1.0000
  S   S188      1.0  0.22081  0.64001  0.49055  1.0000
  S   S189      1.0  0.39001  0.52919  0.24055  1.0000
  S   S190      1.0  0.89001  0.02919  0.74055  1.0000
  S   S191      1.0  0.10999  0.47081  0.74055  1.0000
  S   S192      1.0  0.60999  0.97081  0.24055  1.0000
  S   S193      1.0  0.26882  0.23246  0.47759  1.0000
  S   S194      1.0  0.76882  0.73246  0.97759  1.0000
  S   S195      1.0  0.23118  0.76754  0.97759  1.0000
  S   S196      1.0  0.73118  0.26754  0.47759  1.0000
  S   S197      1.0  0.51754  0.51882  0.72759  1.0000
  S   S198      1.0  0.01754  0.01882  0.22759  1.0000
  S   S199      1.0  0.98246  0.48118  0.22759  1.0000
  S   S200      1.0  0.48246  0.98118  0.72759  1.0000
  S   S201      1.0  0.73118  0.76754  0.52241  1.0000
  S   S202      1.0  0.23118  0.26754  0.02241  1.0000
  S   S203      1.0  0.76882  0.23246  0.02241  1.0000
  S   S204      1.0  0.26882  0.73246  0.52241  1.0000
  S   S205      1.0  0.48246  0.48118  0.27241  1.0000
  S   S206      1.0  0.98246  0.98118  0.77241  1.0000
  S   S207      1.0  0.01754  0.51882  0.77241  1.0000
  S   S208      1.0  0.51754  0.01882  0.27241  1.0000
  S   S209      1.0  0.39091  0.13285  0.47010  1.0000
  S   S210      1.0  0.89091  0.63285  0.97010  1.0000
  S   S211      1.0  0.10909  0.86715  0.97010  1.0000
  S   S212      1.0  0.60909  0.36715  0.47010  1.0000
  S   S213      1.0  0.61715  0.64091  0.72010  1.0000
  S   S214      1.0  0.11715  0.14091  0.22010  1.0000
  S   S215      1.0  0.88285  0.35909  0.22010  1.0000
  S   S216      1.0  0.38285  0.85909  0.72010  1.0000
  S   S217      1.0  0.60909  0.86715  0.52990  1.0000
  S   S218      1.0  0.10909  0.36715  0.02990  1.0000
  S   S219      1.0  0.89091  0.13285  0.02990  1.0000
  S   S220      1.0  0.39091  0.63285  0.52990  1.0000
  S   S221      1.0  0.38285  0.35909  0.27990  1.0000
  S   S222      1.0  0.88285  0.85909  0.77990  1.0000
  S   S223      1.0  0.11715  0.64091  0.77990  1.0000
  S   S224      1.0  0.61715  0.14091  0.27990  1.0000
  S   S225      1.0  0.36607  0.19167  0.51060  1.0000
  S   S226      1.0  0.86607  0.69167  0.01060  1.0000
  S   S227      1.0  0.13393  0.80833  0.01060  1.0000
  S   S228      1.0  0.63393  0.30833  0.51060  1.0000
  S   S229      1.0  0.55833  0.61607  0.76060  1.0000
  S   S230      1.0  0.05833  0.11607  0.26060  1.0000
  S   S231      1.0  0.94167  0.38393  0.26060  1.0000
  S   S232      1.0  0.44167  0.88393  0.76060  1.0000
  S   S233      1.0  0.63393  0.80833  0.48940  1.0000
  S   S234      1.0  0.13393  0.30833  0.98940  1.0000
  S   S235      1.0  0.86607  0.19167  0.98940  1.0000
  S   S236      1.0  0.36607  0.69167  0.48940  1.0000
  S   S237      1.0  0.44167  0.38393  0.23940  1.0000
  S   S238      1.0  0.94167  0.88393  0.73940  1.0000
  S   S239      1.0  0.05833  0.61607  0.73940  1.0000
  S   S240      1.0  0.55833  0.11607  0.23940  1.0000
  S   S241      1.0  0.31516  0.10025  0.54179  1.0000
  S   S242      1.0  0.81516  0.60025  0.04179  1.0000
  S   S243      1.0  0.18484  0.89975  0.04179  1.0000
  S   S244      1.0  0.68484  0.39975  0.54179  1.0000
  S   S245      1.0  0.64975  0.56516  0.79179  1.0000
  S   S246      1.0  0.14975  0.06516  0.29179  1.0000
  S   S247      1.0  0.85025  0.43484  0.29179  1.0000
  S   S248      1.0  0.35025  0.93484  0.79179  1.0000
  S   S249      1.0  0.68484  0.89975  0.45821  1.0000
  S   S250      1.0  0.18484  0.39975  0.95821  1.0000
  S   S251      1.0  0.81516  0.10025  0.95821  1.0000
  S   S252      1.0  0.31516  0.60025  0.45821  1.0000
  S   S253      1.0  0.35025  0.43484  0.20821  1.0000
  S   S254      1.0  0.85025  0.93484  0.70821  1.0000
  S   S255      1.0  0.14975  0.56516  0.70821  1.0000
  S   S256      1.0  0.64975  0.06516  0.20821  1.0000
  S   S257      1.0  0.34274  0.04009  0.50225  1.0000
  S   S258      1.0  0.84274  0.54009  0.00225  1.0000
  S   S259      1.0  0.15726  0.95991  0.00225  1.0000
  S   S260      1.0  0.65726  0.45991  0.50225  1.0000
  S   S261      1.0  0.70991  0.59274  0.75225  1.0000
  S   S262      1.0  0.20991  0.09274  0.25225  1.0000
  S   S263      1.0  0.79009  0.40726  0.25225  1.0000
  S   S264      1.0  0.29009  0.90726  0.75225  1.0000
  S   S265      1.0  0.65726  0.95991  0.49775  1.0000
  S   S266      1.0  0.15726  0.45991  0.99775  1.0000
  S   S267      1.0  0.84274  0.04009  0.99775  1.0000
  S   S268      1.0  0.34274  0.54009  0.49775  1.0000
  S   S269      1.0  0.29009  0.40726  0.24775  1.0000
  S   S270      1.0  0.79009  0.90726  0.74775  1.0000
  S   S271      1.0  0.20991  0.59274  0.74775  1.0000
  S   S272      1.0  0.70991  0.09274  0.24775  1.0000
  S   S273      1.0  0.36763  0.98536  0.46284  1.0000
  S   S274      1.0  0.86763  0.48536  0.96284  1.0000
  S   S275      1.0  0.13237  0.01464  0.96284  1.0000
  S   S276      1.0  0.63237  0.51464  0.46284  1.0000
  S   S277      1.0  0.76464  0.61763  0.71284  1.0000
  S   S278      1.0  0.26464  0.11763  0.21284  1.0000
  S   S279      1.0  0.73536  0.38237  0.21284  1.0000
  S   S280      1.0  0.23536  0.88237  0.71284  1.0000
  S   S281      1.0  0.63237  0.01464  0.53716  1.0000
  S   S282      1.0  0.13237  0.51464  0.03716  1.0000
  S   S283      1.0  0.86763  0.98536  0.03716  1.0000
  S   S284      1.0  0.36763  0.48536  0.53716  1.0000
  S   S285      1.0  0.23536  0.38237  0.28716  1.0000
  S   S286      1.0  0.73536  0.88237  0.78716  1.0000
  S   S287      1.0  0.26464  0.61763  0.78716  1.0000
  S   S288      1.0  0.76464  0.11763  0.28716  1.0000
  S   S289      1.0  0.30256  0.88854  0.49378  1.0000
  S   S290      1.0  0.80256  0.38854  0.99378  1.0000
  S   S291      1.0  0.19744  0.11146  0.99378  1.0000
  S   S292      1.0  0.69744  0.61146  0.49378  1.0000
  S   S293      1.0  0.86146  0.55256  0.74378  1.0000
  S   S294      1.0  0.36146  0.05256  0.24378  1.0000
  S   S295      1.0  0.63854  0.44744  0.24378  1.0000
  S   S296      1.0  0.13854  0.94744  0.74378  1.0000
  S   S297      1.0  0.69744  0.11146  0.50622  1.0000
  S   S298      1.0  0.19744  0.61146  0.00622  1.0000
  S   S299      1.0  0.80256  0.88854  0.00622  1.0000
  S   S300      1.0  0.30256  0.38854  0.50622  1.0000
  S   S301      1.0  0.13854  0.44744  0.25622  1.0000
  S   S302      1.0  0.63854  0.94744  0.75622  1.0000
  S   S303      1.0  0.36146  0.55256  0.75622  1.0000
  S   S304      1.0  0.86146  0.05256  0.25622  1.0000
  S   S305      1.0  0.28985  0.94696  0.53298  1.0000
  S   S306      1.0  0.78985  0.44696  0.03298  1.0000
  S   S307      1.0  0.21015  0.05304  0.03298  1.0000
  S   S308      1.0  0.71015  0.55304  0.53298  1.0000
  S   S309      1.0  0.80304  0.53985  0.78298  1.0000
  S   S310      1.0  0.30304  0.03985  0.28298  1.0000
  S   S311      1.0  0.69696  0.46015  0.28298  1.0000
  S   S312      1.0  0.19696  0.96015  0.78298  1.0000
  S   S313      1.0  0.71015  0.05304  0.46702  1.0000
  S   S314      1.0  0.21015  0.55304  0.96702  1.0000
  S   S315      1.0  0.78985  0.94696  0.96702  1.0000
  S   S316      1.0  0.28985  0.44696  0.46702  1.0000
  S   S317      1.0  0.19696  0.46015  0.21702  1.0000
  S   S318      1.0  0.69696  0.96015  0.71702  1.0000
  S   S319      1.0  0.30304  0.53985  0.71702  1.0000
  S   S320      1.0  0.80304  0.03985  0.21702  1.0000
  Ga  Ga265     1.0  0.49239  0.60636  0.39685  1.0000
  Ga  Ga266     1.0  0.99239  0.10636  0.89685  1.0000
  Ga  Ga267     1.0  0.00761  0.39364  0.89685  1.0000
  Ga  Ga268     1.0  0.50761  0.89364  0.39685  1.0000
  Ga  Ga269     1.0  0.14364  0.74239  0.64685  1.0000
  Ga  Ga270     1.0  0.64364  0.24239  0.14685  1.0000
  Ga  Ga271     1.0  0.35636  0.25761  0.14685  1.0000
  Ga  Ga272     1.0  0.85636  0.75761  0.64685  1.0000
  Ga  Ga273     1.0  0.50761  0.39364  0.60315  1.0000
  Ga  Ga274     1.0  0.00761  0.89364  0.10315  1.0000
  Ga  Ga275     1.0  0.99239  0.60636  0.10315  1.0000
  Ga  Ga276     1.0  0.49239  0.10636  0.60315  1.0000
  Ga  Ga277     1.0  0.85636  0.25761  0.35315  1.0000
  Ga  Ga278     1.0  0.35636  0.75761  0.85315  1.0000
  Ga  Ga279     1.0  0.64364  0.74239  0.85315  1.0000
  Ga  Ga280     1.0  0.14364  0.24239  0.35315  1.0000
  S   S321      1.0  0.49790  0.67410  0.41477  1.0000
  S   S322      1.0  0.99790  0.17410  0.91477  1.0000
  S   S323      1.0  0.00210  0.32590  0.91477  1.0000
  S   S324      1.0  0.50210  0.82590  0.41477  1.0000
  S   S325      1.0  0.07590  0.74790  0.66477  1.0000
  S   S326      1.0  0.57590  0.24790  0.16477  1.0000
  S   S327      1.0  0.42410  0.25210  0.16477  1.0000
  S   S328      1.0  0.92410  0.75210  0.66477  1.0000
  S   S329      1.0  0.50210  0.32590  0.58523  1.0000
  S   S330      1.0  0.00210  0.82590  0.08523  1.0000
  S   S331      1.0  0.99790  0.67410  0.08523  1.0000
  S   S332      1.0  0.49790  0.17410  0.58523  1.0000
  S   S333      1.0  0.92410  0.25210  0.33523  1.0000
  S   S334      1.0  0.42410  0.75210  0.83523  1.0000
  S   S335      1.0  0.57590  0.74790  0.83523  1.0000
  S   S336      1.0  0.07590  0.24790  0.33523  1.0000
  S   S337      1.0  0.56960  0.58910  0.38280  1.0000
  S   S338      1.0  0.06960  0.08910  0.88280  1.0000
  S   S339      1.0  0.93040  0.41090  0.88280  1.0000
  S   S340      1.0  0.43040  0.91090  0.38280  1.0000
  S   S341      1.0  0.16090  0.81960  0.63280  1.0000
  S   S342      1.0  0.66090  0.31960  0.13280  1.0000
  S   S343      1.0  0.33910  0.18040  0.13280  1.0000
  S   S344      1.0  0.83910  0.68040  0.63280  1.0000
  S   S345      1.0  0.43040  0.41090  0.61720  1.0000
  S   S346      1.0  0.93040  0.91090  0.11720  1.0000
  S   S347      1.0  0.06960  0.58910  0.11720  1.0000
  S   S348      1.0  0.56960  0.08910  0.61720  1.0000
  S   S349      1.0  0.83910  0.18040  0.36720  1.0000
  S   S350      1.0  0.33910  0.68040  0.86720  1.0000
  S   S351      1.0  0.66090  0.81960  0.86720  1.0000
  S   S352      1.0  0.16090  0.31960  0.36720  1.0000
  S   S353      1.0  0.41230  0.60020  0.38394  1.0000
  S   S354      1.0  0.91230  0.10020  0.88394  1.0000
  S   S355      1.0  0.08770  0.39980  0.88394  1.0000
  S   S356      1.0  0.58770  0.89980  0.38394  1.0000
  S   S357      1.0  0.14980  0.66230  0.63394  1.0000
  S   S358      1.0  0.64980  0.16230  0.13394  1.0000
  S   S359      1.0  0.35020  0.33770  0.13394  1.0000
  S   S360      1.0  0.85020  0.83770  0.63394  1.0000
  S   S361      1.0  0.58770  0.39980  0.61606  1.0000
  S   S362      1.0  0.08770  0.89980  0.11606  1.0000
  S   S363      1.0  0.91230  0.60020  0.11606  1.0000
  S   S364      1.0  0.41230  0.10020  0.61606  1.0000
  S   S365      1.0  0.85020  0.33770  0.36606  1.0000
  S   S366      1.0  0.35020  0.83770  0.86606  1.0000
  S   S367      1.0  0.64980  0.66230  0.86606  1.0000
  S   S368      1.0  0.14980  0.16230  0.36606  1.0000
  S   S369      1.0  0.42047  0.75503  0.38455  1.0000
  S   S370      1.0  0.92047  0.25503  0.88455  1.0000
  S   S371      1.0  0.07953  0.24497  0.88455  1.0000
  S   S372      1.0  0.57953  0.74497  0.38455  1.0000
  S   S373      1.0  0.99497  0.67047  0.63455  1.0000
  S   S374      1.0  0.49497  0.17047  0.13455  1.0000
  S   S375      1.0  0.50503  0.32953  0.13455  1.0000
  S   S376      1.0  0.00503  0.82953  0.63455  1.0000
  S   S377      1.0  0.57953  0.24497  0.61545  1.0000
  S   S378      1.0  0.07953  0.74497  0.11545  1.0000
  S   S379      1.0  0.92047  0.75503  0.11545  1.0000
  S   S380      1.0  0.42047  0.25503  0.61545  1.0000
  S   S381      1.0  0.00503  0.32953  0.36545  1.0000
  S   S382      1.0  0.50503  0.82953  0.86545  1.0000
  S   S383      1.0  0.49497  0.67047  0.86545  1.0000
  S   S384      1.0  0.99497  0.17047  0.36545  1.0000
  S   S385      1.0  0.34036  0.68162  0.35462  1.0000
  S   S386      1.0  0.84036  0.18162  0.85462  1.0000
  S   S387      1.0  0.15964  0.31838  0.85462  1.0000
  S   S388      1.0  0.65964  0.81838  0.35462  1.0000
  S   S389      1.0  0.06838  0.59036  0.60462  1.0000
  S   S390      1.0  0.56838  0.09036  0.10462  1.0000
  S   S391      1.0  0.43162  0.40964  0.10462  1.0000
  S   S392      1.0  0.93162  0.90964  0.60462  1.0000
  S   S393      1.0  0.65964  0.31838  0.64538  1.0000
  S   S394      1.0  0.15964  0.81838  0.14538  1.0000
  S   S395      1.0  0.84036  0.68162  0.14538  1.0000
  S   S396      1.0  0.34036  0.18162  0.64538  1.0000
  S   S397      1.0  0.93162  0.40964  0.39538  1.0000
  S   S398      1.0  0.43162  0.90964  0.89538  1.0000
  S   S399      1.0  0.56838  0.59036  0.89538  1.0000
  S   S400      1.0  0.06838  0.09036  0.39538  1.0000
  S   S401      1.0  0.50482  0.82918  0.35307  1.0000
  S   S402      1.0  0.00482  0.32918  0.85307  1.0000
  S   S403      1.0  0.99518  0.17082  0.85307  1.0000
  S   S404      1.0  0.49518  0.67082  0.35307  1.0000
  S   S405      1.0  0.92082  0.75482  0.60307  1.0000
  S   S406      1.0  0.42082  0.25482  0.10307  1.0000
  S   S407      1.0  0.57918  0.24518  0.10307  1.0000
  S   S408      1.0  0.07918  0.74518  0.60307  1.0000
  S   S409      1.0  0.49518  0.17082  0.64693  1.0000
  S   S410      1.0  0.99518  0.67082  0.14693  1.0000
  S   S411      1.0  0.00482  0.82918  0.14693  1.0000
  S   S412      1.0  0.50482  0.32918  0.64693  1.0000
  S   S413      1.0  0.07918  0.24518  0.39693  1.0000
  S   S414      1.0  0.57918  0.74518  0.89693  1.0000
  S   S415      1.0  0.42082  0.75482  0.89693  1.0000
  S   S416      1.0  0.92082  0.25482  0.39693  1.0000
  S   S417      1.0  0.34991  0.83830  0.35366  1.0000
  S   S418      1.0  0.84991  0.33830  0.85366  1.0000
  S   S419      1.0  0.15009  0.16170  0.85366  1.0000
  S   S420      1.0  0.65009  0.66170  0.35366  1.0000
  S   S421      1.0  0.91170  0.59991  0.60366  1.0000
  S   S422      1.0  0.41170  0.09991  0.10366  1.0000
  S   S423      1.0  0.58830  0.40009  0.10366  1.0000
  S   S424      1.0  0.08830  0.90009  0.60366  1.0000
  S   S425      1.0  0.65009  0.16170  0.64634  1.0000
  S   S426      1.0  0.15009  0.66170  0.14634  1.0000
  S   S427      1.0  0.84991  0.83830  0.14634  1.0000
  S   S428      1.0  0.34991  0.33830  0.64634  1.0000
  S   S429      1.0  0.08830  0.40009  0.39634  1.0000
  S   S430      1.0  0.58830  0.90009  0.89634  1.0000
  S   S431      1.0  0.41170  0.59991  0.89634  1.0000
  S   S432      1.0  0.91170  0.09991  0.39634  1.0000
  S   S433      1.0  0.42386  0.75220  0.32257  1.0000
  S   S434      1.0  0.92386  0.25220  0.82257  1.0000
  S   S435      1.0  0.07614  0.24780  0.82257  1.0000
  S   S436      1.0  0.57614  0.74780  0.32257  1.0000
  S   S437      1.0  0.99780  0.67386  0.57257  1.0000
  S   S438      1.0  0.49780  0.17386  0.07257  1.0000
  S   S439      1.0  0.50220  0.32614  0.07257  1.0000
  S   S440      1.0  0.00220  0.82614  0.57257  1.0000
  S   S441      1.0  0.57614  0.24780  0.67743  1.0000
  S   S442      1.0  0.07614  0.74780  0.17743  1.0000
  S   S443      1.0  0.92386  0.75220  0.17743  1.0000
  S   S444      1.0  0.42386  0.25220  0.67743  1.0000
  S   S445      1.0  0.00220  0.32614  0.42743  1.0000
  S   S446      1.0  0.50220  0.82614  0.92743  1.0000
  S   S447      1.0  0.49780  0.67386  0.92743  1.0000
  S   S448      1.0  0.99780  0.17386  0.42743  1.0000
  N   N1        1.0  0.40010  0.26240  0.47828  1.0000
  N   N2        1.0  0.90010  0.76240  0.97828  1.0000
  N   N3        1.0  0.09990  0.73760  0.97828  1.0000
  N   N4        1.0  0.59990  0.23760  0.47828  1.0000
  N   N5        1.0  0.48760  0.65010  0.72828  1.0000
  N   N6        1.0  0.98760  0.15010  0.22828  1.0000
  N   N7        1.0  0.01240  0.34990  0.22828  1.0000
  N   N8        1.0  0.51240  0.84990  0.72828  1.0000
  N   N9        1.0  0.59990  0.73760  0.52172  1.0000
  N   N10       1.0  0.09990  0.23760  0.02172  1.0000
  N   N11       1.0  0.90010  0.26240  0.02172  1.0000
  N   N12       1.0  0.40010  0.76240  0.52172  1.0000
  N   N13       1.0  0.51240  0.34990  0.27172  1.0000
  N   N14       1.0  0.01240  0.84990  0.77172  1.0000
  N   N15       1.0  0.98760  0.65010  0.77172  1.0000
  N   N16       1.0  0.48760  0.15010  0.27172  1.0000
  C   C1        1.0  0.38780  0.31540  0.48030  1.0000
  C   C2        1.0  0.88780  0.81540  0.98030  1.0000
  C   C3        1.0  0.11220  0.68460  0.98030  1.0000
  C   C4        1.0  0.61220  0.18460  0.48030  1.0000
  C   C5        1.0  0.43460  0.63780  0.73030  1.0000
  C   C6        1.0  0.93460  0.13780  0.23030  1.0000
  C   C7        1.0  0.06540  0.36220  0.23030  1.0000
  C   C8        1.0  0.56540  0.86220  0.73030  1.0000
  C   C9        1.0  0.61220  0.68460  0.51970  1.0000
  C   C10       1.0  0.11220  0.18460  0.01970  1.0000
  C   C11       1.0  0.88780  0.31540  0.01970  1.0000
  C   C12       1.0  0.38780  0.81540  0.51970  1.0000
  C   C13       1.0  0.56540  0.36220  0.26970  1.0000
  C   C14       1.0  0.06540  0.86220  0.76970  1.0000
  C   C15       1.0  0.93460  0.63780  0.76970  1.0000
  C   C16       1.0  0.43460  0.13780  0.26970  1.0000
  C   C17       1.0  0.41050  0.36400  0.47483  1.0000
  C   C18       1.0  0.91050  0.86400  0.97483  1.0000
  C   C19       1.0  0.08950  0.63600  0.97483  1.0000
  C   C20       1.0  0.58950  0.13600  0.47483  1.0000
  C   C21       1.0  0.38600  0.66050  0.72483  1.0000
  C   C22       1.0  0.88600  0.16050  0.22483  1.0000
  C   C23       1.0  0.11400  0.33950  0.22483  1.0000
  C   C24       1.0  0.61400  0.83950  0.72483  1.0000
  C   C25       1.0  0.58950  0.63600  0.52517  1.0000
  C   C26       1.0  0.08950  0.13600  0.02517  1.0000
  C   C27       1.0  0.91050  0.36400  0.02517  1.0000
  C   C28       1.0  0.41050  0.86400  0.52517  1.0000
  C   C29       1.0  0.61400  0.33950  0.27517  1.0000
  C   C30       1.0  0.11400  0.83950  0.77517  1.0000
  C   C31       1.0  0.88600  0.66050  0.77517  1.0000
  C   C32       1.0  0.38600  0.16050  0.27517  1.0000
  C   C33       1.0  0.45060  0.35230  0.46361  1.0000
  C   C34       1.0  0.95060  0.85230  0.96361  1.0000
  C   C35       1.0  0.04940  0.64770  0.96361  1.0000
  C   C36       1.0  0.54940  0.14770  0.46361  1.0000
  C   C37       1.0  0.39770  0.70060  0.71361  1.0000
  C   C38       1.0  0.89770  0.20060  0.21361  1.0000
  C   C39       1.0  0.10230  0.29940  0.21361  1.0000
  C   C40       1.0  0.60230  0.79940  0.71361  1.0000
  C   C41       1.0  0.54940  0.64770  0.53639  1.0000
  C   C42       1.0  0.04940  0.14770  0.03639  1.0000
  C   C43       1.0  0.95060  0.35230  0.03639  1.0000
  C   C44       1.0  0.45060  0.85230  0.53639  1.0000
  C   C45       1.0  0.60230  0.29940  0.28639  1.0000
  C   C46       1.0  0.10230  0.79940  0.78639  1.0000
  C   C47       1.0  0.89770  0.70060  0.78639  1.0000
  C   C48       1.0  0.39770  0.20060  0.28639  1.0000
  C   C49       1.0  0.47170  0.40620  0.45570  1.0000
  C   C50       1.0  0.97170  0.90620  0.95570  1.0000
  C   C51       1.0  0.02830  0.59380  0.95570  1.0000
  C   C52       1.0  0.52830  0.09380  0.45570  1.0000
  C   C53       1.0  0.34380  0.72170  0.70570  1.0000
  C   C54       1.0  0.84380  0.22170  0.20570  1.0000
  C   C55       1.0  0.15620  0.27830  0.20570  1.0000
  C   C56       1.0  0.65620  0.77830  0.70570  1.0000
  C   C57       1.0  0.52830  0.59380  0.54430  1.0000
  C   C58       1.0  0.02830  0.09380  0.04430  1.0000
  C   C59       1.0  0.97170  0.40620  0.04430  1.0000
  C   C60       1.0  0.47170  0.90620  0.54430  1.0000
  C   C61       1.0  0.65620  0.27830  0.29430  1.0000
  C   C62       1.0  0.15620  0.77830  0.79430  1.0000
  C   C63       1.0  0.84380  0.72170  0.79430  1.0000
  C   C64       1.0  0.34380  0.22170  0.29430  1.0000
  C   C65       1.0  0.49600  0.39340  0.44014  1.0000
  C   C66       1.0  0.99600  0.89340  0.94014  1.0000
  C   C67       1.0  0.00400  0.60660  0.94014  1.0000
  C   C68       1.0  0.50400  0.10660  0.44014  1.0000
  C   C69       1.0  0.35660  0.74600  0.69014  1.0000
  C   C70       1.0  0.85660  0.24600  0.19014  1.0000
  C   C71       1.0  0.14340  0.25400  0.19014  1.0000
  C   C72       1.0  0.64340  0.75400  0.69014  1.0000
  C   C73       1.0  0.50400  0.60660  0.55986  1.0000
  C   C74       1.0  0.00400  0.10660  0.05986  1.0000
  C   C75       1.0  0.99600  0.39340  0.05986  1.0000
  C   C76       1.0  0.49600  0.89340  0.55986  1.0000
  C   C77       1.0  0.64340  0.25400  0.30986  1.0000
  C   C78       1.0  0.14340  0.75400  0.80986  1.0000
  C   C79       1.0  0.85660  0.74600  0.80986  1.0000
  C   C80       1.0  0.35660  0.24600  0.30986  1.0000
  C   C81       1.0  0.49450  0.44480  0.43003  1.0000
  C   C82       1.0  0.99450  0.94480  0.93003  1.0000
  C   C83       1.0  0.00550  0.55520  0.93003  1.0000
  C   C84       1.0  0.50550  0.05520  0.43003  1.0000
  C   C85       1.0  0.30520  0.74450  0.68003  1.0000
  C   C86       1.0  0.80520  0.24450  0.18003  1.0000
  C   C87       1.0  0.19480  0.25550  0.18003  1.0000
  C   C88       1.0  0.69480  0.75550  0.68003  1.0000
  C   C89       1.0  0.50550  0.55520  0.56997  1.0000
  C   C90       1.0  0.00550  0.05520  0.06997  1.0000
  C   C91       1.0  0.99450  0.44480  0.06997  1.0000
  C   C92       1.0  0.49450  0.94480  0.56997  1.0000
  C   C93       1.0  0.69480  0.25550  0.31997  1.0000
  C   C94       1.0  0.19480  0.75550  0.81997  1.0000
  C   C95       1.0  0.80520  0.74450  0.81997  1.0000
  C   C96       1.0  0.30520  0.24450  0.31997  1.0000
  C   C97       1.0  0.47040  0.44290  0.41539  1.0000
  C   C98       1.0  0.97040  0.94290  0.91539  1.0000
  C   C99       1.0  0.02960  0.55710  0.91539  1.0000
  C   C100      1.0  0.52960  0.05710  0.41539  1.0000
  C   C101      1.0  0.30710  0.72040  0.66539  1.0000
  C   C102      1.0  0.80710  0.22040  0.16539  1.0000
  C   C103      1.0  0.19290  0.27960  0.16539  1.0000
  C   C104      1.0  0.69290  0.77960  0.66539  1.0000
  C   C105      1.0  0.52960  0.55710  0.58461  1.0000
  C   C106      1.0  0.02960  0.05710  0.08461  1.0000
  C   C107      1.0  0.97040  0.44290  0.08461  1.0000
  C   C108      1.0  0.47040  0.94290  0.58461  1.0000
  C   C109      1.0  0.69290  0.27960  0.33461  1.0000
  C   C110      1.0  0.19290  0.77960  0.83461  1.0000
  C   C111      1.0  0.80710  0.72040  0.83461  1.0000
  C   C112      1.0  0.30710  0.22040  0.33461  1.0000
  C   C113      1.0  0.47140  0.49040  0.40630  1.0000
  C   C114      1.0  0.97140  0.99040  0.90630  1.0000
  C   C115      1.0  0.02860  0.50960  0.90630  1.0000
  C   C116      1.0  0.52860  0.00960  0.40630  1.0000
  C   C117      1.0  0.25960  0.72140  0.65630  1.0000
  C   C118      1.0  0.75960  0.22140  0.15630  1.0000
  C   C119      1.0  0.24040  0.27860  0.15630  1.0000
  C   C120      1.0  0.74040  0.77860  0.65630  1.0000
  C   C121      1.0  0.52860  0.50960  0.59370  1.0000
  C   C122      1.0  0.02860  0.00960  0.09370  1.0000
  C   C123      1.0  0.97140  0.49040  0.09370  1.0000
  C   C124      1.0  0.47140  0.99040  0.59370  1.0000
  C   C125      1.0  0.74040  0.27860  0.34370  1.0000
  C   C126      1.0  0.24040  0.77860  0.84370  1.0000
  C   C127      1.0  0.75960  0.72140  0.84370  1.0000
  C   C128      1.0  0.25960  0.22140  0.34370  1.0000
  N   N17       1.0  0.49270  0.53660  0.41067  1.0000
  N   N18       1.0  0.99270  0.03660  0.91067  1.0000
  N   N19       1.0  0.00730  0.46340  0.91067  1.0000
  N   N20       1.0  0.50730  0.96340  0.41067  1.0000
  N   N21       1.0  0.21340  0.74270  0.66067  1.0000
  N   N22       1.0  0.71340  0.24270  0.16067  1.0000
  N   N23       1.0  0.28660  0.25730  0.16067  1.0000
  N   N24       1.0  0.78660  0.75730  0.66067  1.0000
  N   N25       1.0  0.50730  0.46340  0.58933  1.0000
  N   N26       1.0  0.00730  0.96340  0.08933  1.0000
  N   N27       1.0  0.99270  0.53660  0.08933  1.0000
  N   N28       1.0  0.49270  0.03660  0.58933  1.0000
  N   N29       1.0  0.78660  0.25730  0.33933  1.0000
  N   N30       1.0  0.28660  0.75730  0.83933  1.0000
  N   N31       1.0  0.71340  0.74270  0.83933  1.0000
  N   N32       1.0  0.21340  0.24270  0.33933  1.0000
  N   N33       1.0  0.28590  0.76130  0.32814  1.0000
  N   N34       1.0  0.78590  0.26130  0.82814  1.0000
  N   N35       1.0  0.21410  0.23870  0.82814  1.0000
  N   N36       1.0  0.71410  0.73870  0.32814  1.0000
  N   N37       1.0  0.98870  0.53590  0.57814  1.0000
  N   N38       1.0  0.48870  0.03590  0.07814  1.0000
  N   N39       1.0  0.51130  0.46410  0.07814  1.0000
  N   N40       1.0  0.01130  0.96410  0.57814  1.0000
  N   N41       1.0  0.71410  0.23870  0.67186  1.0000
  N   N42       1.0  0.21410  0.73870  0.17186  1.0000
  N   N43       1.0  0.78590  0.76130  0.17186  1.0000
  N   N44       1.0  0.28590  0.26130  0.67186  1.0000
  N   N45       1.0  0.01130  0.46410  0.42186  1.0000
  N   N46       1.0  0.51130  0.96410  0.92186  1.0000
  N   N47       1.0  0.48870  0.53590  0.92186  1.0000
  N   N48       1.0  0.98870  0.03590  0.42186  1.0000
  C   C129      1.0  0.27830  0.77040  0.31120  1.0000
  C   C130      1.0  0.77830  0.27040  0.81120  1.0000
  C   C131      1.0  0.22170  0.22960  0.81120  1.0000
  C   C132      1.0  0.72170  0.72960  0.31120  1.0000
  C   C133      1.0  0.97960  0.52830  0.56120  1.0000
  C   C134      1.0  0.47960  0.02830  0.06120  1.0000
  C   C135      1.0  0.52040  0.47170  0.06120  1.0000
  C   C136      1.0  0.02040  0.97170  0.56120  1.0000
  C   C137      1.0  0.72170  0.22960  0.68880  1.0000
  C   C138      1.0  0.22170  0.72960  0.18880  1.0000
  C   C139      1.0  0.77830  0.77040  0.18880  1.0000
  C   C140      1.0  0.27830  0.27040  0.68880  1.0000
  C   C141      1.0  0.02040  0.47170  0.43880  1.0000
  C   C142      1.0  0.52040  0.97170  0.93880  1.0000
  C   C143      1.0  0.47960  0.52830  0.93880  1.0000
  C   C144      1.0  0.97960  0.02830  0.43880  1.0000
  C   C145      1.0  0.51750  0.54060  0.42540  1.0000
  C   C146      1.0  0.01750  0.04060  0.92540  1.0000
  C   C147      1.0  0.98250  0.45940  0.92540  1.0000
  C   C148      1.0  0.48250  0.95940  0.42540  1.0000
  C   C149      1.0  0.20940  0.76750  0.67540  1.0000
  C   C150      1.0  0.70940  0.26750  0.17540  1.0000
  C   C151      1.0  0.29060  0.23250  0.17540  1.0000
  C   C152      1.0  0.79060  0.73250  0.67540  1.0000
  C   C153      1.0  0.48250  0.45940  0.57460  1.0000
  C   C154      1.0  0.98250  0.95940  0.07460  1.0000
  C   C155      1.0  0.01750  0.54060  0.07460  1.0000
  C   C156      1.0  0.51750  0.04060  0.57460  1.0000
  C   C157      1.0  0.79060  0.23250  0.32460  1.0000
  C   C158      1.0  0.29060  0.73250  0.82460  1.0000
  C   C159      1.0  0.70940  0.76750  0.82460  1.0000
  C   C160      1.0  0.20940  0.26750  0.32460  1.0000
  C   C161      1.0  0.51740  0.49410  0.43460  1.0000
  C   C162      1.0  0.01740  0.99410  0.93460  1.0000
  C   C163      1.0  0.98260  0.50590  0.93460  1.0000
  C   C164      1.0  0.48260  0.00590  0.43460  1.0000
  C   C165      1.0  0.25590  0.76740  0.68460  1.0000
  C   C166      1.0  0.75590  0.26740  0.18460  1.0000
  C   C167      1.0  0.24410  0.23260  0.18460  1.0000
  C   C168      1.0  0.74410  0.73260  0.68460  1.0000
  C   C169      1.0  0.48260  0.50590  0.56540  1.0000
  C   C170      1.0  0.98260  0.00590  0.06540  1.0000
  C   C171      1.0  0.01740  0.49410  0.06540  1.0000
  C   C172      1.0  0.51740  0.99410  0.56540  1.0000
  C   C173      1.0  0.74410  0.23260  0.31540  1.0000
  C   C174      1.0  0.24410  0.73260  0.81540  1.0000
  C   C175      1.0  0.75590  0.76740  0.81540  1.0000
  C   C176      1.0  0.25590  0.26740  0.31540  1.0000
  C   C177      1.0  0.47050  0.30100  0.45851  1.0000
  C   C178      1.0  0.97050  0.80100  0.95851  1.0000
  C   C179      1.0  0.02950  0.69900  0.95851  1.0000
  C   C180      1.0  0.52950  0.19900  0.45851  1.0000
  C   C181      1.0  0.44900  0.72050  0.70851  1.0000
  C   C182      1.0  0.94900  0.22050  0.20851  1.0000
  C   C183      1.0  0.05100  0.27950  0.20851  1.0000
  C   C184      1.0  0.55100  0.77950  0.70851  1.0000
  C   C185      1.0  0.52950  0.69900  0.54149  1.0000
  C   C186      1.0  0.02950  0.19900  0.04149  1.0000
  C   C187      1.0  0.97050  0.30100  0.04149  1.0000
  C   C188      1.0  0.47050  0.80100  0.54149  1.0000
  C   C189      1.0  0.55100  0.27950  0.29149  1.0000
  C   C190      1.0  0.05100  0.77950  0.79149  1.0000
  C   C191      1.0  0.94900  0.72050  0.79149  1.0000
  C   C192      1.0  0.44900  0.22050  0.29149  1.0000
  C   C193      1.0  0.44530  0.25510  0.46551  1.0000
  C   C194      1.0  0.94530  0.75510  0.96551  1.0000
  C   C195      1.0  0.05470  0.74490  0.96551  1.0000
  C   C196      1.0  0.55470  0.24490  0.46551  1.0000
  C   C197      1.0  0.49490  0.69530  0.71551  1.0000
  C   C198      1.0  0.99490  0.19530  0.21551  1.0000
  C   C199      1.0  0.00510  0.30470  0.21551  1.0000
  C   C200      1.0  0.50510  0.80470  0.71551  1.0000
  C   C201      1.0  0.55470  0.74490  0.53449  1.0000
  C   C202      1.0  0.05470  0.24490  0.03449  1.0000
  C   C203      1.0  0.94530  0.25510  0.03449  1.0000
  C   C204      1.0  0.44530  0.75510  0.53449  1.0000
  C   C205      1.0  0.50510  0.30470  0.28449  1.0000
  C   C206      1.0  0.00510  0.80470  0.78449  1.0000
  C   C207      1.0  0.99490  0.69530  0.78449  1.0000
  C   C208      1.0  0.49490  0.19530  0.28449  1.0000
  N   N49       1.0  0.32720  0.85290  0.45702  1.0000
  N   N50       1.0  0.82720  0.35290  0.95702  1.0000
  N   N51       1.0  0.17280  0.14710  0.95702  1.0000
  N   N52       1.0  0.67280  0.64710  0.45702  1.0000
  N   N53       1.0  0.89710  0.57720  0.70702  1.0000
  N   N54       1.0  0.39710  0.07720  0.20702  1.0000
  N   N55       1.0  0.60290  0.42280  0.20702  1.0000
  N   N56       1.0  0.10290  0.92280  0.70702  1.0000
  N   N57       1.0  0.67280  0.14710  0.54298  1.0000
  N   N58       1.0  0.17280  0.64710  0.04298  1.0000
  N   N59       1.0  0.82720  0.85290  0.04298  1.0000
  N   N60       1.0  0.32720  0.35290  0.54298  1.0000
  N   N61       1.0  0.10290  0.42280  0.29298  1.0000
  N   N62       1.0  0.60290  0.92280  0.79298  1.0000
  N   N63       1.0  0.39710  0.57720  0.79298  1.0000
  N   N64       1.0  0.89710  0.07720  0.29298  1.0000
  C   C209      1.0  0.35350  0.85970  0.44300  1.0000
  C   C210      1.0  0.85350  0.35970  0.94300  1.0000
  C   C211      1.0  0.14650  0.14030  0.94300  1.0000
  C   C212      1.0  0.64650  0.64030  0.44300  1.0000
  C   C213      1.0  0.89030  0.60350  0.69300  1.0000
  C   C214      1.0  0.39030  0.10350  0.19300  1.0000
  C   C215      1.0  0.60970  0.39650  0.19300  1.0000
  C   C216      1.0  0.10970  0.89650  0.69300  1.0000
  C   C217      1.0  0.64650  0.14030  0.55700  1.0000
  C   C218      1.0  0.14650  0.64030  0.05700  1.0000
  C   C219      1.0  0.85350  0.85970  0.05700  1.0000
  C   C220      1.0  0.35350  0.35970  0.55700  1.0000
  C   C221      1.0  0.10970  0.39650  0.30700  1.0000
  C   C222      1.0  0.60970  0.89650  0.80700  1.0000
  C   C223      1.0  0.39030  0.60350  0.80700  1.0000
  C   C224      1.0  0.89030  0.10350  0.30700  1.0000
  C   C225      1.0  0.36280  0.81520  0.43330  1.0000
  C   C226      1.0  0.86280  0.31520  0.93330  1.0000
  C   C227      1.0  0.13720  0.18480  0.93330  1.0000
  C   C228      1.0  0.63720  0.68480  0.43330  1.0000
  C   C229      1.0  0.93480  0.61280  0.68330  1.0000
  C   C230      1.0  0.43480  0.11280  0.18330  1.0000
  C   C231      1.0  0.56520  0.38720  0.18330  1.0000
  C   C232      1.0  0.06520  0.88720  0.68330  1.0000
  C   C233      1.0  0.63720  0.18480  0.56670  1.0000
  C   C234      1.0  0.13720  0.68480  0.06670  1.0000
  C   C235      1.0  0.86280  0.81520  0.06670  1.0000
  C   C236      1.0  0.36280  0.31520  0.56670  1.0000
  C   C237      1.0  0.06520  0.38720  0.31670  1.0000
  C   C238      1.0  0.56520  0.88720  0.81670  1.0000
  C   C239      1.0  0.43480  0.61280  0.81670  1.0000
  C   C240      1.0  0.93480  0.11280  0.31670  1.0000
  C   C241      1.0  0.34290  0.76480  0.43690  1.0000
  C   C242      1.0  0.84290  0.26480  0.93690  1.0000
  C   C243      1.0  0.15710  0.23520  0.93690  1.0000
  C   C244      1.0  0.65710  0.73520  0.43690  1.0000
  C   C245      1.0  0.98520  0.59290  0.68690  1.0000
  C   C246      1.0  0.48520  0.09290  0.18690  1.0000
  C   C247      1.0  0.51480  0.40710  0.18690  1.0000
  C   C248      1.0  0.01480  0.90710  0.68690  1.0000
  C   C249      1.0  0.65710  0.23520  0.56310  1.0000
  C   C250      1.0  0.15710  0.73520  0.06310  1.0000
  C   C251      1.0  0.84290  0.76480  0.06310  1.0000
  C   C252      1.0  0.34290  0.26480  0.56310  1.0000
  C   C253      1.0  0.01480  0.40710  0.31310  1.0000
  C   C254      1.0  0.51480  0.90710  0.81310  1.0000
  C   C255      1.0  0.48520  0.59290  0.81310  1.0000
  C   C256      1.0  0.98520  0.09290  0.31310  1.0000
  C   C257      1.0  0.31980  0.75820  0.45130  1.0000
  C   C258      1.0  0.81980  0.25820  0.95130  1.0000
  C   C259      1.0  0.18020  0.24180  0.95130  1.0000
  C   C260      1.0  0.68020  0.74180  0.45130  1.0000
  C   C261      1.0  0.99180  0.56980  0.70130  1.0000
  C   C262      1.0  0.49180  0.06980  0.20130  1.0000
  C   C263      1.0  0.50820  0.43020  0.20130  1.0000
  C   C264      1.0  0.00820  0.93020  0.70130  1.0000
  C   C265      1.0  0.68020  0.24180  0.54870  1.0000
  C   C266      1.0  0.18020  0.74180  0.04870  1.0000
  C   C267      1.0  0.81980  0.75820  0.04870  1.0000
  C   C268      1.0  0.31980  0.25820  0.54870  1.0000
  C   C269      1.0  0.00820  0.43020  0.29870  1.0000
  C   C270      1.0  0.50820  0.93020  0.79870  1.0000
  C   C271      1.0  0.49180  0.56980  0.79870  1.0000
  C   C272      1.0  0.99180  0.06980  0.29870  1.0000
  C   C273      1.0  0.31140  0.80250  0.46086  1.0000
  C   C274      1.0  0.81140  0.30250  0.96086  1.0000
  C   C275      1.0  0.18860  0.19750  0.96086  1.0000
  C   C276      1.0  0.68860  0.69750  0.46086  1.0000
  C   C277      1.0  0.94750  0.56140  0.71086  1.0000
  C   C278      1.0  0.44750  0.06140  0.21086  1.0000
  C   C279      1.0  0.55250  0.43860  0.21086  1.0000
  C   C280      1.0  0.05250  0.93860  0.71086  1.0000
  C   C281      1.0  0.68860  0.19750  0.53914  1.0000
  C   C282      1.0  0.18860  0.69750  0.03914  1.0000
  C   C283      1.0  0.81140  0.80250  0.03914  1.0000
  C   C284      1.0  0.31140  0.30250  0.53914  1.0000
  C   C285      1.0  0.05250  0.43860  0.28914  1.0000
  C   C286      1.0  0.55250  0.93860  0.78914  1.0000
  C   C287      1.0  0.44750  0.56140  0.78914  1.0000
  C   C288      1.0  0.94750  0.06140  0.28914  1.0000
  C   C289      1.0  0.34700  0.71160  0.42570  1.0000
  C   C290      1.0  0.84700  0.21160  0.92570  1.0000
  C   C291      1.0  0.15300  0.28840  0.92570  1.0000
  C   C292      1.0  0.65300  0.78840  0.42570  1.0000
  C   C293      1.0  0.03840  0.59700  0.67570  1.0000
  C   C294      1.0  0.53840  0.09700  0.17570  1.0000
  C   C295      1.0  0.46160  0.40300  0.17570  1.0000
  C   C296      1.0  0.96160  0.90300  0.67570  1.0000
  C   C297      1.0  0.65300  0.28840  0.57430  1.0000
  C   C298      1.0  0.15300  0.78840  0.07430  1.0000
  C   C299      1.0  0.84700  0.71160  0.07430  1.0000
  C   C300      1.0  0.34700  0.21160  0.57430  1.0000
  C   C301      1.0  0.96160  0.40300  0.32430  1.0000
  C   C302      1.0  0.46160  0.90300  0.82430  1.0000
  C   C303      1.0  0.53840  0.59700  0.82430  1.0000
  C   C304      1.0  0.03840  0.09700  0.32430  1.0000
  N   N65       1.0  0.26060  0.00850  0.56643  1.0000
  N   N66       1.0  0.76060  0.50850  0.06643  1.0000
  N   N67       1.0  0.23940  0.99150  0.06643  1.0000
  N   N68       1.0  0.73940  0.49150  0.56643  1.0000
  N   N69       1.0  0.74150  0.51060  0.81643  1.0000
  N   N70       1.0  0.24150  0.01060  0.31643  1.0000
  N   N71       1.0  0.75850  0.48940  0.31643  1.0000
  N   N72       1.0  0.25850  0.98940  0.81643  1.0000
  N   N73       1.0  0.73940  0.99150  0.43357  1.0000
  N   N74       1.0  0.23940  0.49150  0.93357  1.0000
  N   N75       1.0  0.76060  0.00850  0.93357  1.0000
  N   N76       1.0  0.26060  0.50850  0.43357  1.0000
  N   N77       1.0  0.25850  0.48940  0.18357  1.0000
  N   N78       1.0  0.75850  0.98940  0.68357  1.0000
  N   N79       1.0  0.24150  0.51060  0.68357  1.0000
  N   N80       1.0  0.74150  0.01060  0.18357  1.0000
  C   C305      1.0  0.21600  0.99510  0.57400  1.0000
  C   C306      1.0  0.71600  0.49510  0.07400  1.0000
  C   C307      1.0  0.28400  0.00490  0.07400  1.0000
  C   C308      1.0  0.78400  0.50490  0.57400  1.0000
  C   C309      1.0  0.75490  0.46600  0.82400  1.0000
  C   C310      1.0  0.25490  0.96600  0.32400  1.0000
  C   C311      1.0  0.74510  0.53400  0.32400  1.0000
  C   C312      1.0  0.24510  0.03400  0.82400  1.0000
  C   C313      1.0  0.78400  0.00490  0.42600  1.0000
  C   C314      1.0  0.28400  0.50490  0.92600  1.0000
  C   C315      1.0  0.71600  0.99510  0.92600  1.0000
  C   C316      1.0  0.21600  0.49510  0.42600  1.0000
  C   C317      1.0  0.24510  0.53400  0.17600  1.0000
  C   C318      1.0  0.74510  0.03400  0.67600  1.0000
  C   C319      1.0  0.25490  0.46600  0.67600  1.0000
  C   C320      1.0  0.75490  0.96600  0.17600  1.0000
  C   C321      1.0  0.21460  0.98270  0.59010  1.0000
  C   C322      1.0  0.71460  0.48270  0.09010  1.0000
  C   C323      1.0  0.28540  0.01730  0.09010  1.0000
  C   C324      1.0  0.78540  0.51730  0.59010  1.0000
  C   C325      1.0  0.76730  0.46460  0.84010  1.0000
  C   C326      1.0  0.26730  0.96460  0.34010  1.0000
  C   C327      1.0  0.73270  0.53540  0.34010  1.0000
  C   C328      1.0  0.23270  0.03540  0.84010  1.0000
  C   C329      1.0  0.78540  0.01730  0.40990  1.0000
  C   C330      1.0  0.28540  0.51730  0.90990  1.0000
  C   C331      1.0  0.71460  0.98270  0.90990  1.0000
  C   C332      1.0  0.21460  0.48270  0.40990  1.0000
  C   C333      1.0  0.23270  0.53540  0.15990  1.0000
  C   C334      1.0  0.73270  0.03540  0.65990  1.0000
  C   C335      1.0  0.26730  0.46460  0.65990  1.0000
  C   C336      1.0  0.76730  0.96460  0.15990  1.0000
  C   C337      1.0  0.26090  0.98460  0.59836  1.0000
  C   C338      1.0  0.76090  0.48460  0.09836  1.0000
  C   C339      1.0  0.23910  0.01540  0.09836  1.0000
  C   C340      1.0  0.73910  0.51540  0.59836  1.0000
  C   C341      1.0  0.76540  0.51090  0.84836  1.0000
  C   C342      1.0  0.26540  0.01090  0.34836  1.0000
  C   C343      1.0  0.73460  0.48910  0.34836  1.0000
  C   C344      1.0  0.23460  0.98910  0.84836  1.0000
  C   C345      1.0  0.73910  0.01540  0.40164  1.0000
  C   C346      1.0  0.23910  0.51540  0.90164  1.0000
  C   C347      1.0  0.76090  0.98460  0.90164  1.0000
  C   C348      1.0  0.26090  0.48460  0.40164  1.0000
  C   C349      1.0  0.23460  0.48910  0.15164  1.0000
  C   C350      1.0  0.73460  0.98910  0.65164  1.0000
  C   C351      1.0  0.26540  0.51090  0.65164  1.0000
  C   C352      1.0  0.76540  0.01090  0.15164  1.0000
  C   C353      1.0  0.30950  0.99930  0.59100  1.0000
  C   C354      1.0  0.80950  0.49930  0.09100  1.0000
  C   C355      1.0  0.19050  0.00070  0.09100  1.0000
  C   C356      1.0  0.69050  0.50070  0.59100  1.0000
  C   C357      1.0  0.75070  0.55950  0.84100  1.0000
  C   C358      1.0  0.25070  0.05950  0.34100  1.0000
  C   C359      1.0  0.74930  0.44050  0.34100  1.0000
  C   C360      1.0  0.24930  0.94050  0.84100  1.0000
  C   C361      1.0  0.69050  0.00070  0.40900  1.0000
  C   C362      1.0  0.19050  0.50070  0.90900  1.0000
  C   C363      1.0  0.80950  0.99930  0.90900  1.0000
  C   C364      1.0  0.30950  0.49930  0.40900  1.0000
  C   C365      1.0  0.24930  0.44050  0.15900  1.0000
  C   C366      1.0  0.74930  0.94050  0.65900  1.0000
  C   C367      1.0  0.25070  0.55950  0.65900  1.0000
  C   C368      1.0  0.75070  0.05950  0.15900  1.0000
  C   C369      1.0  0.30590  0.01090  0.57430  1.0000
  C   C370      1.0  0.80590  0.51090  0.07430  1.0000
  C   C371      1.0  0.19410  0.98910  0.07430  1.0000
  C   C372      1.0  0.69410  0.48910  0.57430  1.0000
  C   C373      1.0  0.73910  0.55590  0.82430  1.0000
  C   C374      1.0  0.23910  0.05590  0.32430  1.0000
  C   C375      1.0  0.76090  0.44410  0.32430  1.0000
  C   C376      1.0  0.26090  0.94410  0.82430  1.0000
  C   C377      1.0  0.69410  0.98910  0.42570  1.0000
  C   C378      1.0  0.19410  0.48910  0.92570  1.0000
  C   C379      1.0  0.80590  0.01090  0.92570  1.0000
  C   C380      1.0  0.30590  0.51090  0.42570  1.0000
  C   C381      1.0  0.26090  0.44410  0.17570  1.0000
  C   C382      1.0  0.76090  0.94410  0.67570  1.0000
  C   C383      1.0  0.23910  0.55590  0.67570  1.0000
  C   C384      1.0  0.73910  0.05590  0.17570  1.0000
  C   C385      1.0  0.26170  0.97140  0.61580  1.0000
  C   C386      1.0  0.76170  0.47140  0.11580  1.0000
  C   C387      1.0  0.23830  0.02860  0.11580  1.0000
  C   C388      1.0  0.73830  0.52860  0.61580  1.0000
  C   C389      1.0  0.77860  0.51170  0.86580  1.0000
  C   C390      1.0  0.27860  0.01170  0.36580  1.0000
  C   C391      1.0  0.72140  0.48830  0.36580  1.0000
  C   C392      1.0  0.22140  0.98830  0.86580  1.0000
  C   C393      1.0  0.73830  0.02860  0.38420  1.0000
  C   C394      1.0  0.23830  0.52860  0.88420  1.0000
  C   C395      1.0  0.76170  0.97140  0.88420  1.0000
  C   C396      1.0  0.26170  0.47140  0.38420  1.0000
  C   C397      1.0  0.22140  0.48830  0.13420  1.0000
  C   C398      1.0  0.72140  0.98830  0.63420  1.0000
  C   C399      1.0  0.27860  0.51170  0.63420  1.0000
  C   C400      1.0  0.77860  0.01170  0.13420  1.0000
  N   N81       1.0  0.00460  0.11750  0.47749  1.0000
  N   N82       1.0  0.50460  0.61750  0.97749  1.0000
  N   N83       1.0  0.49540  0.88250  0.97749  1.0000
  N   N84       1.0  0.99540  0.38250  0.47749  1.0000
  N   N85       1.0  0.63250  0.25460  0.72749  1.0000
  N   N86       1.0  0.13250  0.75460  0.22749  1.0000
  N   N87       1.0  0.86750  0.74540  0.22749  1.0000
  N   N88       1.0  0.36750  0.24540  0.72749  1.0000
  N   N89       1.0  0.99540  0.88250  0.52251  1.0000
  N   N90       1.0  0.49540  0.38250  0.02251  1.0000
  N   N91       1.0  0.50460  0.11750  0.02251  1.0000
  N   N92       1.0  0.00460  0.61750  0.52251  1.0000
  N   N93       1.0  0.36750  0.74540  0.27251  1.0000
  N   N94       1.0  0.86750  0.24540  0.77251  1.0000
  N   N95       1.0  0.13250  0.25460  0.77251  1.0000
  N   N96       1.0  0.63250  0.75460  0.27251  1.0000
  C   C401      1.0  0.99130  0.16720  0.47143  1.0000
  C   C402      1.0  0.49130  0.66720  0.97143  1.0000
  C   C403      1.0  0.50870  0.83280  0.97143  1.0000
  C   C404      1.0  0.00870  0.33280  0.47143  1.0000
  C   C405      1.0  0.58280  0.24130  0.72143  1.0000
  C   C406      1.0  0.08280  0.74130  0.22143  1.0000
  C   C407      1.0  0.91720  0.75870  0.22143  1.0000
  C   C408      1.0  0.41720  0.25870  0.72143  1.0000
  C   C409      1.0  0.00870  0.83280  0.52857  1.0000
  C   C410      1.0  0.50870  0.33280  0.02857  1.0000
  C   C411      1.0  0.49130  0.16720  0.02857  1.0000
  C   C412      1.0  0.99130  0.66720  0.52857  1.0000
  C   C413      1.0  0.41720  0.75870  0.27857  1.0000
  C   C414      1.0  0.91720  0.25870  0.77857  1.0000
  C   C415      1.0  0.08280  0.24130  0.77857  1.0000
  C   C416      1.0  0.58280  0.74130  0.27857  1.0000
  C   C417      1.0  0.93840  0.18000  0.46671  1.0000
  C   C418      1.0  0.43840  0.68000  0.96671  1.0000
  C   C419      1.0  0.56160  0.82000  0.96671  1.0000
  C   C420      1.0  0.06160  0.32000  0.46671  1.0000
  C   C421      1.0  0.57000  0.18840  0.71671  1.0000
  C   C422      1.0  0.07000  0.68840  0.21671  1.0000
  C   C423      1.0  0.93000  0.81160  0.21671  1.0000
  C   C424      1.0  0.43000  0.31160  0.71671  1.0000
  C   C425      1.0  0.06160  0.82000  0.53329  1.0000
  C   C426      1.0  0.56160  0.32000  0.03329  1.0000
  C   C427      1.0  0.43840  0.18000  0.03329  1.0000
  C   C428      1.0  0.93840  0.68000  0.53329  1.0000
  C   C429      1.0  0.43000  0.81160  0.28329  1.0000
  C   C430      1.0  0.93000  0.31160  0.78329  1.0000
  C   C431      1.0  0.07000  0.18840  0.78329  1.0000
  C   C432      1.0  0.57000  0.68840  0.28329  1.0000
  C   C433      1.0  0.89640  0.14090  0.46813  1.0000
  C   C434      1.0  0.39640  0.64090  0.96813  1.0000
  C   C435      1.0  0.60360  0.85910  0.96813  1.0000
  C   C436      1.0  0.10360  0.35910  0.46813  1.0000
  C   C437      1.0  0.60910  0.14640  0.71813  1.0000
  C   C438      1.0  0.10910  0.64640  0.21813  1.0000
  C   C439      1.0  0.89090  0.85360  0.21813  1.0000
  C   C440      1.0  0.39090  0.35360  0.71813  1.0000
  C   C441      1.0  0.10360  0.85910  0.53187  1.0000
  C   C442      1.0  0.60360  0.35910  0.03187  1.0000
  C   C443      1.0  0.39640  0.14090  0.03187  1.0000
  C   C444      1.0  0.89640  0.64090  0.53187  1.0000
  C   C445      1.0  0.39090  0.85360  0.28187  1.0000
  C   C446      1.0  0.89090  0.35360  0.78187  1.0000
  C   C447      1.0  0.10910  0.14640  0.78187  1.0000
  C   C448      1.0  0.60910  0.64640  0.28187  1.0000
  C   C449      1.0  0.83970  0.15230  0.46145  1.0000
  C   C450      1.0  0.33970  0.65230  0.96145  1.0000
  C   C451      1.0  0.66030  0.84770  0.96145  1.0000
  C   C452      1.0  0.16030  0.34770  0.46145  1.0000
  C   C453      1.0  0.59770  0.08970  0.71145  1.0000
  C   C454      1.0  0.09770  0.58970  0.21145  1.0000
  C   C455      1.0  0.90230  0.91030  0.21145  1.0000
  C   C456      1.0  0.40230  0.41030  0.71145  1.0000
  C   C457      1.0  0.16030  0.84770  0.53855  1.0000
  C   C458      1.0  0.66030  0.34770  0.03855  1.0000
  C   C459      1.0  0.33970  0.15230  0.03855  1.0000
  C   C460      1.0  0.83970  0.65230  0.53855  1.0000
  C   C461      1.0  0.40230  0.91030  0.28855  1.0000
  C   C462      1.0  0.90230  0.41030  0.78855  1.0000
  C   C463      1.0  0.09770  0.08970  0.78855  1.0000
  C   C464      1.0  0.59770  0.58970  0.28855  1.0000
  C   C465      1.0  0.84160  0.13830  0.44440  1.0000
  C   C466      1.0  0.34160  0.63830  0.94440  1.0000
  C   C467      1.0  0.65840  0.86170  0.94440  1.0000
  C   C468      1.0  0.15840  0.36170  0.44440  1.0000
  C   C469      1.0  0.61170  0.09160  0.69440  1.0000
  C   C470      1.0  0.11170  0.59160  0.19440  1.0000
  C   C471      1.0  0.88830  0.90840  0.19440  1.0000
  C   C472      1.0  0.38830  0.40840  0.69440  1.0000
  C   C473      1.0  0.15840  0.86170  0.55560  1.0000
  C   C474      1.0  0.65840  0.36170  0.05560  1.0000
  C   C475      1.0  0.34160  0.13830  0.05560  1.0000
  C   C476      1.0  0.84160  0.63830  0.55560  1.0000
  C   C477      1.0  0.38830  0.90840  0.30560  1.0000
  C   C478      1.0  0.88830  0.40840  0.80560  1.0000
  C   C479      1.0  0.11170  0.09160  0.80560  1.0000
  C   C480      1.0  0.61170  0.59160  0.30560  1.0000
  C   C481      1.0  0.79180  0.15660  0.43468  1.0000
  C   C482      1.0  0.29180  0.65660  0.93468  1.0000
  C   C483      1.0  0.70820  0.84340  0.93468  1.0000
  C   C484      1.0  0.20820  0.34340  0.43468  1.0000
  C   C485      1.0  0.59340  0.04180  0.68468  1.0000
  C   C486      1.0  0.09340  0.54180  0.18468  1.0000
  C   C487      1.0  0.90660  0.95820  0.18468  1.0000
  C   C488      1.0  0.40660  0.45820  0.68468  1.0000
  C   C489      1.0  0.20820  0.84340  0.56532  1.0000
  C   C490      1.0  0.70820  0.34340  0.06532  1.0000
  C   C491      1.0  0.29180  0.15660  0.06532  1.0000
  C   C492      1.0  0.79180  0.65660  0.56532  1.0000
  C   C493      1.0  0.40660  0.95820  0.31532  1.0000
  C   C494      1.0  0.90660  0.45820  0.81532  1.0000
  C   C495      1.0  0.09340  0.04180  0.81532  1.0000
  C   C496      1.0  0.59340  0.54180  0.31532  1.0000
  C   C497      1.0  0.74080  0.16560  0.44148  1.0000
  C   C498      1.0  0.24080  0.66560  0.94148  1.0000
  C   C499      1.0  0.75920  0.83440  0.94148  1.0000
  C   C500      1.0  0.25920  0.33440  0.44148  1.0000
  C   C501      1.0  0.58440  0.99080  0.69148  1.0000
  C   C502      1.0  0.08440  0.49080  0.19148  1.0000
  C   C503      1.0  0.91560  0.00920  0.19148  1.0000
  C   C504      1.0  0.41560  0.50920  0.69148  1.0000
  C   C505      1.0  0.25920  0.83440  0.55852  1.0000
  C   C506      1.0  0.75920  0.33440  0.05852  1.0000
  C   C507      1.0  0.24080  0.16560  0.05852  1.0000
  C   C508      1.0  0.74080  0.66560  0.55852  1.0000
  C   C509      1.0  0.41560  0.00920  0.30852  1.0000
  C   C510      1.0  0.91560  0.50920  0.80852  1.0000
  C   C511      1.0  0.08440  0.99080  0.80852  1.0000
  C   C512      1.0  0.58440  0.49080  0.30852  1.0000
  C   C513      1.0  0.69750  0.18310  0.43244  1.0000
  C   C514      1.0  0.19750  0.68310  0.93244  1.0000
  C   C515      1.0  0.80250  0.81690  0.93244  1.0000
  C   C516      1.0  0.30250  0.31690  0.43244  1.0000
  C   C517      1.0  0.56690  0.94750  0.68244  1.0000
  C   C518      1.0  0.06690  0.44750  0.18244  1.0000
  C   C519      1.0  0.93310  0.05250  0.18244  1.0000
  C   C520      1.0  0.43310  0.55250  0.68244  1.0000
  C   C521      1.0  0.30250  0.81690  0.56756  1.0000
  C   C522      1.0  0.80250  0.31690  0.06756  1.0000
  C   C523      1.0  0.19750  0.18310  0.06756  1.0000
  C   C524      1.0  0.69750  0.68310  0.56756  1.0000
  C   C525      1.0  0.43310  0.05250  0.31756  1.0000
  C   C526      1.0  0.93310  0.55250  0.81756  1.0000
  C   C527      1.0  0.06690  0.94750  0.81756  1.0000
  C   C528      1.0  0.56690  0.44750  0.31756  1.0000
  N   N97       1.0  0.70300  0.19130  0.41649  1.0000
  N   N98       1.0  0.20300  0.69130  0.91649  1.0000
  N   N99       1.0  0.79700  0.80870  0.91649  1.0000
  N   N100      1.0  0.29700  0.30870  0.41649  1.0000
  N   N101      1.0  0.55870  0.95300  0.66649  1.0000
  N   N102      1.0  0.05870  0.45300  0.16649  1.0000
  N   N103      1.0  0.94130  0.04700  0.16649  1.0000
  N   N104      1.0  0.44130  0.54700  0.66649  1.0000
  N   N105      1.0  0.29700  0.80870  0.58351  1.0000
  N   N106      1.0  0.79700  0.30870  0.08351  1.0000
  N   N107      1.0  0.20300  0.19130  0.08351  1.0000
  N   N108      1.0  0.70300  0.69130  0.58351  1.0000
  N   N109      1.0  0.44130  0.04700  0.33351  1.0000
  N   N110      1.0  0.94130  0.54700  0.83351  1.0000
  N   N111      1.0  0.05870  0.95300  0.83351  1.0000
  N   N112      1.0  0.55870  0.45300  0.33351  1.0000
  C   C529      1.0  0.75250  0.18460  0.41011  1.0000
  C   C530      1.0  0.25250  0.68460  0.91011  1.0000
  C   C531      1.0  0.74750  0.81540  0.91011  1.0000
  C   C532      1.0  0.24750  0.31540  0.41011  1.0000
  C   C533      1.0  0.56540  0.00250  0.66011  1.0000
  C   C534      1.0  0.06540  0.50250  0.16011  1.0000
  C   C535      1.0  0.93460  0.99750  0.16011  1.0000
  C   C536      1.0  0.43460  0.49750  0.66011  1.0000
  C   C537      1.0  0.24750  0.81540  0.58989  1.0000
  C   C538      1.0  0.74750  0.31540  0.08989  1.0000
  C   C539      1.0  0.25250  0.18460  0.08989  1.0000
  C   C540      1.0  0.75250  0.68460  0.58989  1.0000
  C   C541      1.0  0.43460  0.99750  0.33989  1.0000
  C   C542      1.0  0.93460  0.49750  0.83989  1.0000
  C   C543      1.0  0.06540  0.00250  0.83989  1.0000
  C   C544      1.0  0.56540  0.50250  0.33989  1.0000
  C   C545      1.0  0.79830  0.16810  0.41890  1.0000
  C   C546      1.0  0.29830  0.66810  0.91890  1.0000
  C   C547      1.0  0.70170  0.83190  0.91890  1.0000
  C   C548      1.0  0.20170  0.33190  0.41890  1.0000
  C   C549      1.0  0.58190  0.04830  0.66890  1.0000
  C   C550      1.0  0.08190  0.54830  0.16890  1.0000
  C   C551      1.0  0.91810  0.95170  0.16890  1.0000
  C   C552      1.0  0.41810  0.45170  0.66890  1.0000
  C   C553      1.0  0.20170  0.83190  0.58110  1.0000
  C   C554      1.0  0.70170  0.33190  0.08110  1.0000
  C   C555      1.0  0.29830  0.16810  0.08110  1.0000
  C   C556      1.0  0.79830  0.66810  0.58110  1.0000
  C   C557      1.0  0.41810  0.95170  0.33110  1.0000
  C   C558      1.0  0.91810  0.45170  0.83110  1.0000
  C   C559      1.0  0.08190  0.04830  0.83110  1.0000
  C   C560      1.0  0.58190  0.54830  0.33110  1.0000
  C   C561      1.0  0.90990  0.08970  0.47440  1.0000
  C   C562      1.0  0.40990  0.58970  0.97440  1.0000
  C   C563      1.0  0.59010  0.91030  0.97440  1.0000
  C   C564      1.0  0.09010  0.41030  0.47440  1.0000
  C   C565      1.0  0.66030  0.15990  0.72440  1.0000
  C   C566      1.0  0.16030  0.65990  0.22440  1.0000
  C   C567      1.0  0.83970  0.84010  0.22440  1.0000
  C   C568      1.0  0.33970  0.34010  0.72440  1.0000
  C   C569      1.0  0.09010  0.91030  0.52560  1.0000
  C   C570      1.0  0.59010  0.41030  0.02560  1.0000
  C   C571      1.0  0.40990  0.08970  0.02560  1.0000
  C   C572      1.0  0.90990  0.58970  0.52560  1.0000
  C   C573      1.0  0.33970  0.84010  0.27560  1.0000
  C   C574      1.0  0.83970  0.34010  0.77560  1.0000
  C   C575      1.0  0.16030  0.15990  0.77560  1.0000
  C   C576      1.0  0.66030  0.65990  0.27560  1.0000
  C   C577      1.0  0.96380  0.07880  0.47898  1.0000
  C   C578      1.0  0.46380  0.57880  0.97898  1.0000
  C   C579      1.0  0.53620  0.92120  0.97898  1.0000
  C   C580      1.0  0.03620  0.42120  0.47898  1.0000
  C   C581      1.0  0.67120  0.21380  0.72898  1.0000
  C   C582      1.0  0.17120  0.71380  0.22898  1.0000
  C   C583      1.0  0.82880  0.78620  0.22898  1.0000
  C   C584      1.0  0.32880  0.28620  0.72898  1.0000
  C   C585      1.0  0.03620  0.92120  0.52102  1.0000
  C   C586      1.0  0.53620  0.42120  0.02102  1.0000
  C   C587      1.0  0.46380  0.07880  0.02102  1.0000
  C   C588      1.0  0.96380  0.57880  0.52102  1.0000
  C   C589      1.0  0.32880  0.78620  0.27102  1.0000
  C   C590      1.0  0.82880  0.28620  0.77102  1.0000
  C   C591      1.0  0.17120  0.21380  0.77102  1.0000
  C   C592      1.0  0.67120  0.71380  0.27102  1.0000
  C   C593      1.0  0.21680  0.76800  0.30710  1.0000
  C   C594      1.0  0.71680  0.26800  0.80710  1.0000
  C   C595      1.0  0.28320  0.23200  0.80710  1.0000
  C   C596      1.0  0.78320  0.73200  0.30710  1.0000
  C   C597      1.0  0.98200  0.46680  0.55710  1.0000
  C   C598      1.0  0.48200  0.96680  0.05710  1.0000
  C   C599      1.0  0.51800  0.53320  0.05710  1.0000
  C   C600      1.0  0.01800  0.03320  0.55710  1.0000
  C   C601      1.0  0.78320  0.23200  0.69290  1.0000
  C   C602      1.0  0.28320  0.73200  0.19290  1.0000
  C   C603      1.0  0.71680  0.76800  0.19290  1.0000
  C   C604      1.0  0.21680  0.26800  0.69290  1.0000
  C   C605      1.0  0.01800  0.53320  0.44290  1.0000
  C   C606      1.0  0.51800  0.03320  0.94290  1.0000
  C   C607      1.0  0.48200  0.46680  0.94290  1.0000
  C   C608      1.0  0.98200  0.96680  0.44290  1.0000
  H   H1        1.0  0.35670  0.32110  0.48690  1.0000
  H   H2        1.0  0.85670  0.82110  0.98690  1.0000
  H   H3        1.0  0.14330  0.67890  0.98690  1.0000
  H   H4        1.0  0.64330  0.17890  0.48690  1.0000
  H   H5        1.0  0.42890  0.60670  0.73690  1.0000
  H   H6        1.0  0.92890  0.10670  0.23690  1.0000
  H   H7        1.0  0.07110  0.39330  0.23690  1.0000
  H   H8        1.0  0.57110  0.89330  0.73690  1.0000
  H   H9        1.0  0.64330  0.67890  0.51310  1.0000
  H   H10       1.0  0.14330  0.17890  0.01310  1.0000
  H   H11       1.0  0.85670  0.32110  0.01310  1.0000
  H   H12       1.0  0.35670  0.82110  0.51310  1.0000
  H   H13       1.0  0.57110  0.39330  0.26310  1.0000
  H   H14       1.0  0.07110  0.89330  0.76310  1.0000
  H   H15       1.0  0.92890  0.60670  0.76310  1.0000
  H   H16       1.0  0.42890  0.10670  0.26310  1.0000
  H   H17       1.0  0.40040  0.40030  0.47820  1.0000
  H   H18       1.0  0.90040  0.90030  0.97820  1.0000
  H   H19       1.0  0.09960  0.59970  0.97820  1.0000
  H   H20       1.0  0.59960  0.09970  0.47820  1.0000
  H   H21       1.0  0.34970  0.65040  0.72820  1.0000
  H   H22       1.0  0.84970  0.15040  0.22820  1.0000
  H   H23       1.0  0.15030  0.34960  0.22820  1.0000
  H   H24       1.0  0.65030  0.84960  0.72820  1.0000
  H   H25       1.0  0.59960  0.59970  0.52180  1.0000
  H   H26       1.0  0.09960  0.09970  0.02180  1.0000
  H   H27       1.0  0.90040  0.40030  0.02180  1.0000
  H   H28       1.0  0.40040  0.90030  0.52180  1.0000
  H   H29       1.0  0.65030  0.34960  0.27180  1.0000
  H   H30       1.0  0.15030  0.84960  0.77180  1.0000
  H   H31       1.0  0.84970  0.65040  0.77180  1.0000
  H   H32       1.0  0.34970  0.15040  0.27180  1.0000
  H   H33       1.0  0.49940  0.42290  0.46210  1.0000
  H   H34       1.0  0.99940  0.92290  0.96210  1.0000
  H   H35       1.0  0.00060  0.57710  0.96210  1.0000
  H   H36       1.0  0.50060  0.07710  0.46210  1.0000
  H   H37       1.0  0.32710  0.74940  0.71210  1.0000
  H   H38       1.0  0.82710  0.24940  0.21210  1.0000
  H   H39       1.0  0.17290  0.25060  0.21210  1.0000
  H   H40       1.0  0.67290  0.75060  0.71210  1.0000
  H   H41       1.0  0.50060  0.57710  0.53790  1.0000
  H   H42       1.0  0.00060  0.07710  0.03790  1.0000
  H   H43       1.0  0.99940  0.42290  0.03790  1.0000
  H   H44       1.0  0.49940  0.92290  0.53790  1.0000
  H   H45       1.0  0.67290  0.25060  0.28790  1.0000
  H   H46       1.0  0.17290  0.75060  0.78790  1.0000
  H   H47       1.0  0.82710  0.74940  0.78790  1.0000
  H   H48       1.0  0.32710  0.24940  0.28790  1.0000
  H   H49       1.0  0.44140  0.43130  0.45450  1.0000
  H   H50       1.0  0.94140  0.93130  0.95450  1.0000
  H   H51       1.0  0.05860  0.56870  0.95450  1.0000
  H   H52       1.0  0.55860  0.06870  0.45450  1.0000
  H   H53       1.0  0.31870  0.69140  0.70450  1.0000
  H   H54       1.0  0.81870  0.19140  0.20450  1.0000
  H   H55       1.0  0.18130  0.30860  0.20450  1.0000
  H   H56       1.0  0.68130  0.80860  0.70450  1.0000
  H   H57       1.0  0.55860  0.56870  0.54550  1.0000
  H   H58       1.0  0.05860  0.06870  0.04550  1.0000
  H   H59       1.0  0.94140  0.43130  0.04550  1.0000
  H   H60       1.0  0.44140  0.93130  0.54550  1.0000
  H   H61       1.0  0.68130  0.30860  0.29550  1.0000
  H   H62       1.0  0.18130  0.80860  0.79550  1.0000
  H   H63       1.0  0.81870  0.69140  0.79550  1.0000
  H   H64       1.0  0.31870  0.19140  0.29550  1.0000
  H   H65       1.0  0.53350  0.38150  0.44140  1.0000
  H   H66       1.0  0.03350  0.88150  0.94140  1.0000
  H   H67       1.0  0.96650  0.61850  0.94140  1.0000
  H   H68       1.0  0.46650  0.11850  0.44140  1.0000
  H   H69       1.0  0.36850  0.78350  0.69140  1.0000
  H   H70       1.0  0.86850  0.28350  0.19140  1.0000
  H   H71       1.0  0.13150  0.21650  0.19140  1.0000
  H   H72       1.0  0.63150  0.71650  0.69140  1.0000
  H   H73       1.0  0.46650  0.61850  0.55860  1.0000
  H   H74       1.0  0.96650  0.11850  0.05860  1.0000
  H   H75       1.0  0.03350  0.38150  0.05860  1.0000
  H   H76       1.0  0.53350  0.88150  0.55860  1.0000
  H   H77       1.0  0.63150  0.21650  0.30860  1.0000
  H   H78       1.0  0.13150  0.71650  0.80860  1.0000
  H   H79       1.0  0.86850  0.78350  0.80860  1.0000
  H   H80       1.0  0.36850  0.28350  0.30860  1.0000
  H   H81       1.0  0.47500  0.36460  0.43530  1.0000
  H   H82       1.0  0.97500  0.86460  0.93530  1.0000
  H   H83       1.0  0.02500  0.63540  0.93530  1.0000
  H   H84       1.0  0.52500  0.13540  0.43530  1.0000
  H   H85       1.0  0.38540  0.72500  0.68530  1.0000
  H   H86       1.0  0.88540  0.22500  0.18530  1.0000
  H   H87       1.0  0.11460  0.27500  0.18530  1.0000
  H   H88       1.0  0.61460  0.77500  0.68530  1.0000
  H   H89       1.0  0.52500  0.63540  0.56470  1.0000
  H   H90       1.0  0.02500  0.13540  0.06470  1.0000
  H   H91       1.0  0.97500  0.36460  0.06470  1.0000
  H   H92       1.0  0.47500  0.86460  0.56470  1.0000
  H   H93       1.0  0.61460  0.27500  0.31470  1.0000
  H   H94       1.0  0.11460  0.77500  0.81470  1.0000
  H   H95       1.0  0.88540  0.72500  0.81470  1.0000
  H   H96       1.0  0.38540  0.22500  0.31470  1.0000
  H   H97       1.0  0.45340  0.40970  0.41170  1.0000
  H   H98       1.0  0.95340  0.90970  0.91170  1.0000
  H   H99       1.0  0.04660  0.59030  0.91170  1.0000
  H   H100      1.0  0.54660  0.09030  0.41170  1.0000
  H   H101      1.0  0.34030  0.70340  0.66170  1.0000
  H   H102      1.0  0.84030  0.20340  0.16170  1.0000
  H   H103      1.0  0.15970  0.29660  0.16170  1.0000
  H   H104      1.0  0.65970  0.79660  0.66170  1.0000
  H   H105      1.0  0.54660  0.59030  0.58830  1.0000
  H   H106      1.0  0.04660  0.09030  0.08830  1.0000
  H   H107      1.0  0.95340  0.40970  0.08830  1.0000
  H   H108      1.0  0.45340  0.90970  0.58830  1.0000
  H   H109      1.0  0.65970  0.29660  0.33830  1.0000
  H   H110      1.0  0.15970  0.79660  0.83830  1.0000
  H   H111      1.0  0.84030  0.70340  0.83830  1.0000
  H   H112      1.0  0.34030  0.20340  0.33830  1.0000
  H   H113      1.0  0.45530  0.48850  0.39620  1.0000
  H   H114      1.0  0.95530  0.98850  0.89620  1.0000
  H   H115      1.0  0.04470  0.51150  0.89620  1.0000
  H   H116      1.0  0.54470  0.01150  0.39620  1.0000
  H   H117      1.0  0.26150  0.70530  0.64620  1.0000
  H   H118      1.0  0.76150  0.20530  0.14620  1.0000
  H   H119      1.0  0.23850  0.29470  0.14620  1.0000
  H   H120      1.0  0.73850  0.79470  0.64620  1.0000
  H   H121      1.0  0.54470  0.51150  0.60380  1.0000
  H   H122      1.0  0.04470  0.01150  0.10380  1.0000
  H   H123      1.0  0.95530  0.48850  0.10380  1.0000
  H   H124      1.0  0.45530  0.98850  0.60380  1.0000
  H   H125      1.0  0.73850  0.29470  0.35380  1.0000
  H   H126      1.0  0.23850  0.79470  0.85380  1.0000
  H   H127      1.0  0.76150  0.70530  0.85380  1.0000
  H   H128      1.0  0.26150  0.20530  0.35380  1.0000
  H   H129      1.0  0.29300  0.80590  0.30850  1.0000
  H   H130      1.0  0.79300  0.30590  0.80850  1.0000
  H   H131      1.0  0.20700  0.19410  0.80850  1.0000
  H   H132      1.0  0.70700  0.69410  0.30850  1.0000
  H   H133      1.0  0.94410  0.54300  0.55850  1.0000
  H   H134      1.0  0.44410  0.04300  0.05850  1.0000
  H   H135      1.0  0.55590  0.45700  0.05850  1.0000
  H   H136      1.0  0.05590  0.95700  0.55850  1.0000
  H   H137      1.0  0.70700  0.19410  0.69150  1.0000
  H   H138      1.0  0.20700  0.69410  0.19150  1.0000
  H   H139      1.0  0.79300  0.80590  0.19150  1.0000
  H   H140      1.0  0.29300  0.30590  0.69150  1.0000
  H   H141      1.0  0.05590  0.45700  0.44150  1.0000
  H   H142      1.0  0.55590  0.95700  0.94150  1.0000
  H   H143      1.0  0.44410  0.54300  0.94150  1.0000
  H   H144      1.0  0.94410  0.04300  0.44150  1.0000
  H   H145      1.0  0.29790  0.74230  0.30560  1.0000
  H   H146      1.0  0.79790  0.24230  0.80560  1.0000
  H   H147      1.0  0.20210  0.25770  0.80560  1.0000
  H   H148      1.0  0.70210  0.75770  0.30560  1.0000
  H   H149      1.0  0.00770  0.54790  0.55560  1.0000
  H   H150      1.0  0.50770  0.04790  0.05560  1.0000
  H   H151      1.0  0.49230  0.45210  0.05560  1.0000
  H   H152      1.0  0.99230  0.95210  0.55560  1.0000
  H   H153      1.0  0.70210  0.25770  0.69440  1.0000
  H   H154      1.0  0.20210  0.75770  0.19440  1.0000
  H   H155      1.0  0.79790  0.74230  0.19440  1.0000
  H   H156      1.0  0.29790  0.24230  0.69440  1.0000
  H   H157      1.0  0.99230  0.45210  0.44440  1.0000
  H   H158      1.0  0.49230  0.95210  0.94440  1.0000
  H   H159      1.0  0.50770  0.54790  0.94440  1.0000
  H   H160      1.0  0.00770  0.04790  0.44440  1.0000
  H   H161      1.0  0.53380  0.57450  0.42880  1.0000
  H   H162      1.0  0.03380  0.07450  0.92880  1.0000
  H   H163      1.0  0.96620  0.42550  0.92880  1.0000
  H   H164      1.0  0.46620  0.92550  0.42880  1.0000
  H   H165      1.0  0.17550  0.78380  0.67880  1.0000
  H   H166      1.0  0.67550  0.28380  0.17880  1.0000
  H   H167      1.0  0.32450  0.21620  0.17880  1.0000
  H   H168      1.0  0.82450  0.71620  0.67880  1.0000
  H   H169      1.0  0.46620  0.42550  0.57120  1.0000
  H   H170      1.0  0.96620  0.92550  0.07120  1.0000
  H   H171      1.0  0.03380  0.57450  0.07120  1.0000
  H   H172      1.0  0.53380  0.07450  0.57120  1.0000
  H   H173      1.0  0.82450  0.21620  0.32120  1.0000
  H   H174      1.0  0.32450  0.71620  0.82120  1.0000
  H   H175      1.0  0.67550  0.78380  0.82120  1.0000
  H   H176      1.0  0.17550  0.28380  0.32120  1.0000
  H   H177      1.0  0.53420  0.49630  0.44460  1.0000
  H   H178      1.0  0.03420  0.99630  0.94460  1.0000
  H   H179      1.0  0.96580  0.50370  0.94460  1.0000
  H   H180      1.0  0.46580  0.00370  0.44460  1.0000
  H   H181      1.0  0.25370  0.78420  0.69460  1.0000
  H   H182      1.0  0.75370  0.28420  0.19460  1.0000
  H   H183      1.0  0.24630  0.21580  0.19460  1.0000
  H   H184      1.0  0.74630  0.71580  0.69460  1.0000
  H   H185      1.0  0.46580  0.50370  0.55540  1.0000
  H   H186      1.0  0.96580  0.00370  0.05540  1.0000
  H   H187      1.0  0.03420  0.49630  0.05540  1.0000
  H   H188      1.0  0.53420  0.99630  0.55540  1.0000
  H   H189      1.0  0.74630  0.21580  0.30540  1.0000
  H   H190      1.0  0.24630  0.71580  0.80540  1.0000
  H   H191      1.0  0.75370  0.78420  0.80540  1.0000
  H   H192      1.0  0.25370  0.28420  0.30540  1.0000
  H   H193      1.0  0.49890  0.29760  0.45090  1.0000
  H   H194      1.0  0.99890  0.79760  0.95090  1.0000
  H   H195      1.0  0.00110  0.70240  0.95090  1.0000
  H   H196      1.0  0.50110  0.20240  0.45090  1.0000
  H   H197      1.0  0.45240  0.74890  0.70090  1.0000
  H   H198      1.0  0.95240  0.24890  0.20090  1.0000
  H   H199      1.0  0.04760  0.25110  0.20090  1.0000
  H   H200      1.0  0.54760  0.75110  0.70090  1.0000
  H   H201      1.0  0.50110  0.70240  0.54910  1.0000
  H   H202      1.0  0.00110  0.20240  0.04910  1.0000
  H   H203      1.0  0.99890  0.29760  0.04910  1.0000
  H   H204      1.0  0.49890  0.79760  0.54910  1.0000
  H   H205      1.0  0.54760  0.25110  0.29910  1.0000
  H   H206      1.0  0.04760  0.75110  0.79910  1.0000
  H   H207      1.0  0.95240  0.74890  0.79910  1.0000
  H   H208      1.0  0.45240  0.24890  0.29910  1.0000
  H   H209      1.0  0.45600  0.21870  0.46240  1.0000
  H   H210      1.0  0.95600  0.71870  0.96240  1.0000
  H   H211      1.0  0.04400  0.78130  0.96240  1.0000
  H   H212      1.0  0.54400  0.28130  0.46240  1.0000
  H   H213      1.0  0.53130  0.70600  0.71240  1.0000
  H   H214      1.0  0.03130  0.20600  0.21240  1.0000
  H   H215      1.0  0.96870  0.29400  0.21240  1.0000
  H   H216      1.0  0.46870  0.79400  0.71240  1.0000
  H   H217      1.0  0.54400  0.78130  0.53760  1.0000
  H   H218      1.0  0.04400  0.28130  0.03760  1.0000
  H   H219      1.0  0.95600  0.21870  0.03760  1.0000
  H   H220      1.0  0.45600  0.71870  0.53760  1.0000
  H   H221      1.0  0.46870  0.29400  0.28760  1.0000
  H   H222      1.0  0.96870  0.79400  0.78760  1.0000
  H   H223      1.0  0.03130  0.70600  0.78760  1.0000
  H   H224      1.0  0.53130  0.20600  0.28760  1.0000
  H   H225      1.0  0.36560  0.89580  0.43990  1.0000
  H   H226      1.0  0.86560  0.39580  0.93990  1.0000
  H   H227      1.0  0.13440  0.10420  0.93990  1.0000
  H   H228      1.0  0.63440  0.60420  0.43990  1.0000
  H   H229      1.0  0.85420  0.61560  0.68990  1.0000
  H   H230      1.0  0.35420  0.11560  0.18990  1.0000
  H   H231      1.0  0.64580  0.38440  0.18990  1.0000
  H   H232      1.0  0.14580  0.88440  0.68990  1.0000
  H   H233      1.0  0.63440  0.10420  0.56010  1.0000
  H   H234      1.0  0.13440  0.60420  0.06010  1.0000
  H   H235      1.0  0.86560  0.89580  0.06010  1.0000
  H   H236      1.0  0.36560  0.39580  0.56010  1.0000
  H   H237      1.0  0.14580  0.38440  0.31010  1.0000
  H   H238      1.0  0.64580  0.88440  0.81010  1.0000
  H   H239      1.0  0.35420  0.61560  0.81010  1.0000
  H   H240      1.0  0.85420  0.11560  0.31010  1.0000
  H   H241      1.0  0.38340  0.82030  0.42400  1.0000
  H   H242      1.0  0.88340  0.32030  0.92400  1.0000
  H   H243      1.0  0.11660  0.17970  0.92400  1.0000
  H   H244      1.0  0.61660  0.67970  0.42400  1.0000
  H   H245      1.0  0.92970  0.63340  0.67400  1.0000
  H   H246      1.0  0.42970  0.13340  0.17400  1.0000
  H   H247      1.0  0.57030  0.36660  0.17400  1.0000
  H   H248      1.0  0.07030  0.86660  0.67400  1.0000
  H   H249      1.0  0.61660  0.17970  0.57600  1.0000
  H   H250      1.0  0.11660  0.67970  0.07600  1.0000
  H   H251      1.0  0.88340  0.82030  0.07600  1.0000
  H   H252      1.0  0.38340  0.32030  0.57600  1.0000
  H   H253      1.0  0.07030  0.36660  0.32600  1.0000
  H   H254      1.0  0.57030  0.86660  0.82600  1.0000
  H   H255      1.0  0.42970  0.63340  0.82600  1.0000
  H   H256      1.0  0.92970  0.13340  0.32600  1.0000
  H   H257      1.0  0.30930  0.72200  0.45470  1.0000
  H   H258      1.0  0.80930  0.22200  0.95470  1.0000
  H   H259      1.0  0.19070  0.27800  0.95470  1.0000
  H   H260      1.0  0.69070  0.77800  0.45470  1.0000
  H   H261      1.0  0.02800  0.55930  0.70470  1.0000
  H   H262      1.0  0.52800  0.05930  0.20470  1.0000
  H   H263      1.0  0.47200  0.44070  0.20470  1.0000
  H   H264      1.0  0.97200  0.94070  0.70470  1.0000
  H   H265      1.0  0.69070  0.27800  0.54530  1.0000
  H   H266      1.0  0.19070  0.77800  0.04530  1.0000
  H   H267      1.0  0.80930  0.72200  0.04530  1.0000
  H   H268      1.0  0.30930  0.22200  0.54530  1.0000
  H   H269      1.0  0.97200  0.44070  0.29530  1.0000
  H   H270      1.0  0.47200  0.94070  0.79530  1.0000
  H   H271      1.0  0.52800  0.55930  0.79530  1.0000
  H   H272      1.0  0.02800  0.05930  0.29530  1.0000
  H   H273      1.0  0.29370  0.79670  0.47060  1.0000
  H   H274      1.0  0.79370  0.29670  0.97060  1.0000
  H   H275      1.0  0.20630  0.20330  0.97060  1.0000
  H   H276      1.0  0.70630  0.70330  0.47060  1.0000
  H   H277      1.0  0.95330  0.54370  0.72060  1.0000
  H   H278      1.0  0.45330  0.04370  0.22060  1.0000
  H   H279      1.0  0.54670  0.45630  0.22060  1.0000
  H   H280      1.0  0.04670  0.95630  0.72060  1.0000
  H   H281      1.0  0.70630  0.20330  0.52940  1.0000
  H   H282      1.0  0.20630  0.70330  0.02940  1.0000
  H   H283      1.0  0.79370  0.79670  0.02940  1.0000
  H   H284      1.0  0.29370  0.29670  0.52940  1.0000
  H   H285      1.0  0.04670  0.45630  0.27940  1.0000
  H   H286      1.0  0.54670  0.95630  0.77940  1.0000
  H   H287      1.0  0.45330  0.54370  0.77940  1.0000
  H   H288      1.0  0.95330  0.04370  0.27940  1.0000
  H   H289      1.0  0.33020  0.68050  0.43070  1.0000
  H   H290      1.0  0.83020  0.18050  0.93070  1.0000
  H   H291      1.0  0.16980  0.31950  0.93070  1.0000
  H   H292      1.0  0.66980  0.81950  0.43070  1.0000
  H   H293      1.0  0.06950  0.58020  0.68070  1.0000
  H   H294      1.0  0.56950  0.08020  0.18070  1.0000
  H   H295      1.0  0.43050  0.41980  0.18070  1.0000
  H   H296      1.0  0.93050  0.91980  0.68070  1.0000
  H   H297      1.0  0.66980  0.31950  0.56930  1.0000
  H   H298      1.0  0.16980  0.81950  0.06930  1.0000
  H   H299      1.0  0.83020  0.68050  0.06930  1.0000
  H   H300      1.0  0.33020  0.18050  0.56930  1.0000
  H   H301      1.0  0.93050  0.41980  0.31930  1.0000
  H   H302      1.0  0.43050  0.91980  0.81930  1.0000
  H   H303      1.0  0.56950  0.58020  0.81930  1.0000
  H   H304      1.0  0.06950  0.08020  0.31930  1.0000
  H   H305      1.0  0.38500  0.70360  0.42360  1.0000
  H   H306      1.0  0.88500  0.20360  0.92360  1.0000
  H   H307      1.0  0.11500  0.29640  0.92360  1.0000
  H   H308      1.0  0.61500  0.79640  0.42360  1.0000
  H   H309      1.0  0.04640  0.63500  0.67360  1.0000
  H   H310      1.0  0.54640  0.13500  0.17360  1.0000
  H   H311      1.0  0.45360  0.36500  0.17360  1.0000
  H   H312      1.0  0.95360  0.86500  0.67360  1.0000
  H   H313      1.0  0.61500  0.29640  0.57640  1.0000
  H   H314      1.0  0.11500  0.79640  0.07640  1.0000
  H   H315      1.0  0.88500  0.70360  0.07640  1.0000
  H   H316      1.0  0.38500  0.20360  0.57640  1.0000
  H   H317      1.0  0.95360  0.36500  0.32640  1.0000
  H   H318      1.0  0.45360  0.86500  0.82640  1.0000
  H   H319      1.0  0.54640  0.63500  0.82640  1.0000
  H   H320      1.0  0.04640  0.13500  0.32640  1.0000
  H   H321      1.0  0.32820  0.71920  0.41620  1.0000
  H   H322      1.0  0.82820  0.21920  0.91620  1.0000
  H   H323      1.0  0.17180  0.28080  0.91620  1.0000
  H   H324      1.0  0.67180  0.78080  0.41620  1.0000
  H   H325      1.0  0.03080  0.57820  0.66620  1.0000
  H   H326      1.0  0.53080  0.07820  0.16620  1.0000
  H   H327      1.0  0.46920  0.42180  0.16620  1.0000
  H   H328      1.0  0.96920  0.92180  0.66620  1.0000
  H   H329      1.0  0.67180  0.28080  0.58380  1.0000
  H   H330      1.0  0.17180  0.78080  0.08380  1.0000
  H   H331      1.0  0.82820  0.71920  0.08380  1.0000
  H   H332      1.0  0.32820  0.21920  0.58380  1.0000
  H   H333      1.0  0.96920  0.42180  0.33380  1.0000
  H   H334      1.0  0.46920  0.92180  0.83380  1.0000
  H   H335      1.0  0.53080  0.57820  0.83380  1.0000
  H   H336      1.0  0.03080  0.07820  0.33380  1.0000
  H   H337      1.0  0.18190  0.99350  0.56840  1.0000
  H   H338      1.0  0.68190  0.49350  0.06840  1.0000
  H   H339      1.0  0.31810  0.00650  0.06840  1.0000
  H   H340      1.0  0.81810  0.50650  0.56840  1.0000
  H   H341      1.0  0.75650  0.43190  0.81840  1.0000
  H   H342      1.0  0.25650  0.93190  0.31840  1.0000
  H   H343      1.0  0.74350  0.56810  0.31840  1.0000
  H   H344      1.0  0.24350  0.06810  0.81840  1.0000
  H   H345      1.0  0.81810  0.00650  0.43160  1.0000
  H   H346      1.0  0.31810  0.50650  0.93160  1.0000
  H   H347      1.0  0.68190  0.99350  0.93160  1.0000
  H   H348      1.0  0.18190  0.49350  0.43160  1.0000
  H   H349      1.0  0.24350  0.56810  0.18160  1.0000
  H   H350      1.0  0.74350  0.06810  0.68160  1.0000
  H   H351      1.0  0.25650  0.43190  0.68160  1.0000
  H   H352      1.0  0.75650  0.93190  0.18160  1.0000
  H   H353      1.0  0.18040  0.97310  0.59500  1.0000
  H   H354      1.0  0.68040  0.47310  0.09500  1.0000
  H   H355      1.0  0.31960  0.02690  0.09500  1.0000
  H   H356      1.0  0.81960  0.52690  0.59500  1.0000
  H   H357      1.0  0.77690  0.43040  0.84500  1.0000
  H   H358      1.0  0.27690  0.93040  0.34500  1.0000
  H   H359      1.0  0.72310  0.56960  0.34500  1.0000
  H   H360      1.0  0.22310  0.06960  0.84500  1.0000
  H   H361      1.0  0.81960  0.02690  0.40500  1.0000
  H   H362      1.0  0.31960  0.52690  0.90500  1.0000
  H   H363      1.0  0.68040  0.97310  0.90500  1.0000
  H   H364      1.0  0.18040  0.47310  0.40500  1.0000
  H   H365      1.0  0.22310  0.56960  0.15500  1.0000
  H   H366      1.0  0.72310  0.06960  0.65500  1.0000
  H   H367      1.0  0.27690  0.43040  0.65500  1.0000
  H   H368      1.0  0.77690  0.93040  0.15500  1.0000
  H   H369      1.0  0.34380  0.00180  0.59650  1.0000
  H   H370      1.0  0.84380  0.50180  0.09650  1.0000
  H   H371      1.0  0.15620  0.99820  0.09650  1.0000
  H   H372      1.0  0.65620  0.49820  0.59650  1.0000
  H   H373      1.0  0.74820  0.59380  0.84650  1.0000
  H   H374      1.0  0.24820  0.09380  0.34650  1.0000
  H   H375      1.0  0.75180  0.40620  0.34650  1.0000
  H   H376      1.0  0.25180  0.90620  0.84650  1.0000
  H   H377      1.0  0.65620  0.99820  0.40350  1.0000
  H   H378      1.0  0.15620  0.49820  0.90350  1.0000
  H   H379      1.0  0.84380  0.00180  0.90350  1.0000
  H   H380      1.0  0.34380  0.50180  0.40350  1.0000
  H   H381      1.0  0.25180  0.40620  0.15350  1.0000
  H   H382      1.0  0.75180  0.90620  0.65350  1.0000
  H   H383      1.0  0.24820  0.59380  0.65350  1.0000
  H   H384      1.0  0.74820  0.09380  0.15350  1.0000
  H   H385      1.0  0.33920  0.02070  0.56900  1.0000
  H   H386      1.0  0.83920  0.52070  0.06900  1.0000
  H   H387      1.0  0.16080  0.97930  0.06900  1.0000
  H   H388      1.0  0.66080  0.47930  0.56900  1.0000
  H   H389      1.0  0.72930  0.58920  0.81900  1.0000
  H   H390      1.0  0.22930  0.08920  0.31900  1.0000
  H   H391      1.0  0.77070  0.41080  0.31900  1.0000
  H   H392      1.0  0.27070  0.91080  0.81900  1.0000
  H   H393      1.0  0.66080  0.97930  0.43100  1.0000
  H   H394      1.0  0.16080  0.47930  0.93100  1.0000
  H   H395      1.0  0.83920  0.02070  0.93100  1.0000
  H   H396      1.0  0.33920  0.52070  0.43100  1.0000
  H   H397      1.0  0.27070  0.41080  0.18100  1.0000
  H   H398      1.0  0.77070  0.91080  0.68100  1.0000
  H   H399      1.0  0.22930  0.58920  0.68100  1.0000
  H   H400      1.0  0.72930  0.08920  0.18100  1.0000
  H   H401      1.0  0.29860  0.97490  0.61960  1.0000
  H   H402      1.0  0.79860  0.47490  0.11960  1.0000
  H   H403      1.0  0.20140  0.02510  0.11960  1.0000
  H   H404      1.0  0.70140  0.52510  0.61960  1.0000
  H   H405      1.0  0.77510  0.54860  0.86960  1.0000
  H   H406      1.0  0.27510  0.04860  0.36960  1.0000
  H   H407      1.0  0.72490  0.45140  0.36960  1.0000
  H   H408      1.0  0.22490  0.95140  0.86960  1.0000
  H   H409      1.0  0.70140  0.02510  0.38040  1.0000
  H   H410      1.0  0.20140  0.52510  0.88040  1.0000
  H   H411      1.0  0.79860  0.97490  0.88040  1.0000
  H   H412      1.0  0.29860  0.47490  0.38040  1.0000
  H   H413      1.0  0.22490  0.45140  0.13040  1.0000
  H   H414      1.0  0.72490  0.95140  0.63040  1.0000
  H   H415      1.0  0.27510  0.54860  0.63040  1.0000
  H   H416      1.0  0.77510  0.04860  0.13040  1.0000
  H   H417      1.0  0.23800  0.99670  0.62110  1.0000
  H   H418      1.0  0.73800  0.49670  0.12110  1.0000
  H   H419      1.0  0.26200  0.00330  0.12110  1.0000
  H   H420      1.0  0.76200  0.50330  0.62110  1.0000
  H   H421      1.0  0.75330  0.48800  0.87110  1.0000
  H   H422      1.0  0.25330  0.98800  0.37110  1.0000
  H   H423      1.0  0.74670  0.51200  0.37110  1.0000
  H   H424      1.0  0.24670  0.01200  0.87110  1.0000
  H   H425      1.0  0.76200  0.00330  0.37890  1.0000
  H   H426      1.0  0.26200  0.50330  0.87890  1.0000
  H   H427      1.0  0.73800  0.99670  0.87890  1.0000
  H   H428      1.0  0.23800  0.49670  0.37890  1.0000
  H   H429      1.0  0.24670  0.51200  0.12890  1.0000
  H   H430      1.0  0.74670  0.01200  0.62890  1.0000
  H   H431      1.0  0.25330  0.48800  0.62890  1.0000
  H   H432      1.0  0.75330  0.98800  0.12890  1.0000
  H   H433      1.0  0.24890  0.93440  0.61740  1.0000
  H   H434      1.0  0.74890  0.43440  0.11740  1.0000
  H   H435      1.0  0.25110  0.06560  0.11740  1.0000
  H   H436      1.0  0.75110  0.56560  0.61740  1.0000
  H   H437      1.0  0.81560  0.49890  0.86740  1.0000
  H   H438      1.0  0.31560  0.99890  0.36740  1.0000
  H   H439      1.0  0.68440  0.50110  0.36740  1.0000
  H   H440      1.0  0.18440  0.00110  0.86740  1.0000
  H   H441      1.0  0.75110  0.06560  0.38260  1.0000
  H   H442      1.0  0.25110  0.56560  0.88260  1.0000
  H   H443      1.0  0.74890  0.93440  0.88260  1.0000
  H   H444      1.0  0.24890  0.43440  0.38260  1.0000
  H   H445      1.0  0.18440  0.50110  0.13260  1.0000
  H   H446      1.0  0.68440  0.00110  0.63260  1.0000
  H   H447      1.0  0.31560  0.49890  0.63260  1.0000
  H   H448      1.0  0.81560  0.99890  0.13260  1.0000
  H   H449      1.0  0.01960  0.19460  0.47040  1.0000
  H   H450      1.0  0.51960  0.69460  0.97040  1.0000
  H   H451      1.0  0.48040  0.80540  0.97040  1.0000
  H   H452      1.0  0.98040  0.30540  0.47040  1.0000
  H   H453      1.0  0.55540  0.26960  0.72040  1.0000
  H   H454      1.0  0.05540  0.76960  0.22040  1.0000
  H   H455      1.0  0.94460  0.73040  0.22040  1.0000
  H   H456      1.0  0.44460  0.23040  0.72040  1.0000
  H   H457      1.0  0.98040  0.80540  0.52960  1.0000
  H   H458      1.0  0.48040  0.30540  0.02960  1.0000
  H   H459      1.0  0.51960  0.19460  0.02960  1.0000
  H   H460      1.0  0.01960  0.69460  0.52960  1.0000
  H   H461      1.0  0.44460  0.73040  0.27960  1.0000
  H   H462      1.0  0.94460  0.23040  0.77960  1.0000
  H   H463      1.0  0.05540  0.26960  0.77960  1.0000
  H   H464      1.0  0.55540  0.76960  0.27960  1.0000
  H   H465      1.0  0.93050  0.21570  0.46250  1.0000
  H   H466      1.0  0.43050  0.71570  0.96250  1.0000
  H   H467      1.0  0.56950  0.78430  0.96250  1.0000
  H   H468      1.0  0.06950  0.28430  0.46250  1.0000
  H   H469      1.0  0.53430  0.18050  0.71250  1.0000
  H   H470      1.0  0.03430  0.68050  0.21250  1.0000
  H   H471      1.0  0.96570  0.81950  0.21250  1.0000
  H   H472      1.0  0.46570  0.31950  0.71250  1.0000
  H   H473      1.0  0.06950  0.78430  0.53750  1.0000
  H   H474      1.0  0.56950  0.28430  0.03750  1.0000
  H   H475      1.0  0.43050  0.21570  0.03750  1.0000
  H   H476      1.0  0.93050  0.71570  0.53750  1.0000
  H   H477      1.0  0.46570  0.81950  0.28750  1.0000
  H   H478      1.0  0.96570  0.31950  0.78750  1.0000
  H   H479      1.0  0.03430  0.18050  0.78750  1.0000
  H   H480      1.0  0.53430  0.68050  0.28750  1.0000
  H   H481      1.0  0.81270  0.12990  0.46650  1.0000
  H   H482      1.0  0.31270  0.62990  0.96650  1.0000
  H   H483      1.0  0.68730  0.87010  0.96650  1.0000
  H   H484      1.0  0.18730  0.37010  0.46650  1.0000
  H   H485      1.0  0.62010  0.06270  0.71650  1.0000
  H   H486      1.0  0.12010  0.56270  0.21650  1.0000
  H   H487      1.0  0.87990  0.93730  0.21650  1.0000
  H   H488      1.0  0.37990  0.43730  0.71650  1.0000
  H   H489      1.0  0.18730  0.87010  0.53350  1.0000
  H   H490      1.0  0.68730  0.37010  0.03350  1.0000
  H   H491      1.0  0.31270  0.12990  0.03350  1.0000
  H   H492      1.0  0.81270  0.62990  0.53350  1.0000
  H   H493      1.0  0.37990  0.93730  0.28350  1.0000
  H   H494      1.0  0.87990  0.43730  0.78350  1.0000
  H   H495      1.0  0.12010  0.06270  0.78350  1.0000
  H   H496      1.0  0.62010  0.56270  0.28350  1.0000
  H   H497      1.0  0.83060  0.19050  0.46280  1.0000
  H   H498      1.0  0.33060  0.69050  0.96280  1.0000
  H   H499      1.0  0.66940  0.80950  0.96280  1.0000
  H   H500      1.0  0.16940  0.30950  0.46280  1.0000
  H   H501      1.0  0.55950  0.08060  0.71280  1.0000
  H   H502      1.0  0.05950  0.58060  0.21280  1.0000
  H   H503      1.0  0.94050  0.91940  0.21280  1.0000
  H   H504      1.0  0.44050  0.41940  0.71280  1.0000
  H   H505      1.0  0.16940  0.80950  0.53720  1.0000
  H   H506      1.0  0.66940  0.30950  0.03720  1.0000
  H   H507      1.0  0.33060  0.19050  0.03720  1.0000
  H   H508      1.0  0.83060  0.69050  0.53720  1.0000
  H   H509      1.0  0.44050  0.91940  0.28720  1.0000
  H   H510      1.0  0.94050  0.41940  0.78720  1.0000
  H   H511      1.0  0.05950  0.08060  0.78720  1.0000
  H   H512      1.0  0.55950  0.58060  0.28720  1.0000
  H   H513      1.0  0.84480  0.09900  0.44350  1.0000
  H   H514      1.0  0.34480  0.59900  0.94350  1.0000
  H   H515      1.0  0.65520  0.90100  0.94350  1.0000
  H   H516      1.0  0.15520  0.40100  0.44350  1.0000
  H   H517      1.0  0.65100  0.09480  0.69350  1.0000
  H   H518      1.0  0.15100  0.59480  0.19350  1.0000
  H   H519      1.0  0.84900  0.90520  0.19350  1.0000
  H   H520      1.0  0.34900  0.40520  0.69350  1.0000
  H   H521      1.0  0.15520  0.90100  0.55650  1.0000
  H   H522      1.0  0.65520  0.40100  0.05650  1.0000
  H   H523      1.0  0.34480  0.09900  0.05650  1.0000
  H   H524      1.0  0.84480  0.59900  0.55650  1.0000
  H   H525      1.0  0.34900  0.90520  0.30650  1.0000
  H   H526      1.0  0.84900  0.40520  0.80650  1.0000
  H   H527      1.0  0.15100  0.09480  0.80650  1.0000
  H   H528      1.0  0.65100  0.59480  0.30650  1.0000
  H   H529      1.0  0.87390  0.15540  0.44010  1.0000
  H   H530      1.0  0.37390  0.65540  0.94010  1.0000
  H   H531      1.0  0.62610  0.84460  0.94010  1.0000
  H   H532      1.0  0.12610  0.34460  0.44010  1.0000
  H   H533      1.0  0.59460  0.12390  0.69010  1.0000
  H   H534      1.0  0.09460  0.62390  0.19010  1.0000
  H   H535      1.0  0.90540  0.87610  0.19010  1.0000
  H   H536      1.0  0.40540  0.37610  0.69010  1.0000
  H   H537      1.0  0.12610  0.84460  0.55990  1.0000
  H   H538      1.0  0.62610  0.34460  0.05990  1.0000
  H   H539      1.0  0.37390  0.15540  0.05990  1.0000
  H   H540      1.0  0.87390  0.65540  0.55990  1.0000
  H   H541      1.0  0.40540  0.87610  0.30990  1.0000
  H   H542      1.0  0.90540  0.37610  0.80990  1.0000
  H   H543      1.0  0.09460  0.12390  0.80990  1.0000
  H   H544      1.0  0.59460  0.62390  0.30990  1.0000
  H   H545      1.0  0.73580  0.15970  0.45230  1.0000
  H   H546      1.0  0.23580  0.65970  0.95230  1.0000
  H   H547      1.0  0.76420  0.84030  0.95230  1.0000
  H   H548      1.0  0.26420  0.34030  0.45230  1.0000
  H   H549      1.0  0.59030  0.98580  0.70230  1.0000
  H   H550      1.0  0.09030  0.48580  0.20230  1.0000
  H   H551      1.0  0.90970  0.01420  0.20230  1.0000
  H   H552      1.0  0.40970  0.51420  0.70230  1.0000
  H   H553      1.0  0.26420  0.84030  0.54770  1.0000
  H   H554      1.0  0.76420  0.34030  0.04770  1.0000
  H   H555      1.0  0.23580  0.15970  0.04770  1.0000
  H   H556      1.0  0.73580  0.65970  0.54770  1.0000
  H   H557      1.0  0.40970  0.01420  0.29770  1.0000
  H   H558      1.0  0.90970  0.51420  0.79770  1.0000
  H   H559      1.0  0.09030  0.98580  0.79770  1.0000
  H   H560      1.0  0.59030  0.48580  0.29770  1.0000
  H   H561      1.0  0.66240  0.18990  0.43720  1.0000
  H   H562      1.0  0.16240  0.68990  0.93720  1.0000
  H   H563      1.0  0.83760  0.81010  0.93720  1.0000
  H   H564      1.0  0.33760  0.31010  0.43720  1.0000
  H   H565      1.0  0.56010  0.91240  0.68720  1.0000
  H   H566      1.0  0.06010  0.41240  0.18720  1.0000
  H   H567      1.0  0.93990  0.08760  0.18720  1.0000
  H   H568      1.0  0.43990  0.58760  0.68720  1.0000
  H   H569      1.0  0.33760  0.81010  0.56280  1.0000
  H   H570      1.0  0.83760  0.31010  0.06280  1.0000
  H   H571      1.0  0.16240  0.18990  0.06280  1.0000
  H   H572      1.0  0.66240  0.68990  0.56280  1.0000
  H   H573      1.0  0.43990  0.08760  0.31280  1.0000
  H   H574      1.0  0.93990  0.58760  0.81280  1.0000
  H   H575      1.0  0.06010  0.91240  0.81280  1.0000
  H   H576      1.0  0.56010  0.41240  0.31280  1.0000
  H   H577      1.0  0.75700  0.19130  0.39930  1.0000
  H   H578      1.0  0.25700  0.69130  0.89930  1.0000
  H   H579      1.0  0.74300  0.80870  0.89930  1.0000
  H   H580      1.0  0.24300  0.30870  0.39930  1.0000
  H   H581      1.0  0.55870  0.00700  0.64930  1.0000
  H   H582      1.0  0.05870  0.50700  0.14930  1.0000
  H   H583      1.0  0.94130  0.99300  0.14930  1.0000
  H   H584      1.0  0.44130  0.49300  0.64930  1.0000
  H   H585      1.0  0.24300  0.80870  0.60070  1.0000
  H   H586      1.0  0.74300  0.30870  0.10070  1.0000
  H   H587      1.0  0.25700  0.19130  0.10070  1.0000
  H   H588      1.0  0.75700  0.69130  0.60070  1.0000
  H   H589      1.0  0.44130  0.99300  0.35070  1.0000
  H   H590      1.0  0.94130  0.49300  0.85070  1.0000
  H   H591      1.0  0.05870  0.00700  0.85070  1.0000
  H   H592      1.0  0.55870  0.50700  0.35070  1.0000
  H   H593      1.0  0.83380  0.16460  0.41410  1.0000
  H   H594      1.0  0.33380  0.66460  0.91410  1.0000
  H   H595      1.0  0.66620  0.83540  0.91410  1.0000
  H   H596      1.0  0.16620  0.33540  0.41410  1.0000
  H   H597      1.0  0.58540  0.08380  0.66410  1.0000
  H   H598      1.0  0.08540  0.58380  0.16410  1.0000
  H   H599      1.0  0.91460  0.91620  0.16410  1.0000
  H   H600      1.0  0.41460  0.41620  0.66410  1.0000
  H   H601      1.0  0.16620  0.83540  0.58590  1.0000
  H   H602      1.0  0.66620  0.33540  0.08590  1.0000
  H   H603      1.0  0.33380  0.16460  0.08590  1.0000
  H   H604      1.0  0.83380  0.66460  0.58590  1.0000
  H   H605      1.0  0.41460  0.91620  0.33590  1.0000
  H   H606      1.0  0.91460  0.41620  0.83590  1.0000
  H   H607      1.0  0.08540  0.08380  0.83590  1.0000
  H   H608      1.0  0.58540  0.58380  0.33590  1.0000
  H   H609      1.0  0.88200  0.06190  0.47560  1.0000
  H   H610      1.0  0.38200  0.56190  0.97560  1.0000
  H   H611      1.0  0.61800  0.93810  0.97560  1.0000
  H   H612      1.0  0.11800  0.43810  0.47560  1.0000
  H   H613      1.0  0.68810  0.13200  0.72560  1.0000
  H   H614      1.0  0.18810  0.63200  0.22560  1.0000
  H   H615      1.0  0.81190  0.86800  0.22560  1.0000
  H   H616      1.0  0.31190  0.36800  0.72560  1.0000
  H   H617      1.0  0.11800  0.93810  0.52440  1.0000
  H   H618      1.0  0.61800  0.43810  0.02440  1.0000
  H   H619      1.0  0.38200  0.06190  0.02440  1.0000
  H   H620      1.0  0.88200  0.56190  0.52440  1.0000
  H   H621      1.0  0.31190  0.86800  0.27440  1.0000
  H   H622      1.0  0.81190  0.36800  0.77440  1.0000
  H   H623      1.0  0.18810  0.13200  0.77440  1.0000
  H   H624      1.0  0.68810  0.63200  0.27440  1.0000
  H   H625      1.0  0.97250  0.04340  0.48330  1.0000
  H   H626      1.0  0.47250  0.54340  0.98330  1.0000
  H   H627      1.0  0.52750  0.95660  0.98330  1.0000
  H   H628      1.0  0.02750  0.45660  0.48330  1.0000
  H   H629      1.0  0.70660  0.22250  0.73330  1.0000
  H   H630      1.0  0.20660  0.72250  0.23330  1.0000
  H   H631      1.0  0.79340  0.77750  0.23330  1.0000
  H   H632      1.0  0.29340  0.27750  0.73330  1.0000
  H   H633      1.0  0.02750  0.95660  0.51670  1.0000
  H   H634      1.0  0.52750  0.45660  0.01670  1.0000
  H   H635      1.0  0.47250  0.04340  0.01670  1.0000
  H   H636      1.0  0.97250  0.54340  0.51670  1.0000
  H   H637      1.0  0.29340  0.77750  0.26670  1.0000
  H   H638      1.0  0.79340  0.27750  0.76670  1.0000
  H   H639      1.0  0.20660  0.22250  0.76670  1.0000
  H   H640      1.0  0.70660  0.72250  0.26670  1.0000
  H   H641      1.0  0.21260  0.77390  0.29620  1.0000
  H   H642      1.0  0.71260  0.27390  0.79620  1.0000
  H   H643      1.0  0.28740  0.22610  0.79620  1.0000
  H   H644      1.0  0.78740  0.72610  0.29620  1.0000
  H   H645      1.0  0.97610  0.46260  0.54620  1.0000
  H   H646      1.0  0.47610  0.96260  0.04620  1.0000
  H   H647      1.0  0.52390  0.53740  0.04620  1.0000
  H   H648      1.0  0.02390  0.03740  0.54620  1.0000
  H   H649      1.0  0.78740  0.22610  0.70380  1.0000
  H   H650      1.0  0.28740  0.72610  0.20380  1.0000
  H   H651      1.0  0.71260  0.77390  0.20380  1.0000
  H   H652      1.0  0.21260  0.27390  0.70380  1.0000
  H   H653      1.0  0.02390  0.53740  0.45380  1.0000
  H   H654      1.0  0.52390  0.03740  0.95380  1.0000
  H   H655      1.0  0.47610  0.46260  0.95380  1.0000
  H   H656      1.0  0.97610  0.96260  0.45380  1.0000
  H   H657      1.0  0.19750  0.79610  0.31260  1.0000
  H   H658      1.0  0.69750  0.29610  0.81260  1.0000
  H   H659      1.0  0.30250  0.20390  0.81260  1.0000
  H   H660      1.0  0.80250  0.70390  0.31260  1.0000
  H   H661      1.0  0.95390  0.44750  0.56260  1.0000
  H   H662      1.0  0.45390  0.94750  0.06260  1.0000
  H   H663      1.0  0.54610  0.55250  0.06260  1.0000
  H   H664      1.0  0.04610  0.05250  0.56260  1.0000
  H   H665      1.0  0.80250  0.20390  0.68740  1.0000
  H   H666      1.0  0.30250  0.70390  0.18740  1.0000
  H   H667      1.0  0.69750  0.79610  0.18740  1.0000
  H   H668      1.0  0.19750  0.29610  0.68740  1.0000
  H   H669      1.0  0.04610  0.55250  0.43740  1.0000
  H   H670      1.0  0.54610  0.05250  0.93740  1.0000
  H   H671      1.0  0.45390  0.44750  0.93740  1.0000
  H   H672      1.0  0.95390  0.94750  0.43740  1.0000
  H   H673      1.0  0.20240  0.73250  0.30970  1.0000
  H   H674      1.0  0.70240  0.23250  0.80970  1.0000
  H   H675      1.0  0.29760  0.26750  0.80970  1.0000
  H   H676      1.0  0.79760  0.76750  0.30970  1.0000
  H   H677      1.0  0.01750  0.45240  0.55970  1.0000
  H   H678      1.0  0.51750  0.95240  0.05970  1.0000
  H   H679      1.0  0.48250  0.54760  0.05970  1.0000
  H   H680      1.0  0.98250  0.04760  0.55970  1.0000
  H   H681      1.0  0.79760  0.26750  0.69030  1.0000
  H   H682      1.0  0.29760  0.76750  0.19030  1.0000
  H   H683      1.0  0.70240  0.73250  0.19030  1.0000
  H   H684      1.0  0.20240  0.23250  0.69030  1.0000
  H   H685      1.0  0.98250  0.54760  0.44030  1.0000
  H   H686      1.0  0.48250  0.04760  0.94030  1.0000
  H   H687      1.0  0.51750  0.45240  0.94030  1.0000
  H   H688      1.0  0.01750  0.95240  0.44030  1.0000
  H   H689      1.0  0.26500  0.79030  0.33290  1.0000
  H   H690      1.0  0.76500  0.29030  0.83290  1.0000
  H   H691      1.0  0.23500  0.20970  0.83290  1.0000
  H   H692      1.0  0.73500  0.70970  0.33290  1.0000
  H   H693      1.0  0.95970  0.51500  0.58290  1.0000
  H   H694      1.0  0.45970  0.01500  0.08290  1.0000
  H   H695      1.0  0.54030  0.48500  0.08290  1.0000
  H   H696      1.0  0.04030  0.98500  0.58290  1.0000
  H   H697      1.0  0.73500  0.20970  0.66710  1.0000
  H   H698      1.0  0.23500  0.70970  0.16710  1.0000
  H   H699      1.0  0.76500  0.79030  0.16710  1.0000
  H   H700      1.0  0.26500  0.29030  0.66710  1.0000
  H   H701      1.0  0.04030  0.48500  0.41710  1.0000
  H   H702      1.0  0.54030  0.98500  0.91710  1.0000
  H   H703      1.0  0.45970  0.51500  0.91710  1.0000
  H   H704      1.0  0.95970  0.01500  0.41710  1.0000
  H   H705      1.0  0.26830  0.72650  0.33010  1.0000
  H   H706      1.0  0.76830  0.22650  0.83010  1.0000
  H   H707      1.0  0.23170  0.27350  0.83010  1.0000
  H   H708      1.0  0.73170  0.77350  0.33010  1.0000
  H   H709      1.0  0.02350  0.51830  0.58010  1.0000
  H   H710      1.0  0.52350  0.01830  0.08010  1.0000
  H   H711      1.0  0.47650  0.48170  0.08010  1.0000
  H   H712      1.0  0.97650  0.98170  0.58010  1.0000
  H   H713      1.0  0.73170  0.27350  0.66990  1.0000
  H   H714      1.0  0.23170  0.77350  0.16990  1.0000
  H   H715      1.0  0.76830  0.72650  0.16990  1.0000
  H   H716      1.0  0.26830  0.22650  0.66990  1.0000
  H   H717      1.0  0.97650  0.48170  0.41990  1.0000
  H   H718      1.0  0.47650  0.98170  0.91990  1.0000
  H   H719      1.0  0.52350  0.51830  0.91990  1.0000
  H   H720      1.0  0.02350  0.01830  0.41990  1.0000
