data_image0
_chemical_formula_structural       C4H4C8H8O24Mg4
_chemical_formula_sum              "C12 H12 O24 Mg4"
_cell_length_a       8.709
_cell_length_b       11.587
_cell_length_c       8.28
_cell_angle_alpha    90
_cell_angle_beta     90
_cell_angle_gamma    90

_space_group_name_H-M_alt    "P 1"
_space_group_IT_number       1

loop_
  _space_group_symop_operation_xyz
  'x, y, z'

loop_
  _atom_site_type_symbol
  _atom_site_label
  _atom_site_symmetry_multiplicity
  _atom_site_fract_x
  _atom_site_fract_y
  _atom_site_fract_z
  _atom_site_occupancy
  C   C1        1.0  0.25000  0.50000  0.18840  1.0000
  C   C2        1.0  0.25000  0.00000  0.31160  1.0000
  C   C3        1.0  0.75000  0.50000  0.81160  1.0000
  C   C4        1.0  0.75000  0.00000  0.68840  1.0000
  H   H1        1.0  0.25000  0.50000  0.30310  1.0000
  H   H2        1.0  0.25000  0.00000  0.19690  1.0000
  H   H3        1.0  0.75000  0.50000  0.69690  1.0000
  H   H4        1.0  0.75000  0.00000  0.80310  1.0000
  C   C5        1.0  0.97029  0.21972  0.02571  1.0000
  C   C6        1.0  0.52971  0.78028  0.02571  1.0000
  C   C7        1.0  0.97029  0.28028  0.47429  1.0000
  C   C8        1.0  0.52971  0.71972  0.47429  1.0000
  C   C9        1.0  0.02971  0.78028  0.97429  1.0000
  C   C10       1.0  0.47029  0.21972  0.97429  1.0000
  C   C11       1.0  0.02971  0.71972  0.52571  1.0000
  C   C12       1.0  0.47029  0.28028  0.52571  1.0000
  H   H5        1.0  0.91800  0.28040  0.08000  1.0000
  H   H6        1.0  0.58200  0.71960  0.08000  1.0000
  H   H7        1.0  0.91800  0.21960  0.42000  1.0000
  H   H8        1.0  0.58200  0.78040  0.42000  1.0000
  H   H9        1.0  0.08200  0.71960  0.92000  1.0000
  H   H10       1.0  0.41800  0.28040  0.92000  1.0000
  H   H11       1.0  0.08200  0.78040  0.58000  1.0000
  H   H12       1.0  0.41800  0.21960  0.58000  1.0000
  O   O1        1.0  0.24059  0.40404  0.11873  1.0000
  O   O2        1.0  0.25941  0.59596  0.11873  1.0000
  O   O3        1.0  0.24059  0.09596  0.38127  1.0000
  O   O4        1.0  0.25941  0.90404  0.38127  1.0000
  O   O5        1.0  0.75941  0.59596  0.88127  1.0000
  O   O6        1.0  0.74059  0.40404  0.88127  1.0000
  O   O7        1.0  0.75941  0.90404  0.61873  1.0000
  O   O8        1.0  0.74059  0.09596  0.61873  1.0000
  O   O9        1.0  0.08746  0.17983  0.09078  1.0000
  O   O10       1.0  0.41254  0.82017  0.09078  1.0000
  O   O11       1.0  0.08746  0.32017  0.40922  1.0000
  O   O12       1.0  0.41254  0.67983  0.40922  1.0000
  O   O13       1.0  0.91254  0.82017  0.90922  1.0000
  O   O14       1.0  0.58746  0.17983  0.90922  1.0000
  O   O15       1.0  0.91254  0.67983  0.59078  1.0000
  O   O16       1.0  0.58746  0.32017  0.59078  1.0000
  O   O17       1.0  0.91591  0.18578  0.89362  1.0000
  O   O18       1.0  0.58409  0.81422  0.89362  1.0000
  O   O19       1.0  0.91591  0.31422  0.60638  1.0000
  O   O20       1.0  0.58409  0.68578  0.60638  1.0000
  O   O21       1.0  0.08409  0.81422  0.10638  1.0000
  O   O22       1.0  0.41591  0.18578  0.10638  1.0000
  O   O23       1.0  0.08409  0.68578  0.39362  1.0000
  O   O24       1.0  0.41591  0.31422  0.39362  1.0000
  Mg  Mg1       1.0  0.24103  0.25000  0.25000  1.0000
  Mg  Mg2       1.0  0.25897  0.75000  0.25000  1.0000
  Mg  Mg3       1.0  0.75897  0.75000  0.75000  1.0000
  Mg  Mg4       1.0  0.74103  0.25000  0.75000  1.0000
