data_image0
_chemical_formula_structural       In4O32C16H16C16H8C8H8C16H8C8H8C8H16C8
_chemical_formula_sum              "In4 O32 C80 H64"
_cell_length_a       21.372
_cell_length_b       7.8278
_cell_length_c       16.441
_cell_angle_alpha    90
_cell_angle_beta     126.443
_cell_angle_gamma    90

_space_group_name_H-M_alt    "P 1"
_space_group_IT_number       1

loop_
  _space_group_symop_operation_xyz
  'x, y, z'

loop_
  _atom_site_type_symbol
  _atom_site_label
  _atom_site_symmetry_multiplicity
  _atom_site_fract_x
  _atom_site_fract_y
  _atom_site_fract_z
  _atom_site_occupancy
  In  In1       1.0  0.00000  0.67476  0.75000  1.0000
  In  In2       1.0  0.50000  0.17476  0.75000  1.0000
  In  In3       1.0  0.00000  0.32524  0.25000  1.0000
  In  In4       1.0  0.50000  0.82524  0.25000  1.0000
  O   O1        1.0  0.02298  0.47440  0.66838  1.0000
  O   O2        1.0  0.97702  0.47440  0.83162  1.0000
  O   O3        1.0  0.52298  0.97440  0.66838  1.0000
  O   O4        1.0  0.47702  0.97440  0.83162  1.0000
  O   O5        1.0  0.97702  0.52560  0.33162  1.0000
  O   O6        1.0  0.02298  0.52560  0.16838  1.0000
  O   O7        1.0  0.47702  0.02560  0.33162  1.0000
  O   O8        1.0  0.52298  0.02560  0.16838  1.0000
  O   O9        1.0  0.90332  0.53890  0.60667  1.0000
  O   O10       1.0  0.09668  0.53890  0.89333  1.0000
  O   O11       1.0  0.40332  0.03890  0.60667  1.0000
  O   O12       1.0  0.59668  0.03890  0.89333  1.0000
  O   O13       1.0  0.09668  0.46110  0.39333  1.0000
  O   O14       1.0  0.90332  0.46110  0.10667  1.0000
  O   O15       1.0  0.59668  0.96110  0.39333  1.0000
  O   O16       1.0  0.40332  0.96110  0.10667  1.0000
  O   O17       1.0  0.59876  0.67260  0.27880  1.0000
  O   O18       1.0  0.40124  0.67260  0.22120  1.0000
  O   O19       1.0  0.09876  0.17260  0.27880  1.0000
  O   O20       1.0  0.90124  0.17260  0.22120  1.0000
  O   O21       1.0  0.40124  0.32740  0.72120  1.0000
  O   O22       1.0  0.59876  0.32740  0.77880  1.0000
  O   O23       1.0  0.90124  0.82740  0.72120  1.0000
  O   O24       1.0  0.09876  0.82740  0.77880  1.0000
  O   O25       1.0  0.48991  0.62010  0.13370  1.0000
  O   O26       1.0  0.51009  0.62010  0.36630  1.0000
  O   O27       1.0  0.98991  0.12010  0.13370  1.0000
  O   O28       1.0  0.01009  0.12010  0.36630  1.0000
  O   O29       1.0  0.51009  0.37990  0.86630  1.0000
  O   O30       1.0  0.48991  0.37990  0.63370  1.0000
  O   O31       1.0  0.01009  0.87990  0.86630  1.0000
  O   O32       1.0  0.98991  0.87990  0.63370  1.0000
  C   C1        1.0  0.95159  0.45680  0.60110  1.0000
  C   C2        1.0  0.04841  0.45680  0.89890  1.0000
  C   C3        1.0  0.45159  0.95680  0.60110  1.0000
  C   C4        1.0  0.54841  0.95680  0.89890  1.0000
  C   C5        1.0  0.04841  0.54320  0.39890  1.0000
  C   C6        1.0  0.95159  0.54320  0.10110  1.0000
  C   C7        1.0  0.54841  0.04320  0.39890  1.0000
  C   C8        1.0  0.45159  0.04320  0.10110  1.0000
  C   C9        1.0  0.92360  0.33600  0.51360  1.0000
  C   C10       1.0  0.07640  0.33600  0.98640  1.0000
  C   C11       1.0  0.42360  0.83600  0.51360  1.0000
  C   C12       1.0  0.57640  0.83600  0.98640  1.0000
  C   C13       1.0  0.07640  0.66400  0.48640  1.0000
  C   C14       1.0  0.92360  0.66400  0.01360  1.0000
  C   C15       1.0  0.57640  0.16400  0.48640  1.0000
  C   C16       1.0  0.42360  0.16400  0.01360  1.0000
  H   H1        1.0  0.95610  0.35050  0.49090  1.0000
  H   H2        1.0  0.04390  0.35050  0.00910  1.0000
  H   H3        1.0  0.45610  0.85050  0.49090  1.0000
  H   H4        1.0  0.54390  0.85050  0.00910  1.0000
  H   H5        1.0  0.04390  0.64950  0.50910  1.0000
  H   H6        1.0  0.95610  0.64950  0.99090  1.0000
  H   H7        1.0  0.54390  0.14950  0.50910  1.0000
  H   H8        1.0  0.45610  0.14950  0.99090  1.0000
  H   H9        1.0  0.92990  0.21940  0.53730  1.0000
  H   H10       1.0  0.07010  0.21940  0.96270  1.0000
  H   H11       1.0  0.42990  0.71940  0.53730  1.0000
  H   H12       1.0  0.57010  0.71940  0.96270  1.0000
  H   H13       1.0  0.07010  0.78060  0.46270  1.0000
  H   H14       1.0  0.92990  0.78060  0.03730  1.0000
  H   H15       1.0  0.57010  0.28060  0.46270  1.0000
  H   H16       1.0  0.42990  0.28060  0.03730  1.0000
  C   C17       1.0  0.83974  0.36370  0.42510  1.0000
  C   C18       1.0  0.16026  0.36370  0.07490  1.0000
  C   C19       1.0  0.33974  0.86370  0.42510  1.0000
  C   C20       1.0  0.66026  0.86370  0.07490  1.0000
  C   C21       1.0  0.16026  0.63630  0.57490  1.0000
  C   C22       1.0  0.83974  0.63630  0.92510  1.0000
  C   C23       1.0  0.66026  0.13630  0.57490  1.0000
  C   C24       1.0  0.33974  0.13630  0.92510  1.0000
  C   C25       1.0  0.81930  0.46880  0.34510  1.0000
  C   C26       1.0  0.18070  0.46880  0.15490  1.0000
  C   C27       1.0  0.31930  0.96880  0.34510  1.0000
  C   C28       1.0  0.68070  0.96880  0.15490  1.0000
  C   C29       1.0  0.18070  0.53120  0.65490  1.0000
  C   C30       1.0  0.81930  0.53120  0.84510  1.0000
  C   C31       1.0  0.68070  0.03120  0.65490  1.0000
  C   C32       1.0  0.31930  0.03120  0.84510  1.0000
  H   H17       1.0  0.85800  0.52140  0.34440  1.0000
  H   H18       1.0  0.14200  0.52140  0.15560  1.0000
  H   H19       1.0  0.35800  0.02140  0.34440  1.0000
  H   H20       1.0  0.64200  0.02140  0.15560  1.0000
  H   H21       1.0  0.14200  0.47860  0.65560  1.0000
  H   H22       1.0  0.85800  0.47860  0.84440  1.0000
  H   H23       1.0  0.64200  0.97860  0.65560  1.0000
  H   H24       1.0  0.35800  0.97860  0.84440  1.0000
  C   C33       1.0  0.74200  0.49670  0.26610  1.0000
  C   C34       1.0  0.25800  0.49670  0.23390  1.0000
  C   C35       1.0  0.24200  0.99670  0.26610  1.0000
  C   C36       1.0  0.75800  0.99670  0.23390  1.0000
  C   C37       1.0  0.25800  0.50330  0.73390  1.0000
  C   C38       1.0  0.74200  0.50330  0.76610  1.0000
  C   C39       1.0  0.75800  0.00330  0.73390  1.0000
  C   C40       1.0  0.24200  0.00330  0.76610  1.0000
  H   H25       1.0  0.72980  0.56960  0.21390  1.0000
  H   H26       1.0  0.27020  0.56960  0.28610  1.0000
  H   H27       1.0  0.22980  0.06960  0.21390  1.0000
  H   H28       1.0  0.77020  0.06960  0.28610  1.0000
  H   H29       1.0  0.27020  0.43040  0.78610  1.0000
  H   H30       1.0  0.72980  0.43040  0.71390  1.0000
  H   H31       1.0  0.77020  0.93040  0.78610  1.0000
  H   H32       1.0  0.22980  0.93040  0.71390  1.0000
  C   C41       1.0  0.68261  0.41910  0.26270  1.0000
  C   C42       1.0  0.31739  0.41910  0.23730  1.0000
  C   C43       1.0  0.18261  0.91910  0.26270  1.0000
  C   C44       1.0  0.81739  0.91910  0.23730  1.0000
  C   C45       1.0  0.31739  0.58090  0.73730  1.0000
  C   C46       1.0  0.68261  0.58090  0.76270  1.0000
  C   C47       1.0  0.81739  0.08090  0.73730  1.0000
  C   C48       1.0  0.18261  0.08090  0.76270  1.0000
  C   C49       1.0  0.70290  0.31130  0.34230  1.0000
  C   C50       1.0  0.29710  0.31130  0.15770  1.0000
  C   C51       1.0  0.20290  0.81130  0.34230  1.0000
  C   C52       1.0  0.79710  0.81130  0.15770  1.0000
  C   C53       1.0  0.29710  0.68870  0.65770  1.0000
  C   C54       1.0  0.70290  0.68870  0.84230  1.0000
  C   C55       1.0  0.79710  0.18870  0.65770  1.0000
  C   C56       1.0  0.20290  0.18870  0.84230  1.0000
  H   H33       1.0  0.66410  0.25600  0.34170  1.0000
  H   H34       1.0  0.33590  0.25600  0.15830  1.0000
  H   H35       1.0  0.16410  0.75600  0.34170  1.0000
  H   H36       1.0  0.83590  0.75600  0.15830  1.0000
  H   H37       1.0  0.33590  0.74400  0.65830  1.0000
  H   H38       1.0  0.66410  0.74400  0.84170  1.0000
  H   H39       1.0  0.83590  0.24400  0.65830  1.0000
  H   H40       1.0  0.16410  0.24400  0.84170  1.0000
  C   C57       1.0  0.78020  0.28510  0.42230  1.0000
  C   C58       1.0  0.21980  0.28510  0.07770  1.0000
  C   C59       1.0  0.28020  0.78510  0.42230  1.0000
  C   C60       1.0  0.71980  0.78510  0.07770  1.0000
  C   C61       1.0  0.21980  0.71490  0.57770  1.0000
  C   C62       1.0  0.78020  0.71490  0.92230  1.0000
  C   C63       1.0  0.71980  0.21490  0.57770  1.0000
  C   C64       1.0  0.28020  0.21490  0.92230  1.0000
  H   H41       1.0  0.79250  0.21370  0.47520  1.0000
  H   H42       1.0  0.20750  0.21370  0.02480  1.0000
  H   H43       1.0  0.29250  0.71370  0.47520  1.0000
  H   H44       1.0  0.70750  0.71370  0.02480  1.0000
  H   H45       1.0  0.20750  0.78630  0.52480  1.0000
  H   H46       1.0  0.79250  0.78630  0.97520  1.0000
  H   H47       1.0  0.70750  0.28630  0.52480  1.0000
  H   H48       1.0  0.29250  0.28630  0.97520  1.0000
  C   C65       1.0  0.59840  0.45170  0.17680  1.0000
  C   C66       1.0  0.40160  0.45170  0.32320  1.0000
  C   C67       1.0  0.09840  0.95170  0.17680  1.0000
  C   C68       1.0  0.90160  0.95170  0.32320  1.0000
  C   C69       1.0  0.40160  0.54830  0.82320  1.0000
  C   C70       1.0  0.59840  0.54830  0.67680  1.0000
  C   C71       1.0  0.90160  0.04830  0.82320  1.0000
  C   C72       1.0  0.09840  0.04830  0.67680  1.0000
  H   H49       1.0  0.59510  0.48270  0.11720  1.0000
  H   H50       1.0  0.40490  0.48270  0.38280  1.0000
  H   H51       1.0  0.09510  0.98270  0.11720  1.0000
  H   H52       1.0  0.90490  0.98270  0.38280  1.0000
  H   H53       1.0  0.40490  0.51730  0.88280  1.0000
  H   H54       1.0  0.59510  0.51730  0.61720  1.0000
  H   H55       1.0  0.90490  0.01730  0.88280  1.0000
  H   H56       1.0  0.09510  0.01730  0.61720  1.0000
  H   H57       1.0  0.56960  0.34640  0.16180  1.0000
  H   H58       1.0  0.43040  0.34640  0.33820  1.0000
  H   H59       1.0  0.06960  0.84640  0.16180  1.0000
  H   H60       1.0  0.93040  0.84640  0.33820  1.0000
  H   H61       1.0  0.43040  0.65360  0.83820  1.0000
  H   H62       1.0  0.56960  0.65360  0.66180  1.0000
  H   H63       1.0  0.93040  0.15360  0.83820  1.0000
  H   H64       1.0  0.06960  0.15360  0.66180  1.0000
  C   C73       1.0  0.56000  0.58970  0.19680  1.0000
  C   C74       1.0  0.44000  0.58970  0.30320  1.0000
  C   C75       1.0  0.06000  0.08970  0.19680  1.0000
  C   C76       1.0  0.94000  0.08970  0.30320  1.0000
  C   C77       1.0  0.44000  0.41030  0.80320  1.0000
  C   C78       1.0  0.56000  0.41030  0.69680  1.0000
  C   C79       1.0  0.94000  0.91030  0.80320  1.0000
  C   C80       1.0  0.06000  0.91030  0.69680  1.0000
