data_image0
_chemical_formula_structural       Cd18C40H8C4H4C36H4C8H8C8H8C16H8C8H8C8H8C8H8C16H8C8H8N48O24H8O40
_chemical_formula_sum              "Cd18 C160 H88 N48 O64"
_cell_length_a       20.195
_cell_length_b       15.8339
_cell_length_c       16.2758
_cell_angle_alpha    90
_cell_angle_beta     90
_cell_angle_gamma    90

_space_group_name_H-M_alt    "P 1"
_space_group_IT_number       1

loop_
  _space_group_symop_operation_xyz
  'x, y, z'

loop_
  _atom_site_type_symbol
  _atom_site_label
  _atom_site_symmetry_multiplicity
  _atom_site_fract_x
  _atom_site_fract_y
  _atom_site_fract_z
  _atom_site_occupancy
  Cd  Cd1       1.0  0.09131  0.46005  0.20651  1.0000
  Cd  Cd2       1.0  0.90869  0.53995  0.20651  1.0000
  Cd  Cd3       1.0  0.40869  0.96005  0.29349  1.0000
  Cd  Cd4       1.0  0.59131  0.03995  0.29349  1.0000
  Cd  Cd5       1.0  0.90869  0.53995  0.79349  1.0000
  Cd  Cd6       1.0  0.09131  0.46005  0.79349  1.0000
  Cd  Cd7       1.0  0.59131  0.03995  0.70651  1.0000
  Cd  Cd8       1.0  0.40869  0.96005  0.70651  1.0000
  Cd  Cd9       1.0  0.19539  0.27504  0.29553  1.0000
  Cd  Cd10      1.0  0.80461  0.72496  0.29553  1.0000
  Cd  Cd11      1.0  0.30461  0.77504  0.20447  1.0000
  Cd  Cd12      1.0  0.69539  0.22496  0.20447  1.0000
  Cd  Cd13      1.0  0.80461  0.72496  0.70447  1.0000
  Cd  Cd14      1.0  0.19539  0.27504  0.70447  1.0000
  Cd  Cd15      1.0  0.69539  0.22496  0.79553  1.0000
  Cd  Cd16      1.0  0.30461  0.77504  0.79553  1.0000
  Cd  Cd17      1.0  0.00000  0.50000  0.50000  1.0000
  Cd  Cd18      1.0  0.50000  0.00000  0.00000  1.0000
  C   C1        1.0  0.04120  0.65460  0.21210  1.0000
  C   C2        1.0  0.95880  0.34540  0.21210  1.0000
  C   C3        1.0  0.45880  0.15460  0.28790  1.0000
  C   C4        1.0  0.54120  0.84540  0.28790  1.0000
  C   C5        1.0  0.95880  0.34540  0.78790  1.0000
  C   C6        1.0  0.04120  0.65460  0.78790  1.0000
  C   C7        1.0  0.54120  0.84540  0.71210  1.0000
  C   C8        1.0  0.45880  0.15460  0.71210  1.0000
  C   C9        1.0  0.11420  0.65480  0.21800  1.0000
  C   C10       1.0  0.88580  0.34520  0.21800  1.0000
  C   C11       1.0  0.38580  0.15480  0.28200  1.0000
  C   C12       1.0  0.61420  0.84520  0.28200  1.0000
  C   C13       1.0  0.88580  0.34520  0.78200  1.0000
  C   C14       1.0  0.11420  0.65480  0.78200  1.0000
  C   C15       1.0  0.61420  0.84520  0.71800  1.0000
  C   C16       1.0  0.38580  0.15480  0.71800  1.0000
  C   C17       1.0  0.15920  0.71930  0.21890  1.0000
  C   C18       1.0  0.84080  0.28070  0.21890  1.0000
  C   C19       1.0  0.34080  0.21930  0.28110  1.0000
  C   C20       1.0  0.65920  0.78070  0.28110  1.0000
  C   C21       1.0  0.84080  0.28070  0.78110  1.0000
  C   C22       1.0  0.15920  0.71930  0.78110  1.0000
  C   C23       1.0  0.65920  0.78070  0.71890  1.0000
  C   C24       1.0  0.34080  0.21930  0.71890  1.0000
  C   C25       1.0  0.15170  0.81190  0.21240  1.0000
  C   C26       1.0  0.84830  0.18810  0.21240  1.0000
  C   C27       1.0  0.34830  0.31190  0.28760  1.0000
  C   C28       1.0  0.65170  0.68810  0.28760  1.0000
  C   C29       1.0  0.84830  0.18810  0.78760  1.0000
  C   C30       1.0  0.15170  0.81190  0.78760  1.0000
  C   C31       1.0  0.65170  0.68810  0.71240  1.0000
  C   C32       1.0  0.34830  0.31190  0.71240  1.0000
  C   C33       1.0  0.21160  0.60330  0.23030  1.0000
  C   C34       1.0  0.78840  0.39670  0.23030  1.0000
  C   C35       1.0  0.28840  0.10330  0.26970  1.0000
  C   C36       1.0  0.71160  0.89670  0.26970  1.0000
  C   C37       1.0  0.78840  0.39670  0.76970  1.0000
  C   C38       1.0  0.21160  0.60330  0.76970  1.0000
  C   C39       1.0  0.71160  0.89670  0.73030  1.0000
  C   C40       1.0  0.28840  0.10330  0.73030  1.0000
  H   H1        1.0  0.24620  0.56510  0.23650  1.0000
  H   H2        1.0  0.75380  0.43490  0.23650  1.0000
  H   H3        1.0  0.25380  0.06510  0.26350  1.0000
  H   H4        1.0  0.74620  0.93490  0.26350  1.0000
  H   H5        1.0  0.75380  0.43490  0.76350  1.0000
  H   H6        1.0  0.24620  0.56510  0.76350  1.0000
  H   H7        1.0  0.74620  0.93490  0.73650  1.0000
  H   H8        1.0  0.25380  0.06510  0.73650  1.0000
  C   C41       1.0  0.08630  0.48230  0.00000  1.0000
  C   C42       1.0  0.91370  0.51770  0.00000  1.0000
  C   C43       1.0  0.41370  0.98230  0.50000  1.0000
  C   C44       1.0  0.58630  0.01770  0.50000  1.0000
  H   H9        1.0  0.06160  0.53180  0.00000  1.0000
  H   H10       1.0  0.93840  0.46820  0.00000  1.0000
  H   H11       1.0  0.43840  0.03180  0.50000  1.0000
  H   H12       1.0  0.56160  0.96820  0.50000  1.0000
  C   C45       1.0  0.13900  0.37410  0.04230  1.0000
  C   C46       1.0  0.86100  0.62590  0.04230  1.0000
  C   C47       1.0  0.36100  0.87410  0.45770  1.0000
  C   C48       1.0  0.63900  0.12590  0.45770  1.0000
  C   C49       1.0  0.86100  0.62590  0.95770  1.0000
  C   C50       1.0  0.13900  0.37410  0.95770  1.0000
  C   C51       1.0  0.63900  0.12590  0.54230  1.0000
  C   C52       1.0  0.36100  0.87410  0.54230  1.0000
  C   C53       1.0  0.16810  0.31580  0.10160  1.0000
  C   C54       1.0  0.83190  0.68420  0.10160  1.0000
  C   C55       1.0  0.33190  0.81580  0.39840  1.0000
  C   C56       1.0  0.66810  0.18420  0.39840  1.0000
  C   C57       1.0  0.83190  0.68420  0.89840  1.0000
  C   C58       1.0  0.16810  0.31580  0.89840  1.0000
  C   C59       1.0  0.66810  0.18420  0.60160  1.0000
  C   C60       1.0  0.33190  0.81580  0.60160  1.0000
  C   C61       1.0  0.11510  0.41600  0.39180  1.0000
  C   C62       1.0  0.88490  0.58400  0.39180  1.0000
  C   C63       1.0  0.38490  0.91600  0.10820  1.0000
  C   C64       1.0  0.61510  0.08400  0.10820  1.0000
  C   C65       1.0  0.88490  0.58400  0.60820  1.0000
  C   C66       1.0  0.11510  0.41600  0.60820  1.0000
  C   C67       1.0  0.61510  0.08400  0.89180  1.0000
  C   C68       1.0  0.38490  0.91600  0.89180  1.0000
  C   C69       1.0  0.14590  0.36270  0.45740  1.0000
  C   C70       1.0  0.85410  0.63730  0.45740  1.0000
  C   C71       1.0  0.35410  0.86270  0.04260  1.0000
  C   C72       1.0  0.64590  0.13730  0.04260  1.0000
  C   C73       1.0  0.85410  0.63730  0.54260  1.0000
  C   C74       1.0  0.14590  0.36270  0.54260  1.0000
  C   C75       1.0  0.64590  0.13730  0.95740  1.0000
  C   C76       1.0  0.35410  0.86270  0.95740  1.0000
  C   C77       1.0  0.20480  0.25900  0.50000  1.0000
  C   C78       1.0  0.79520  0.74100  0.50000  1.0000
  C   C79       1.0  0.29520  0.75900  0.00000  1.0000
  C   C80       1.0  0.70480  0.24100  0.00000  1.0000
  H   H13       1.0  0.23150  0.21110  0.50000  1.0000
  H   H14       1.0  0.76850  0.78890  0.50000  1.0000
  H   H15       1.0  0.26850  0.71110  0.00000  1.0000
  H   H16       1.0  0.73150  0.28890  0.00000  1.0000
  C   C81       1.0  0.10640  0.11990  0.22640  1.0000
  C   C82       1.0  0.89360  0.88010  0.22640  1.0000
  C   C83       1.0  0.39360  0.61990  0.27360  1.0000
  C   C84       1.0  0.60640  0.38010  0.27360  1.0000
  C   C85       1.0  0.89360  0.88010  0.77360  1.0000
  C   C86       1.0  0.10640  0.11990  0.77360  1.0000
  C   C87       1.0  0.60640  0.38010  0.72640  1.0000
  C   C88       1.0  0.39360  0.61990  0.72640  1.0000
  H   H17       1.0  0.13200  0.13060  0.18010  1.0000
  H   H18       1.0  0.86800  0.86940  0.18010  1.0000
  H   H19       1.0  0.36800  0.63060  0.31990  1.0000
  H   H20       1.0  0.63200  0.36940  0.31990  1.0000
  H   H21       1.0  0.86800  0.86940  0.81990  1.0000
  H   H22       1.0  0.13200  0.13060  0.81990  1.0000
  H   H23       1.0  0.63200  0.36940  0.68010  1.0000
  H   H24       1.0  0.36800  0.63060  0.68010  1.0000
  C   C89       1.0  0.06160  0.05420  0.22430  1.0000
  C   C90       1.0  0.93840  0.94580  0.22430  1.0000
  C   C91       1.0  0.43840  0.55420  0.27570  1.0000
  C   C92       1.0  0.56160  0.44580  0.27570  1.0000
  C   C93       1.0  0.93840  0.94580  0.77570  1.0000
  C   C94       1.0  0.06160  0.05420  0.77570  1.0000
  C   C95       1.0  0.56160  0.44580  0.72430  1.0000
  C   C96       1.0  0.43840  0.55420  0.72430  1.0000
  H   H25       1.0  0.05660  0.02230  0.17670  1.0000
  H   H26       1.0  0.94340  0.97770  0.17670  1.0000
  H   H27       1.0  0.44340  0.52230  0.32330  1.0000
  H   H28       1.0  0.55660  0.47770  0.32330  1.0000
  H   H29       1.0  0.94340  0.97770  0.82330  1.0000
  H   H30       1.0  0.05660  0.02230  0.82330  1.0000
  H   H31       1.0  0.55660  0.47770  0.67670  1.0000
  H   H32       1.0  0.44340  0.52230  0.67670  1.0000
  C   C97       1.0  0.02410  0.03590  0.29350  1.0000
  C   C98       1.0  0.97590  0.96410  0.29350  1.0000
  C   C99       1.0  0.47590  0.53590  0.20650  1.0000
  C   C100      1.0  0.52410  0.46410  0.20650  1.0000
  C   C101      1.0  0.97590  0.96410  0.70650  1.0000
  C   C102      1.0  0.02410  0.03590  0.70650  1.0000
  C   C103      1.0  0.52410  0.46410  0.79350  1.0000
  C   C104      1.0  0.47590  0.53590  0.79350  1.0000
  C   C105      1.0  0.03190  0.08810  0.35820  1.0000
  C   C106      1.0  0.96810  0.91190  0.35820  1.0000
  C   C107      1.0  0.46810  0.58810  0.14180  1.0000
  C   C108      1.0  0.53190  0.41190  0.14180  1.0000
  C   C109      1.0  0.96810  0.91190  0.64180  1.0000
  C   C110      1.0  0.03190  0.08810  0.64180  1.0000
  C   C111      1.0  0.53190  0.41190  0.85820  1.0000
  C   C112      1.0  0.46810  0.58810  0.85820  1.0000
  H   H33       1.0  0.00590  0.08070  0.40480  1.0000
  H   H34       1.0  0.99410  0.91930  0.40480  1.0000
  H   H35       1.0  0.49410  0.58070  0.09520  1.0000
  H   H36       1.0  0.50590  0.41930  0.09520  1.0000
  H   H37       1.0  0.99410  0.91930  0.59520  1.0000
  H   H38       1.0  0.00590  0.08070  0.59520  1.0000
  H   H39       1.0  0.50590  0.41930  0.90480  1.0000
  H   H40       1.0  0.49410  0.58070  0.90480  1.0000
  C   C113      1.0  0.07780  0.15190  0.35620  1.0000
  C   C114      1.0  0.92220  0.84810  0.35620  1.0000
  C   C115      1.0  0.42220  0.65190  0.14380  1.0000
  C   C116      1.0  0.57780  0.34810  0.14380  1.0000
  C   C117      1.0  0.92220  0.84810  0.64380  1.0000
  C   C118      1.0  0.07780  0.15190  0.64380  1.0000
  C   C119      1.0  0.57780  0.34810  0.85620  1.0000
  C   C120      1.0  0.42220  0.65190  0.85620  1.0000
  H   H41       1.0  0.08320  0.18520  0.40280  1.0000
  H   H42       1.0  0.91680  0.81480  0.40280  1.0000
  H   H43       1.0  0.41680  0.68520  0.09720  1.0000
  H   H44       1.0  0.58320  0.31480  0.09720  1.0000
  H   H45       1.0  0.91680  0.81480  0.59720  1.0000
  H   H46       1.0  0.08320  0.18520  0.59720  1.0000
  H   H47       1.0  0.58320  0.31480  0.90280  1.0000
  H   H48       1.0  0.41680  0.68520  0.90280  1.0000
  C   C121      1.0  0.05290  0.67790  0.42900  1.0000
  C   C122      1.0  0.94710  0.32210  0.42900  1.0000
  C   C123      1.0  0.44710  0.17790  0.07100  1.0000
  C   C124      1.0  0.55290  0.82210  0.07100  1.0000
  C   C125      1.0  0.94710  0.32210  0.57100  1.0000
  C   C126      1.0  0.05290  0.67790  0.57100  1.0000
  C   C127      1.0  0.55290  0.82210  0.92900  1.0000
  C   C128      1.0  0.44710  0.17790  0.92900  1.0000
  H   H49       1.0  0.03850  0.65330  0.38030  1.0000
  H   H50       1.0  0.96150  0.34670  0.38030  1.0000
  H   H51       1.0  0.46150  0.15330  0.11970  1.0000
  H   H52       1.0  0.53850  0.84670  0.11970  1.0000
  H   H53       1.0  0.96150  0.34670  0.61970  1.0000
  H   H54       1.0  0.03850  0.65330  0.61970  1.0000
  H   H55       1.0  0.53850  0.84670  0.88030  1.0000
  H   H56       1.0  0.46150  0.15330  0.88030  1.0000
  C   C129      1.0  0.08740  0.75570  0.42580  1.0000
  C   C130      1.0  0.91260  0.24430  0.42580  1.0000
  C   C131      1.0  0.41260  0.25570  0.07420  1.0000
  C   C132      1.0  0.58740  0.74430  0.07420  1.0000
  C   C133      1.0  0.91260  0.24430  0.57420  1.0000
  C   C134      1.0  0.08740  0.75570  0.57420  1.0000
  C   C135      1.0  0.58740  0.74430  0.92580  1.0000
  C   C136      1.0  0.41260  0.25570  0.92580  1.0000
  H   H57       1.0  0.09570  0.78230  0.37590  1.0000
  H   H58       1.0  0.90430  0.21770  0.37590  1.0000
  H   H59       1.0  0.40430  0.28230  0.12410  1.0000
  H   H60       1.0  0.59570  0.71770  0.12410  1.0000
  H   H61       1.0  0.90430  0.21770  0.62410  1.0000
  H   H62       1.0  0.09570  0.78230  0.62410  1.0000
  H   H63       1.0  0.59570  0.71770  0.87590  1.0000
  H   H64       1.0  0.40430  0.28230  0.87590  1.0000
  C   C137      1.0  0.10850  0.79110  0.50000  1.0000
  C   C138      1.0  0.89150  0.20890  0.50000  1.0000
  C   C139      1.0  0.39150  0.29110  0.00000  1.0000
  C   C140      1.0  0.60850  0.70890  0.00000  1.0000
  C   C141      1.0  0.14740  0.87610  0.50000  1.0000
  C   C142      1.0  0.85260  0.12390  0.50000  1.0000
  C   C143      1.0  0.35260  0.37610  0.00000  1.0000
  C   C144      1.0  0.64740  0.62390  0.00000  1.0000
  C   C145      1.0  0.16330  0.91200  0.42440  1.0000
  C   C146      1.0  0.83670  0.08800  0.42440  1.0000
  C   C147      1.0  0.33670  0.41200  0.07560  1.0000
  C   C148      1.0  0.66330  0.58800  0.07560  1.0000
  C   C149      1.0  0.83670  0.08800  0.57560  1.0000
  C   C150      1.0  0.16330  0.91200  0.57560  1.0000
  C   C151      1.0  0.66330  0.58800  0.92440  1.0000
  C   C152      1.0  0.33670  0.41200  0.92440  1.0000
  H   H65       1.0  0.15260  0.88670  0.37460  1.0000
  H   H66       1.0  0.84740  0.11330  0.37460  1.0000
  H   H67       1.0  0.34740  0.38670  0.12540  1.0000
  H   H68       1.0  0.65260  0.61330  0.12540  1.0000
  H   H69       1.0  0.84740  0.11330  0.62540  1.0000
  H   H70       1.0  0.15260  0.88670  0.62540  1.0000
  H   H71       1.0  0.65260  0.61330  0.87460  1.0000
  H   H72       1.0  0.34740  0.38670  0.87460  1.0000
  C   C153      1.0  0.19690  0.98940  0.42960  1.0000
  C   C154      1.0  0.80310  0.01060  0.42960  1.0000
  C   C155      1.0  0.30310  0.48940  0.07040  1.0000
  C   C156      1.0  0.69690  0.51060  0.07040  1.0000
  C   C157      1.0  0.80310  0.01060  0.57040  1.0000
  C   C158      1.0  0.19690  0.98940  0.57040  1.0000
  C   C159      1.0  0.69690  0.51060  0.92960  1.0000
  C   C160      1.0  0.30310  0.48940  0.92960  1.0000
  H   H73       1.0  0.20840  0.01570  0.38050  1.0000
  H   H74       1.0  0.79160  0.98430  0.38050  1.0000
  H   H75       1.0  0.29160  0.51570  0.11950  1.0000
  H   H76       1.0  0.70840  0.48430  0.11950  1.0000
  H   H77       1.0  0.79160  0.98430  0.61950  1.0000
  H   H78       1.0  0.20840  0.01570  0.61950  1.0000
  H   H79       1.0  0.70840  0.48430  0.88050  1.0000
  H   H80       1.0  0.29160  0.51570  0.88050  1.0000
  N   N1        1.0  0.14790  0.58030  0.22520  1.0000
  N   N2        1.0  0.85210  0.41970  0.22520  1.0000
  N   N3        1.0  0.35210  0.08030  0.27480  1.0000
  N   N4        1.0  0.64790  0.91970  0.27480  1.0000
  N   N5        1.0  0.85210  0.41970  0.77480  1.0000
  N   N6        1.0  0.14790  0.58030  0.77480  1.0000
  N   N7        1.0  0.64790  0.91970  0.72520  1.0000
  N   N8        1.0  0.35210  0.08030  0.72520  1.0000
  N   N9        1.0  0.22040  0.68650  0.22560  1.0000
  N   N10       1.0  0.77960  0.31350  0.22560  1.0000
  N   N11       1.0  0.27960  0.18650  0.27440  1.0000
  N   N12       1.0  0.72040  0.81350  0.27440  1.0000
  N   N13       1.0  0.77960  0.31350  0.77440  1.0000
  N   N14       1.0  0.22040  0.68650  0.77440  1.0000
  N   N15       1.0  0.72040  0.81350  0.72560  1.0000
  N   N16       1.0  0.27960  0.18650  0.72560  1.0000
  N   N17       1.0  0.10570  0.44350  0.06900  1.0000
  N   N18       1.0  0.89430  0.55650  0.06900  1.0000
  N   N19       1.0  0.39430  0.94350  0.43100  1.0000
  N   N20       1.0  0.60570  0.05650  0.43100  1.0000
  N   N21       1.0  0.89430  0.55650  0.93100  1.0000
  N   N22       1.0  0.10570  0.44350  0.93100  1.0000
  N   N23       1.0  0.60570  0.05650  0.56900  1.0000
  N   N24       1.0  0.39430  0.94350  0.56900  1.0000
  N   N25       1.0  0.18390  0.29660  0.43200  1.0000
  N   N26       1.0  0.81610  0.70340  0.43200  1.0000
  N   N27       1.0  0.31610  0.79660  0.06800  1.0000
  N   N28       1.0  0.68390  0.20340  0.06800  1.0000
  N   N29       1.0  0.81610  0.70340  0.56800  1.0000
  N   N30       1.0  0.18390  0.29660  0.56800  1.0000
  N   N31       1.0  0.68390  0.20340  0.93200  1.0000
  N   N32       1.0  0.31610  0.79660  0.93200  1.0000
  N   N33       1.0  0.11430  0.16830  0.29180  1.0000
  N   N34       1.0  0.88570  0.83170  0.29180  1.0000
  N   N35       1.0  0.38570  0.66830  0.20820  1.0000
  N   N36       1.0  0.61430  0.33170  0.20820  1.0000
  N   N37       1.0  0.88570  0.83170  0.70820  1.0000
  N   N38       1.0  0.11430  0.16830  0.70820  1.0000
  N   N39       1.0  0.61430  0.33170  0.79180  1.0000
  N   N40       1.0  0.38570  0.66830  0.79180  1.0000
  N   N41       1.0  0.04050  0.63910  0.50000  1.0000
  N   N42       1.0  0.95950  0.36090  0.50000  1.0000
  N   N43       1.0  0.45950  0.13910  0.00000  1.0000
  N   N44       1.0  0.54050  0.86090  0.00000  1.0000
  N   N45       1.0  0.21370  0.02890  0.50000  1.0000
  N   N46       1.0  0.78630  0.97110  0.50000  1.0000
  N   N47       1.0  0.28630  0.52890  0.00000  1.0000
  N   N48       1.0  0.71370  0.47110  0.00000  1.0000
  O   O1        1.0  0.01440  0.58220  0.21020  1.0000
  O   O2        1.0  0.98560  0.41780  0.21020  1.0000
  O   O3        1.0  0.48560  0.08220  0.28980  1.0000
  O   O4        1.0  0.51440  0.91780  0.28980  1.0000
  O   O5        1.0  0.98560  0.41780  0.78980  1.0000
  O   O6        1.0  0.01440  0.58220  0.78980  1.0000
  O   O7        1.0  0.51440  0.91780  0.71020  1.0000
  O   O8        1.0  0.48560  0.08220  0.71020  1.0000
  O   O9        1.0  0.01060  0.72220  0.21000  1.0000
  O   O10       1.0  0.98940  0.27780  0.21000  1.0000
  O   O11       1.0  0.48940  0.22220  0.29000  1.0000
  O   O12       1.0  0.51060  0.77780  0.29000  1.0000
  O   O13       1.0  0.98940  0.27780  0.79000  1.0000
  O   O14       1.0  0.01060  0.72220  0.79000  1.0000
  O   O15       1.0  0.51060  0.77780  0.71000  1.0000
  O   O16       1.0  0.48940  0.22220  0.71000  1.0000
  O   O17       1.0  0.09200  0.84220  0.21030  1.0000
  O   O18       1.0  0.90800  0.15780  0.21030  1.0000
  O   O19       1.0  0.40800  0.34220  0.28970  1.0000
  O   O20       1.0  0.59200  0.65780  0.28970  1.0000
  O   O21       1.0  0.90800  0.15780  0.78970  1.0000
  O   O22       1.0  0.09200  0.84220  0.78970  1.0000
  O   O23       1.0  0.59200  0.65780  0.71030  1.0000
  O   O24       1.0  0.40800  0.34220  0.71030  1.0000
  H   H81       1.0  0.06600  0.80490  0.19670  1.0000
  H   H82       1.0  0.93400  0.19510  0.19670  1.0000
  H   H83       1.0  0.43400  0.30490  0.30330  1.0000
  H   H84       1.0  0.56600  0.69510  0.30330  1.0000
  H   H85       1.0  0.93400  0.19510  0.80330  1.0000
  H   H86       1.0  0.06600  0.80490  0.80330  1.0000
  H   H87       1.0  0.56600  0.69510  0.69670  1.0000
  H   H88       1.0  0.43400  0.30490  0.69670  1.0000
  O   O25       1.0  0.20050  0.85770  0.21100  1.0000
  O   O26       1.0  0.79950  0.14230  0.21100  1.0000
  O   O27       1.0  0.29950  0.35770  0.28900  1.0000
  O   O28       1.0  0.70050  0.64230  0.28900  1.0000
  O   O29       1.0  0.79950  0.14230  0.78900  1.0000
  O   O30       1.0  0.20050  0.85770  0.78900  1.0000
  O   O31       1.0  0.70050  0.64230  0.71100  1.0000
  O   O32       1.0  0.29950  0.35770  0.71100  1.0000
  O   O33       1.0  0.16260  0.33350  0.17490  1.0000
  O   O34       1.0  0.83740  0.66650  0.17490  1.0000
  O   O35       1.0  0.33740  0.83350  0.32510  1.0000
  O   O36       1.0  0.66260  0.16650  0.32510  1.0000
  O   O37       1.0  0.83740  0.66650  0.82510  1.0000
  O   O38       1.0  0.16260  0.33350  0.82510  1.0000
  O   O39       1.0  0.66260  0.16650  0.67490  1.0000
  O   O40       1.0  0.33740  0.83350  0.67490  1.0000
  O   O41       1.0  0.19800  0.25050  0.07630  1.0000
  O   O42       1.0  0.80200  0.74950  0.07630  1.0000
  O   O43       1.0  0.30200  0.75050  0.42370  1.0000
  O   O44       1.0  0.69800  0.24950  0.42370  1.0000
  O   O45       1.0  0.80200  0.74950  0.92370  1.0000
  O   O46       1.0  0.19800  0.25050  0.92370  1.0000
  O   O47       1.0  0.69800  0.24950  0.57630  1.0000
  O   O48       1.0  0.30200  0.75050  0.57630  1.0000
  O   O49       1.0  0.13020  0.39440  0.31880  1.0000
  O   O50       1.0  0.86980  0.60560  0.31880  1.0000
  O   O51       1.0  0.36980  0.89440  0.18120  1.0000
  O   O52       1.0  0.63020  0.10560  0.18120  1.0000
  O   O53       1.0  0.86980  0.60560  0.68120  1.0000
  O   O54       1.0  0.13020  0.39440  0.68120  1.0000
  O   O55       1.0  0.63020  0.10560  0.81880  1.0000
  O   O56       1.0  0.36980  0.89440  0.81880  1.0000
  O   O57       1.0  0.07810  0.47450  0.40480  1.0000
  O   O58       1.0  0.92190  0.52550  0.40480  1.0000
  O   O59       1.0  0.42190  0.97450  0.09520  1.0000
  O   O60       1.0  0.57810  0.02550  0.09520  1.0000
  O   O61       1.0  0.92190  0.52550  0.59520  1.0000
  O   O62       1.0  0.07810  0.47450  0.59520  1.0000
  O   O63       1.0  0.57810  0.02550  0.90480  1.0000
  O   O64       1.0  0.42190  0.97450  0.90480  1.0000
