data_image0
_chemical_formula_structural       Co4B4C4H4B8H4C4H4C4H4B4H4B12H4C4H4B8H4B4H4B4H4B4H4B4H4B4H4B4H4B12H32
_chemical_formula_sum              "Co4 B72 C16 H88"
_cell_length_a       20.2221
_cell_length_b       7.0218
_cell_length_c       21.8604
_cell_angle_alpha    90
_cell_angle_beta     114.458
_cell_angle_gamma    90

_space_group_name_H-M_alt    "P 1"
_space_group_IT_number       1

loop_
  _space_group_symop_operation_xyz
  'x, y, z'

loop_
  _atom_site_type_symbol
  _atom_site_label
  _atom_site_symmetry_multiplicity
  _atom_site_fract_x
  _atom_site_fract_y
  _atom_site_fract_z
  _atom_site_occupancy
  Co  Co1       1.0  0.88689  0.73904  0.21000  1.0000
  Co  Co2       1.0  0.61311  0.23904  0.29000  1.0000
  Co  Co3       1.0  0.11311  0.26096  0.79000  1.0000
  Co  Co4       1.0  0.38689  0.76096  0.71000  1.0000
  B   B1        1.0  0.84600  0.65890  0.10930  1.0000
  B   B2        1.0  0.65400  0.15890  0.39070  1.0000
  B   B3        1.0  0.15400  0.34110  0.89070  1.0000
  B   B4        1.0  0.34600  0.84110  0.60930  1.0000
  C   C1        1.0  0.78040  0.79330  0.18840  1.0000
  C   C2        1.0  0.71960  0.29330  0.31160  1.0000
  C   C3        1.0  0.21960  0.20670  0.81160  1.0000
  C   C4        1.0  0.28040  0.70670  0.68840  1.0000
  H   H1        1.0  0.77950  0.90520  0.22460  1.0000
  H   H2        1.0  0.72050  0.40520  0.27540  1.0000
  H   H3        1.0  0.22050  0.09480  0.77540  1.0000
  H   H4        1.0  0.27950  0.59480  0.72460  1.0000
  B   B5        1.0  0.99770  0.99310  0.34370  1.0000
  B   B6        1.0  0.50230  0.49310  0.15630  1.0000
  B   B7        1.0  0.00230  0.00690  0.65630  1.0000
  B   B8        1.0  0.49770  0.50690  0.84370  1.0000
  B   B9        1.0  0.05810  0.86190  0.25320  1.0000
  B   B10       1.0  0.44190  0.36190  0.24680  1.0000
  B   B11       1.0  0.94190  0.13810  0.74680  1.0000
  B   B12       1.0  0.55810  0.63810  0.75320  1.0000
  H   H5        1.0  0.10040  0.88060  0.23310  1.0000
  H   H6        1.0  0.39960  0.38060  0.26690  1.0000
  H   H7        1.0  0.89960  0.11940  0.76690  1.0000
  H   H8        1.0  0.60040  0.61940  0.73310  1.0000
  C   C5        1.0  0.93540  0.80920  0.31010  1.0000
  C   C6        1.0  0.56460  0.30920  0.18990  1.0000
  C   C7        1.0  0.06460  0.19080  0.68990  1.0000
  C   C8        1.0  0.43540  0.69080  0.81010  1.0000
  H   H9        1.0  0.89330  0.79570  0.33070  1.0000
  H   H10       1.0  0.60670  0.29570  0.16930  1.0000
  H   H11       1.0  0.10670  0.20430  0.66930  1.0000
  H   H12       1.0  0.39330  0.70430  0.83070  1.0000
  C   C9        1.0  0.93380  0.98390  0.26090  1.0000
  C   C10       1.0  0.56620  0.48390  0.23910  1.0000
  C   C11       1.0  0.06620  0.01610  0.73910  1.0000
  C   C12       1.0  0.43380  0.51610  0.76090  1.0000
  H   H13       1.0  0.89000  0.09460  0.24590  1.0000
  H   H14       1.0  0.61000  0.59460  0.25410  1.0000
  H   H15       1.0  0.11000  0.90540  0.75410  1.0000
  H   H16       1.0  0.39000  0.40540  0.74590  1.0000
  B   B13       1.0  0.77920  0.47880  0.08150  1.0000
  B   B14       1.0  0.72080  0.97880  0.41850  1.0000
  B   B15       1.0  0.22080  0.52120  0.91850  1.0000
  B   B16       1.0  0.27920  0.02120  0.58150  1.0000
  H   H17       1.0  0.77900  0.37010  0.04400  1.0000
  H   H18       1.0  0.72100  0.87010  0.45600  1.0000
  H   H19       1.0  0.22100  0.62990  0.95600  1.0000
  H   H20       1.0  0.27900  0.12990  0.54400  1.0000
  B   B17       1.0  0.02240  0.75070  0.36210  1.0000
  B   B18       1.0  0.47760  0.25070  0.13790  1.0000
  B   B19       1.0  0.97760  0.24930  0.63790  1.0000
  B   B20       1.0  0.52240  0.74930  0.86210  1.0000
  B   B21       1.0  0.07760  0.90690  0.33950  1.0000
  B   B22       1.0  0.42240  0.40690  0.16050  1.0000
  B   B23       1.0  0.92240  0.09310  0.66050  1.0000
  B   B24       1.0  0.57760  0.59310  0.83950  1.0000
  B   B25       1.0  0.96610  0.92010  0.20450  1.0000
  B   B26       1.0  0.53390  0.42010  0.29550  1.0000
  B   B27       1.0  0.03390  0.07990  0.79550  1.0000
  B   B28       1.0  0.46610  0.57990  0.70450  1.0000
  H   H21       1.0  0.94820  0.98300  0.15310  1.0000
  H   H22       1.0  0.55180  0.48300  0.34690  1.0000
  H   H23       1.0  0.05180  0.01700  0.84690  1.0000
  H   H24       1.0  0.44820  0.51700  0.65310  1.0000
  C   C13       1.0  0.80240  0.84720  0.12750  1.0000
  C   C14       1.0  0.69760  0.34720  0.37250  1.0000
  C   C15       1.0  0.19760  0.15280  0.87250  1.0000
  C   C16       1.0  0.30240  0.65280  0.62750  1.0000
  H   H25       1.0  0.81700  0.99610  0.11950  1.0000
  H   H26       1.0  0.68300  0.49610  0.38050  1.0000
  H   H27       1.0  0.18300  0.00390  0.88050  1.0000
  H   H28       1.0  0.31700  0.50390  0.61950  1.0000
  B   B29       1.0  0.71120  0.80720  0.10890  1.0000
  B   B30       1.0  0.78880  0.30720  0.39110  1.0000
  B   B31       1.0  0.28880  0.19280  0.89110  1.0000
  B   B32       1.0  0.21120  0.69280  0.60890  1.0000
  B   B33       1.0  0.99340  0.67630  0.22220  1.0000
  B   B34       1.0  0.50660  0.17630  0.27780  1.0000
  B   B35       1.0  0.00660  0.32370  0.77780  1.0000
  B   B36       1.0  0.49340  0.82370  0.72220  1.0000
  H   H29       1.0  0.99560  0.57490  0.18350  1.0000
  H   H30       1.0  0.50440  0.07490  0.31650  1.0000
  H   H31       1.0  0.00440  0.42510  0.81650  1.0000
  H   H32       1.0  0.49560  0.92510  0.68350  1.0000
  B   B37       1.0  0.01880  0.06190  0.27680  1.0000
  B   B38       1.0  0.48120  0.56190  0.22320  1.0000
  B   B39       1.0  0.98120  0.93810  0.72320  1.0000
  B   B40       1.0  0.51880  0.43810  0.77680  1.0000
  H   H33       1.0  0.03400  0.21310  0.27230  1.0000
  H   H34       1.0  0.46600  0.71310  0.22770  1.0000
  H   H35       1.0  0.96600  0.78690  0.72770  1.0000
  H   H36       1.0  0.53400  0.28690  0.77230  1.0000
  B   B41       1.0  0.06040  0.66930  0.30700  1.0000
  B   B42       1.0  0.43960  0.16930  0.19300  1.0000
  B   B43       1.0  0.93960  0.33070  0.69300  1.0000
  B   B44       1.0  0.56040  0.83070  0.80700  1.0000
  H   H37       1.0  0.10430  0.55900  0.32330  1.0000
  H   H38       1.0  0.39570  0.05900  0.17670  1.0000
  H   H39       1.0  0.89570  0.44100  0.67670  1.0000
  H   H40       1.0  0.60430  0.94100  0.82330  1.0000
  B   B45       1.0  0.75370  0.42000  0.14870  1.0000
  B   B46       1.0  0.74630  0.92000  0.35130  1.0000
  B   B47       1.0  0.24630  0.58000  0.85130  1.0000
  B   B48       1.0  0.25370  0.08000  0.64870  1.0000
  H   H41       1.0  0.73630  0.27370  0.15630  1.0000
  H   H42       1.0  0.76370  0.77370  0.34370  1.0000
  H   H43       1.0  0.26370  0.72630  0.84370  1.0000
  H   H44       1.0  0.23630  0.22630  0.65630  1.0000
  B   B49       1.0  0.84760  0.47000  0.16550  1.0000
  B   B50       1.0  0.65240  0.97000  0.33450  1.0000
  B   B51       1.0  0.15240  0.53000  0.83450  1.0000
  B   B52       1.0  0.34760  0.03000  0.66550  1.0000
  H   H45       1.0  0.88950  0.35430  0.18190  1.0000
  H   H46       1.0  0.61050  0.85430  0.31810  1.0000
  H   H47       1.0  0.11050  0.64570  0.81810  1.0000
  H   H48       1.0  0.38950  0.14570  0.68190  1.0000
  B   B53       1.0  0.97000  0.60600  0.29090  1.0000
  B   B54       1.0  0.53000  0.10600  0.20910  1.0000
  B   B55       1.0  0.03000  0.39400  0.70910  1.0000
  B   B56       1.0  0.47000  0.89400  0.79090  1.0000
  H   H49       1.0  0.95530  0.45660  0.29820  1.0000
  H   H50       1.0  0.54470  0.95660  0.20180  1.0000
  H   H51       1.0  0.04470  0.54340  0.70180  1.0000
  H   H52       1.0  0.45530  0.04340  0.79820  1.0000
  B   B57       1.0  0.71400  0.62730  0.16530  1.0000
  B   B58       1.0  0.78600  0.12730  0.33470  1.0000
  B   B59       1.0  0.28600  0.37270  0.83470  1.0000
  B   B60       1.0  0.21400  0.87270  0.66530  1.0000
  H   H53       1.0  0.67090  0.61930  0.18480  1.0000
  H   H54       1.0  0.82910  0.11930  0.31520  1.0000
  H   H55       1.0  0.32910  0.38070  0.81520  1.0000
  H   H56       1.0  0.17090  0.88070  0.68480  1.0000
  B   B61       1.0  0.69580  0.56990  0.08080  1.0000
  B   B62       1.0  0.80420  0.06990  0.41920  1.0000
  B   B63       1.0  0.30420  0.43010  0.91920  1.0000
  B   B64       1.0  0.19580  0.93010  0.58080  1.0000
  B   B65       1.0  0.75220  0.71650  0.05740  1.0000
  B   B66       1.0  0.74780  0.21650  0.44260  1.0000
  B   B67       1.0  0.24780  0.28350  0.94260  1.0000
  B   B68       1.0  0.25220  0.78350  0.55740  1.0000
  B   B69       1.0  0.80640  0.56840  0.21820  1.0000
  B   B70       1.0  0.69360  0.06840  0.28180  1.0000
  B   B71       1.0  0.19360  0.43160  0.78180  1.0000
  B   B72       1.0  0.30640  0.93160  0.71820  1.0000
  H   H57       1.0  0.82210  0.51980  0.27110  1.0000
  H   H58       1.0  0.67790  0.01980  0.22890  1.0000
  H   H59       1.0  0.17790  0.48020  0.72890  1.0000
  H   H60       1.0  0.32210  0.98020  0.77110  1.0000
  H   H61       1.0  0.03900  0.69500  0.41200  1.0000
  H   H62       1.0  0.46100  0.19500  0.08800  1.0000
  H   H63       1.0  0.96100  0.30500  0.58800  1.0000
  H   H64       1.0  0.53900  0.80500  0.91200  1.0000
  H   H65       1.0  0.63900  0.51800  0.04700  1.0000
  H   H66       1.0  0.86100  0.01800  0.45300  1.0000
  H   H67       1.0  0.36100  0.48200  0.95300  1.0000
  H   H68       1.0  0.13900  0.98200  0.54700  1.0000
  H   H69       1.0  0.73700  0.79400  0.00600  1.0000
  H   H70       1.0  0.76300  0.29400  0.49400  1.0000
  H   H71       1.0  0.26300  0.20600  0.99400  1.0000
  H   H72       1.0  0.23700  0.70600  0.50600  1.0000
  H   H73       1.0  0.99200  0.10200  0.37800  1.0000
  H   H74       1.0  0.50800  0.60200  0.12200  1.0000
  H   H75       1.0  0.00800  0.89800  0.62200  1.0000
  H   H76       1.0  0.49200  0.39800  0.87800  1.0000
  H   H77       1.0  0.67200  0.93000  0.09500  1.0000
  H   H78       1.0  0.82800  0.43000  0.40500  1.0000
  H   H79       1.0  0.32800  0.07000  0.90500  1.0000
  H   H80       1.0  0.17200  0.57000  0.59500  1.0000
  H   H81       1.0  0.87800  0.68000  0.08700  1.0000
  H   H82       1.0  0.62200  0.18000  0.41300  1.0000
  H   H83       1.0  0.12200  0.32000  0.91300  1.0000
  H   H84       1.0  0.37800  0.82000  0.58700  1.0000
  H   H85       1.0  0.12800  0.96000  0.37500  1.0000
  H   H86       1.0  0.37200  0.46000  0.12500  1.0000
  H   H87       1.0  0.87200  0.04000  0.62500  1.0000
  H   H88       1.0  0.62800  0.54000  0.87500  1.0000
