data_image0
_chemical_formula_structural       Ir4C24H12C4H12C4H12C4H12C4H12C4N4C4N4C4N4Rh8O8C8H12O8C8H12O8C8H12O8C8H12
_chemical_formula_sum              "Ir4 C84 H108 N12 Rh8 O32"
_cell_length_a       13.2631
_cell_length_b       18.3666
_cell_length_c       20.5855
_cell_angle_alpha    90
_cell_angle_beta     90
_cell_angle_gamma    90

_space_group_name_H-M_alt    "P 1"
_space_group_IT_number       1

loop_
  _space_group_symop_operation_xyz
  'x, y, z'

loop_
  _atom_site_type_symbol
  _atom_site_label
  _atom_site_symmetry_multiplicity
  _atom_site_fract_x
  _atom_site_fract_y
  _atom_site_fract_z
  _atom_site_occupancy
  Ir  Ir1       1.0  0.47962  0.54245  0.01197  1.0000
  Ir  Ir2       1.0  0.02038  0.45755  0.51197  1.0000
  Ir  Ir3       1.0  0.97962  0.95755  0.98803  1.0000
  Ir  Ir4       1.0  0.52038  0.04245  0.48803  1.0000
  C   C1        1.0  0.46577  0.64664  0.95262  1.0000
  C   C2        1.0  0.03423  0.35336  0.45262  1.0000
  C   C3        1.0  0.96577  0.85336  0.04738  1.0000
  C   C4        1.0  0.53423  0.14664  0.54738  1.0000
  C   C5        1.0  0.52096  0.66628  0.00907  1.0000
  C   C6        1.0  0.97904  0.33372  0.50907  1.0000
  C   C7        1.0  0.02096  0.83372  0.99093  1.0000
  C   C8        1.0  0.47904  0.16628  0.49093  1.0000
  C   C9        1.0  0.45855  0.65358  0.06396  1.0000
  C   C10       1.0  0.04145  0.34642  0.56396  1.0000
  C   C11       1.0  0.95855  0.84642  0.93604  1.0000
  C   C12       1.0  0.54145  0.15358  0.43604  1.0000
  C   C13       1.0  0.36479  0.62609  0.04143  1.0000
  C   C14       1.0  0.13521  0.37391  0.54143  1.0000
  C   C15       1.0  0.86479  0.87391  0.95857  1.0000
  C   C16       1.0  0.63521  0.12609  0.45857  1.0000
  C   C17       1.0  0.36925  0.62180  0.97262  1.0000
  C   C18       1.0  0.13075  0.37820  0.47262  1.0000
  C   C19       1.0  0.86925  0.87820  0.02738  1.0000
  C   C20       1.0  0.63075  0.12180  0.52738  1.0000
  C   C21       1.0  0.50315  0.65134  0.88348  1.0000
  C   C22       1.0  0.99685  0.34866  0.38348  1.0000
  C   C23       1.0  0.00315  0.84866  0.11652  1.0000
  C   C24       1.0  0.49685  0.15134  0.61652  1.0000
  H   H1        1.0  0.50461  0.70241  0.86975  1.0000
  H   H2        1.0  0.99539  0.29759  0.36975  1.0000
  H   H3        1.0  0.00461  0.79759  0.13025  1.0000
  H   H4        1.0  0.49539  0.20241  0.63025  1.0000
  H   H5        1.0  0.45785  0.62381  0.85500  1.0000
  H   H6        1.0  0.04215  0.37619  0.35500  1.0000
  H   H7        1.0  0.95785  0.87619  0.14500  1.0000
  H   H8        1.0  0.54215  0.12381  0.64500  1.0000
  H   H9        1.0  0.57124  0.63084  0.88083  1.0000
  H   H10       1.0  0.92876  0.36916  0.38083  1.0000
  H   H11       1.0  0.07124  0.86916  0.11917  1.0000
  H   H12       1.0  0.42876  0.13084  0.61917  1.0000
  C   C25       1.0  0.62729  0.69553  0.01048  1.0000
  C   C26       1.0  0.87271  0.30447  0.51048  1.0000
  C   C27       1.0  0.12729  0.80447  0.98952  1.0000
  C   C28       1.0  0.37271  0.19553  0.48952  1.0000
  H   H13       1.0  0.66480  0.67225  0.04585  1.0000
  H   H14       1.0  0.83520  0.32775  0.54585  1.0000
  H   H15       1.0  0.16480  0.82775  0.95415  1.0000
  H   H16       1.0  0.33520  0.17225  0.45415  1.0000
  H   H17       1.0  0.62559  0.74829  0.01751  1.0000
  H   H18       1.0  0.87441  0.25171  0.51751  1.0000
  H   H19       1.0  0.12559  0.75171  0.98249  1.0000
  H   H20       1.0  0.37441  0.24829  0.48249  1.0000
  H   H21       1.0  0.66051  0.68504  0.96900  1.0000
  H   H22       1.0  0.83949  0.31496  0.46900  1.0000
  H   H23       1.0  0.16051  0.81496  0.03100  1.0000
  H   H24       1.0  0.33949  0.18504  0.53100  1.0000
  C   C29       1.0  0.48689  0.66696  0.13397  1.0000
  C   C30       1.0  0.01311  0.33304  0.63397  1.0000
  C   C31       1.0  0.98689  0.83304  0.86603  1.0000
  C   C32       1.0  0.51311  0.16696  0.36603  1.0000
  H   H25       1.0  0.44877  0.63380  0.16205  1.0000
  H   H26       1.0  0.05123  0.36620  0.66205  1.0000
  H   H27       1.0  0.94877  0.86620  0.83795  1.0000
  H   H28       1.0  0.55123  0.13380  0.33795  1.0000
  H   H29       1.0  0.47104  0.71742  0.14558  1.0000
  H   H30       1.0  0.02896  0.28258  0.64558  1.0000
  H   H31       1.0  0.97104  0.78258  0.85442  1.0000
  H   H32       1.0  0.52896  0.21742  0.35442  1.0000
  H   H33       1.0  0.55925  0.65834  0.13975  1.0000
  H   H34       1.0  0.94075  0.34166  0.63975  1.0000
  H   H35       1.0  0.05925  0.84166  0.86025  1.0000
  H   H36       1.0  0.44075  0.15834  0.36025  1.0000
  C   C33       1.0  0.27597  0.60511  0.08328  1.0000
  C   C34       1.0  0.22403  0.39489  0.58328  1.0000
  C   C35       1.0  0.77597  0.89489  0.91672  1.0000
  C   C36       1.0  0.72403  0.10511  0.41672  1.0000
  H   H37       1.0  0.22552  0.64408  0.08220  1.0000
  H   H38       1.0  0.27448  0.35592  0.58220  1.0000
  H   H39       1.0  0.72552  0.85592  0.91780  1.0000
  H   H40       1.0  0.77448  0.14408  0.41780  1.0000
  H   H41       1.0  0.29866  0.59764  0.12810  1.0000
  H   H42       1.0  0.20134  0.40236  0.62810  1.0000
  H   H43       1.0  0.79866  0.90236  0.87190  1.0000
  H   H44       1.0  0.70134  0.09764  0.37190  1.0000
  H   H45       1.0  0.24605  0.55999  0.06673  1.0000
  H   H46       1.0  0.25395  0.44001  0.56673  1.0000
  H   H47       1.0  0.74605  0.94001  0.93327  1.0000
  H   H48       1.0  0.75395  0.05999  0.43327  1.0000
  C   C37       1.0  0.28602  0.59545  0.92848  1.0000
  C   C38       1.0  0.21398  0.40455  0.42848  1.0000
  C   C39       1.0  0.78602  0.90455  0.07152  1.0000
  C   C40       1.0  0.71398  0.09545  0.57152  1.0000
  H   H49       1.0  0.31442  0.58235  0.88612  1.0000
  H   H50       1.0  0.18558  0.41765  0.38612  1.0000
  H   H51       1.0  0.81442  0.91765  0.11388  1.0000
  H   H52       1.0  0.68558  0.08235  0.61388  1.0000
  H   H53       1.0  0.23600  0.63421  0.92285  1.0000
  H   H54       1.0  0.26400  0.36579  0.42285  1.0000
  H   H55       1.0  0.73600  0.86579  0.07715  1.0000
  H   H56       1.0  0.76400  0.13421  0.57715  1.0000
  H   H57       1.0  0.25360  0.55268  0.94782  1.0000
  H   H58       1.0  0.24640  0.44732  0.44782  1.0000
  H   H59       1.0  0.75360  0.94732  0.05218  1.0000
  H   H60       1.0  0.74640  0.05268  0.55218  1.0000
  C   C41       1.0  0.58410  0.50970  0.07690  1.0000
  C   C42       1.0  0.91590  0.49030  0.57690  1.0000
  C   C43       1.0  0.08410  0.99030  0.92310  1.0000
  C   C44       1.0  0.41590  0.00970  0.42310  1.0000
  N   N1        1.0  0.64550  0.49660  0.11510  1.0000
  N   N2        1.0  0.85450  0.50340  0.61510  1.0000
  N   N3        1.0  0.14550  0.00340  0.88490  1.0000
  N   N4        1.0  0.35450  0.99660  0.38490  1.0000
  C   C45       1.0  0.39570  0.44410  0.02950  1.0000
  C   C46       1.0  0.10430  0.55590  0.52950  1.0000
  C   C47       1.0  0.89570  0.05590  0.97050  1.0000
  C   C48       1.0  0.60430  0.94410  0.47050  1.0000
  N   N5        1.0  0.35350  0.39320  0.03700  1.0000
  N   N6        1.0  0.14650  0.60680  0.53700  1.0000
  N   N7        1.0  0.85350  0.10680  0.96300  1.0000
  N   N8        1.0  0.64650  0.89320  0.46300  1.0000
  C   C49       1.0  0.55470  0.49110  0.94140  1.0000
  C   C50       1.0  0.94530  0.50890  0.44140  1.0000
  C   C51       1.0  0.05470  0.00890  0.05860  1.0000
  C   C52       1.0  0.44530  0.99110  0.55860  1.0000
  N   N9        1.0  0.59930  0.46610  0.90030  1.0000
  N   N10       1.0  0.90070  0.53390  0.40030  1.0000
  N   N11       1.0  0.09930  0.03390  0.09970  1.0000
  N   N12       1.0  0.40070  0.96610  0.59970  1.0000
  Rh  Rh1       1.0  0.81481  0.52577  0.30729  1.0000
  Rh  Rh2       1.0  0.68519  0.47423  0.80729  1.0000
  Rh  Rh3       1.0  0.31481  0.97423  0.69271  1.0000
  Rh  Rh4       1.0  0.18519  0.02577  0.19271  1.0000
  Rh  Rh5       1.0  0.72890  0.50825  0.20578  1.0000
  Rh  Rh6       1.0  0.77110  0.49175  0.70578  1.0000
  Rh  Rh7       1.0  0.22890  0.99175  0.79422  1.0000
  Rh  Rh8       1.0  0.27110  0.00825  0.29422  1.0000
  O   O1        1.0  0.86260  0.47140  0.16790  1.0000
  O   O2        1.0  0.63740  0.52860  0.66790  1.0000
  O   O3        1.0  0.36260  0.02860  0.83210  1.0000
  O   O4        1.0  0.13740  0.97140  0.33210  1.0000
  O   O5        1.0  0.94280  0.48940  0.26380  1.0000
  O   O6        1.0  0.55720  0.51060  0.76380  1.0000
  O   O7        1.0  0.44280  0.01060  0.73620  1.0000
  O   O8        1.0  0.05720  0.98940  0.23620  1.0000
  C   C53       1.0  0.93660  0.46620  0.20550  1.0000
  C   C54       1.0  0.56340  0.53380  0.70550  1.0000
  C   C55       1.0  0.43660  0.03380  0.79450  1.0000
  C   C56       1.0  0.06340  0.96620  0.29450  1.0000
  C   C57       1.0  0.03330  0.43580  0.17630  1.0000
  C   C58       1.0  0.46670  0.56420  0.67630  1.0000
  C   C59       1.0  0.53330  0.06420  0.82370  1.0000
  C   C60       1.0  0.96670  0.93580  0.32370  1.0000
  H   H61       1.0  0.05570  0.39370  0.20170  1.0000
  H   H62       1.0  0.44430  0.60630  0.70170  1.0000
  H   H63       1.0  0.55570  0.10630  0.79830  1.0000
  H   H64       1.0  0.94430  0.89370  0.29830  1.0000
  H   H65       1.0  0.08580  0.47340  0.17700  1.0000
  H   H66       1.0  0.41420  0.52660  0.67700  1.0000
  H   H67       1.0  0.58580  0.02660  0.82300  1.0000
  H   H68       1.0  0.91420  0.97340  0.32300  1.0000
  H   H69       1.0  0.02080  0.42080  0.13130  1.0000
  H   H70       1.0  0.47920  0.57920  0.63130  1.0000
  H   H71       1.0  0.52080  0.07920  0.86870  1.0000
  H   H72       1.0  0.97920  0.92080  0.36870  1.0000
  O   O9        1.0  0.76350  0.61410  0.18260  1.0000
  O   O10       1.0  0.73650  0.38590  0.68260  1.0000
  O   O11       1.0  0.26350  0.88590  0.81740  1.0000
  O   O12       1.0  0.23650  0.11410  0.31740  1.0000
  O   O13       1.0  0.84340  0.62990  0.27840  1.0000
  O   O14       1.0  0.65660  0.37010  0.77840  1.0000
  O   O15       1.0  0.34340  0.87010  0.72160  1.0000
  O   O16       1.0  0.15660  0.12990  0.22160  1.0000
  C   C61       1.0  0.80750  0.65090  0.22250  1.0000
  C   C62       1.0  0.69250  0.34910  0.72250  1.0000
  C   C63       1.0  0.30750  0.84910  0.77750  1.0000
  C   C64       1.0  0.19250  0.15090  0.27750  1.0000
  C   C65       1.0  0.82490  0.73270  0.20810  1.0000
  C   C66       1.0  0.67510  0.26730  0.70810  1.0000
  C   C67       1.0  0.32490  0.76730  0.79190  1.0000
  C   C68       1.0  0.17510  0.23270  0.29190  1.0000
  H   H73       1.0  0.89640  0.74440  0.21410  1.0000
  H   H74       1.0  0.60360  0.25560  0.71410  1.0000
  H   H75       1.0  0.39640  0.75560  0.78590  1.0000
  H   H76       1.0  0.10360  0.24440  0.28590  1.0000
  H   H77       1.0  0.78420  0.76220  0.23790  1.0000
  H   H78       1.0  0.71580  0.23780  0.73790  1.0000
  H   H79       1.0  0.28420  0.73780  0.76210  1.0000
  H   H80       1.0  0.21580  0.26220  0.26210  1.0000
  H   H81       1.0  0.80520  0.74330  0.16320  1.0000
  H   H82       1.0  0.69480  0.25670  0.66320  1.0000
  H   H83       1.0  0.30520  0.75670  0.83680  1.0000
  H   H84       1.0  0.19480  0.24330  0.33680  1.0000
  O   O17       1.0  0.60280  0.54420  0.25030  1.0000
  O   O18       1.0  0.89720  0.45580  0.75030  1.0000
  O   O19       1.0  0.10280  0.95580  0.74970  1.0000
  O   O20       1.0  0.39720  0.04420  0.24970  1.0000
  O   O21       1.0  0.68180  0.56150  0.34500  1.0000
  O   O22       1.0  0.81820  0.43850  0.84500  1.0000
  O   O23       1.0  0.18180  0.93850  0.65500  1.0000
  O   O24       1.0  0.31820  0.06150  0.15500  1.0000
  C   C69       1.0  0.60740  0.56350  0.31150  1.0000
  C   C70       1.0  0.89260  0.43650  0.81150  1.0000
  C   C71       1.0  0.10740  0.93650  0.68850  1.0000
  C   C72       1.0  0.39260  0.06350  0.18850  1.0000
  C   C73       1.0  0.51190  0.59940  0.33540  1.0000
  C   C74       1.0  0.98810  0.40060  0.83540  1.0000
  C   C75       1.0  0.01190  0.90060  0.66460  1.0000
  C   C76       1.0  0.48810  0.09940  0.16460  1.0000
  H   H85       1.0  0.45330  0.57270  0.31890  1.0000
  H   H86       1.0  0.04670  0.42730  0.81890  1.0000
  H   H87       1.0  0.95330  0.92730  0.68110  1.0000
  H   H88       1.0  0.54670  0.07270  0.18110  1.0000
  H   H89       1.0  0.50940  0.64980  0.31970  1.0000
  H   H90       1.0  0.99060  0.35020  0.81970  1.0000
  H   H91       1.0  0.00940  0.85020  0.68030  1.0000
  H   H92       1.0  0.49060  0.14980  0.18030  1.0000
  H   H93       1.0  0.51100  0.59920  0.38300  1.0000
  H   H94       1.0  0.98900  0.40080  0.88300  1.0000
  H   H95       1.0  0.01100  0.90080  0.61700  1.0000
  H   H96       1.0  0.48900  0.09920  0.11700  1.0000
  O   O25       1.0  0.69600  0.40550  0.23490  1.0000
  O   O26       1.0  0.80400  0.59450  0.73490  1.0000
  O   O27       1.0  0.19600  0.09450  0.76510  1.0000
  O   O28       1.0  0.30400  0.90550  0.26510  1.0000
  O   O29       1.0  0.77890  0.42000  0.32890  1.0000
  O   O30       1.0  0.72110  0.58000  0.82890  1.0000
  O   O31       1.0  0.27890  0.08000  0.67110  1.0000
  O   O32       1.0  0.22110  0.92000  0.17110  1.0000
  C   C77       1.0  0.72730  0.38280  0.28800  1.0000
  C   C78       1.0  0.77270  0.61720  0.78800  1.0000
  C   C79       1.0  0.22730  0.11720  0.71200  1.0000
  C   C80       1.0  0.27270  0.88280  0.21200  1.0000
  C   C81       1.0  0.71210  0.30370  0.31000  1.0000
  C   C82       1.0  0.78790  0.69630  0.81000  1.0000
  C   C83       1.0  0.21210  0.19630  0.69000  1.0000
  C   C84       1.0  0.28790  0.80370  0.19000  1.0000
  H   H97       1.0  0.68680  0.30300  0.35470  1.0000
  H   H98       1.0  0.81320  0.69700  0.85470  1.0000
  H   H99       1.0  0.18680  0.19700  0.64530  1.0000
  H   H100      1.0  0.31320  0.80300  0.14530  1.0000
  H   H101      1.0  0.77660  0.27770  0.30800  1.0000
  H   H102      1.0  0.72340  0.72230  0.80800  1.0000
  H   H103      1.0  0.27660  0.22230  0.69200  1.0000
  H   H104      1.0  0.22340  0.77770  0.19200  1.0000
  H   H105      1.0  0.66330  0.27970  0.28130  1.0000
  H   H106      1.0  0.83670  0.72030  0.78130  1.0000
  H   H107      1.0  0.16330  0.22030  0.71870  1.0000
  H   H108      1.0  0.33670  0.77970  0.21870  1.0000
