data_image0
_chemical_formula_structural       Cu4C8H4C12H4C4O4C4N4H8O4N4C4H4C4H4C8H4C4H4O4C4N4H8O4N4C4H4C4H4C8H4C4H4O4C4O8C4O4
_chemical_formula_sum              "Cu4 C80 H56 O32 N16"
_cell_length_a       11.0433
_cell_length_b       9.5065
_cell_length_c       32.266
_cell_angle_alpha    90
_cell_angle_beta     96.365
_cell_angle_gamma    90

_space_group_name_H-M_alt    "P 1"
_space_group_IT_number       1

loop_
  _space_group_symop_operation_xyz
  'x, y, z'

loop_
  _atom_site_type_symbol
  _atom_site_label
  _atom_site_symmetry_multiplicity
  _atom_site_fract_x
  _atom_site_fract_y
  _atom_site_fract_z
  _atom_site_occupancy
  Cu  Cu1       1.0  0.01146  0.20442  0.12515  1.0000
  Cu  Cu2       1.0  0.98854  0.70442  0.37485  1.0000
  Cu  Cu3       1.0  0.98854  0.79558  0.87485  1.0000
  Cu  Cu4       1.0  0.01146  0.29558  0.62515  1.0000
  C   C1        1.0  0.38500  0.18590  0.10860  1.0000
  C   C2        1.0  0.61500  0.68590  0.39140  1.0000
  C   C3        1.0  0.61500  0.81410  0.89140  1.0000
  C   C4        1.0  0.38500  0.31410  0.60860  1.0000
  C   C5        1.0  0.42730  0.17590  0.15078  1.0000
  C   C6        1.0  0.57270  0.67590  0.34922  1.0000
  C   C7        1.0  0.57270  0.82410  0.84922  1.0000
  C   C8        1.0  0.42730  0.32410  0.65078  1.0000
  H   H1        1.0  0.37050  0.16100  0.17040  1.0000
  H   H2        1.0  0.62950  0.66100  0.32960  1.0000
  H   H3        1.0  0.62950  0.83900  0.82960  1.0000
  H   H4        1.0  0.37050  0.33900  0.67040  1.0000
  C   C9        1.0  0.55060  0.18700  0.16493  1.0000
  C   C10       1.0  0.44940  0.68700  0.33507  1.0000
  C   C11       1.0  0.44940  0.81300  0.83507  1.0000
  C   C12       1.0  0.55060  0.31300  0.66493  1.0000
  C   C13       1.0  0.63370  0.21200  0.13608  1.0000
  C   C14       1.0  0.36630  0.71200  0.36392  1.0000
  C   C15       1.0  0.36630  0.78800  0.86392  1.0000
  C   C16       1.0  0.63370  0.28800  0.63608  1.0000
  C   C17       1.0  0.59100  0.22310  0.09371  1.0000
  C   C18       1.0  0.40900  0.72310  0.40629  1.0000
  C   C19       1.0  0.40900  0.77690  0.90629  1.0000
  C   C20       1.0  0.59100  0.27690  0.59371  1.0000
  H   H5        1.0  0.64760  0.23870  0.07410  1.0000
  H   H6        1.0  0.35240  0.73870  0.42590  1.0000
  H   H7        1.0  0.35240  0.76130  0.92590  1.0000
  H   H8        1.0  0.64760  0.26130  0.57410  1.0000
  C   C21       1.0  0.46730  0.21190  0.07962  1.0000
  C   C22       1.0  0.53270  0.71190  0.42038  1.0000
  C   C23       1.0  0.53270  0.78810  0.92038  1.0000
  C   C24       1.0  0.46730  0.28810  0.57962  1.0000
  O   O1        1.0  0.18596  0.22120  0.12310  1.0000
  O   O2        1.0  0.81404  0.72120  0.37690  1.0000
  O   O3        1.0  0.81404  0.77880  0.87690  1.0000
  O   O4        1.0  0.18596  0.27880  0.62310  1.0000
  C   C25       1.0  0.24950  0.17070  0.09657  1.0000
  C   C26       1.0  0.75050  0.67070  0.40343  1.0000
  C   C27       1.0  0.75050  0.82930  0.90343  1.0000
  C   C28       1.0  0.24950  0.32930  0.59657  1.0000
  N   N1        1.0  0.90570  0.73650  0.01813  1.0000
  N   N2        1.0  0.09430  0.23650  0.48187  1.0000
  N   N3        1.0  0.09430  0.26350  0.98187  1.0000
  N   N4        1.0  0.90570  0.76350  0.51813  1.0000
  H   H9        1.0  0.85120  0.73400  0.99610  1.0000
  H   H10       1.0  0.14880  0.23400  0.50390  1.0000
  H   H11       1.0  0.14880  0.26600  0.00390  1.0000
  H   H12       1.0  0.85120  0.76600  0.49610  1.0000
  H   H13       1.0  0.94250  0.81610  0.02570  1.0000
  H   H14       1.0  0.05750  0.31610  0.47430  1.0000
  H   H15       1.0  0.05750  0.18390  0.97430  1.0000
  H   H16       1.0  0.94250  0.68390  0.52570  1.0000
  O   O5        1.0  0.21142  0.10810  0.06330  1.0000
  O   O6        1.0  0.78858  0.60810  0.43670  1.0000
  O   O7        1.0  0.78858  0.89190  0.93670  1.0000
  O   O8        1.0  0.21142  0.39190  0.56330  1.0000
  N   N5        1.0  0.98203  0.37300  0.08897  1.0000
  N   N6        1.0  0.01797  0.87300  0.41103  1.0000
  N   N7        1.0  0.01797  0.62700  0.91103  1.0000
  N   N8        1.0  0.98203  0.12700  0.58897  1.0000
  C   C29       1.0  0.04140  0.49470  0.09842  1.0000
  C   C30       1.0  0.95860  0.99470  0.40158  1.0000
  C   C31       1.0  0.95860  0.50530  0.90158  1.0000
  C   C32       1.0  0.04140  0.00530  0.59842  1.0000
  H   H17       1.0  0.10140  0.49640  0.12190  1.0000
  H   H18       1.0  0.89860  0.99640  0.37810  1.0000
  H   H19       1.0  0.89860  0.50360  0.87810  1.0000
  H   H20       1.0  0.10140  0.00360  0.62190  1.0000
  C   C33       1.0  0.01950  0.61700  0.07576  1.0000
  C   C34       1.0  0.98050  0.11700  0.42424  1.0000
  C   C35       1.0  0.98050  0.38300  0.92424  1.0000
  C   C36       1.0  0.01950  0.88300  0.57576  1.0000
  H   H21       1.0  0.06320  0.70030  0.08410  1.0000
  H   H22       1.0  0.93680  0.20030  0.41590  1.0000
  H   H23       1.0  0.93680  0.29970  0.91590  1.0000
  H   H24       1.0  0.06320  0.79970  0.58410  1.0000
  C   C37       1.0  0.93280  0.61850  0.04039  1.0000
  C   C38       1.0  0.06720  0.11850  0.45961  1.0000
  C   C39       1.0  0.06720  0.38150  0.95961  1.0000
  C   C40       1.0  0.93280  0.88150  0.54039  1.0000
  C   C41       1.0  0.87630  0.48910  0.02953  1.0000
  C   C42       1.0  0.12370  0.98910  0.47047  1.0000
  C   C43       1.0  0.12370  0.51090  0.97047  1.0000
  C   C44       1.0  0.87630  0.01090  0.52953  1.0000
  H   H25       1.0  0.82080  0.48200  0.00490  1.0000
  H   H26       1.0  0.17920  0.98200  0.49510  1.0000
  H   H27       1.0  0.17920  0.51800  0.99510  1.0000
  H   H28       1.0  0.82080  0.01800  0.50490  1.0000
  C   C45       1.0  0.90100  0.37350  0.05416  1.0000
  C   C46       1.0  0.09900  0.87350  0.44584  1.0000
  C   C47       1.0  0.09900  0.62650  0.94584  1.0000
  C   C48       1.0  0.90100  0.12650  0.55416  1.0000
  H   H29       1.0  0.85900  0.28870  0.04650  1.0000
  H   H30       1.0  0.14100  0.78870  0.45350  1.0000
  H   H31       1.0  0.14100  0.71130  0.95350  1.0000
  H   H32       1.0  0.85900  0.21130  0.54650  1.0000
  O   O9        1.0  0.53383  0.23850  0.23580  1.0000
  O   O10       1.0  0.46617  0.73850  0.26420  1.0000
  O   O11       1.0  0.46617  0.76150  0.76420  1.0000
  O   O12       1.0  0.53383  0.26150  0.73580  1.0000
  C   C49       1.0  0.58970  0.16540  0.21111  1.0000
  C   C50       1.0  0.41030  0.66540  0.28889  1.0000
  C   C51       1.0  0.41030  0.83460  0.78889  1.0000
  C   C52       1.0  0.58970  0.33460  0.71111  1.0000
  N   N9        1.0  0.09780  0.66230  0.22977  1.0000
  N   N10       1.0  0.90220  0.16230  0.27023  1.0000
  N   N11       1.0  0.90220  0.33770  0.77023  1.0000
  N   N12       1.0  0.09780  0.83770  0.72977  1.0000
  H   H33       1.0  0.05650  0.58600  0.22180  1.0000
  H   H34       1.0  0.94350  0.08600  0.27820  1.0000
  H   H35       1.0  0.94350  0.41400  0.77820  1.0000
  H   H36       1.0  0.05650  0.91400  0.72180  1.0000
  H   H37       1.0  0.15080  0.66030  0.25220  1.0000
  H   H38       1.0  0.84920  0.16030  0.24780  1.0000
  H   H39       1.0  0.84920  0.33970  0.74780  1.0000
  H   H40       1.0  0.15080  0.83970  0.75220  1.0000
  O   O13       1.0  0.67025  0.07630  0.22124  1.0000
  O   O14       1.0  0.32975  0.57630  0.27876  1.0000
  O   O15       1.0  0.32975  0.92370  0.77876  1.0000
  O   O16       1.0  0.67025  0.42370  0.72124  1.0000
  N   N13       1.0  0.04037  0.03270  0.16050  1.0000
  N   N14       1.0  0.95963  0.53270  0.33950  1.0000
  N   N15       1.0  0.95963  0.96730  0.83950  1.0000
  N   N16       1.0  0.04037  0.46730  0.66050  1.0000
  C   C53       1.0  0.12140  0.02620  0.19517  1.0000
  C   C54       1.0  0.87860  0.52620  0.30483  1.0000
  C   C55       1.0  0.87860  0.97380  0.80483  1.0000
  C   C56       1.0  0.12140  0.47380  0.69517  1.0000
  H   H41       1.0  0.16580  0.10890  0.20350  1.0000
  H   H42       1.0  0.83420  0.60890  0.29650  1.0000
  H   H43       1.0  0.83420  0.89110  0.79650  1.0000
  H   H44       1.0  0.16580  0.39110  0.70350  1.0000
  C   C57       1.0  0.14330  0.90730  0.21913  1.0000
  C   C58       1.0  0.85670  0.40730  0.28087  1.0000
  C   C59       1.0  0.85670  0.09270  0.78087  1.0000
  C   C60       1.0  0.14330  0.59270  0.71913  1.0000
  H   H45       1.0  0.20080  0.90950  0.24330  1.0000
  H   H46       1.0  0.79920  0.40950  0.25670  1.0000
  H   H47       1.0  0.79920  0.09050  0.75670  1.0000
  H   H48       1.0  0.20080  0.59050  0.74330  1.0000
  C   C61       1.0  0.07980  0.78250  0.20756  1.0000
  C   C62       1.0  0.92020  0.28250  0.29244  1.0000
  C   C63       1.0  0.92020  0.21750  0.79244  1.0000
  C   C64       1.0  0.07980  0.71750  0.70756  1.0000
  C   C65       1.0  0.99580  0.78880  0.17158  1.0000
  C   C66       1.0  0.00420  0.28880  0.32842  1.0000
  C   C67       1.0  0.00420  0.21120  0.82842  1.0000
  C   C68       1.0  0.99580  0.71120  0.67158  1.0000
  H   H49       1.0  0.95070  0.70750  0.16230  1.0000
  H   H50       1.0  0.04930  0.20750  0.33770  1.0000
  H   H51       1.0  0.04930  0.29250  0.83770  1.0000
  H   H52       1.0  0.95070  0.79250  0.66230  1.0000
  C   C69       1.0  0.97910  0.91280  0.14990  1.0000
  C   C70       1.0  0.02090  0.41280  0.35010  1.0000
  C   C71       1.0  0.02090  0.08720  0.85010  1.0000
  C   C72       1.0  0.97910  0.58720  0.64990  1.0000
  H   H53       1.0  0.92070  0.91430  0.12590  1.0000
  H   H54       1.0  0.07930  0.41430  0.37410  1.0000
  H   H55       1.0  0.07930  0.08570  0.87410  1.0000
  H   H56       1.0  0.92070  0.58570  0.62590  1.0000
  O   O17       1.0  0.46953  0.16030  0.00776  1.0000
  O   O18       1.0  0.53047  0.66030  0.49224  1.0000
  O   O19       1.0  0.53047  0.83970  0.99224  1.0000
  O   O20       1.0  0.46953  0.33970  0.50776  1.0000
  C   C73       1.0  0.42680  0.24120  0.03401  1.0000
  C   C74       1.0  0.57320  0.74120  0.46599  1.0000
  C   C75       1.0  0.57320  0.75880  0.96599  1.0000
  C   C76       1.0  0.42680  0.25880  0.53401  1.0000
  O   O21       1.0  0.35769  0.34350  0.02533  1.0000
  O   O22       1.0  0.64231  0.84350  0.47467  1.0000
  O   O23       1.0  0.64231  0.65650  0.97467  1.0000
  O   O24       1.0  0.35769  0.15650  0.52533  1.0000
  O   O25       1.0  0.83614  0.17720  0.12414  1.0000
  O   O26       1.0  0.16386  0.67720  0.37586  1.0000
  O   O27       1.0  0.16386  0.82280  0.87586  1.0000
  O   O28       1.0  0.83614  0.32280  0.62414  1.0000
  C   C77       1.0  0.76830  0.23260  0.14890  1.0000
  C   C78       1.0  0.23170  0.73260  0.35110  1.0000
  C   C79       1.0  0.23170  0.76740  0.85110  1.0000
  C   C80       1.0  0.76830  0.26740  0.64890  1.0000
  O   O29       1.0  0.80153  0.30590  0.18026  1.0000
  O   O30       1.0  0.19847  0.80590  0.31974  1.0000
  O   O31       1.0  0.19847  0.69410  0.81974  1.0000
  O   O32       1.0  0.80153  0.19410  0.68026  1.0000
