data_image0
_chemical_formula_structural       Mo10P2Mo14O54Cu4O24Cu2N4O2N4C2H2C6H2C2H2C2H2C2H2N2C2H2C2H2C4H2C2H2C2H2C2H2N2C2H2C2H2C2H2C2H2C2H2C2H2C4H2C2H2C2H2C4H2C4H2C2H2C2H2
_chemical_formula_sum              "Mo24 P2 O80 Cu6 N12 C60 H48"
_cell_length_a       10.941
_cell_length_b       21.255
_cell_length_c       13.487
_cell_angle_alpha    90
_cell_angle_beta     100.21
_cell_angle_gamma    90

_space_group_name_H-M_alt    "P 1"
_space_group_IT_number       1

loop_
  _space_group_symop_operation_xyz
  'x, y, z'

loop_
  _atom_site_type_symbol
  _atom_site_label
  _atom_site_symmetry_multiplicity
  _atom_site_fract_x
  _atom_site_fract_y
  _atom_site_fract_z
  _atom_site_occupancy
  Mo  Mo1       1.0  0.37176  0.01310  0.01304  1.0000
  Mo  Mo2       1.0  0.62824  0.51310  0.98696  1.0000
  Mo  Mo3       1.0  0.35461  0.08596  0.26077  1.0000
  Mo  Mo4       1.0  0.64539  0.58596  0.73923  1.0000
  Mo  Mo5       1.0  0.07456  0.08658  0.34148  1.0000
  Mo  Mo6       1.0  0.92544  0.58658  0.65852  1.0000
  Mo  Mo7       1.0  0.32716  0.91173  0.23572  1.0000
  Mo  Mo8       1.0  0.67284  0.41173  0.76428  1.0000
  Mo  Mo9       1.0  0.04799  0.91435  0.31492  1.0000
  Mo  Mo10      1.0  0.95201  0.41435  0.68508  1.0000
  P   P1        1.0  0.08705  0.01293  0.11002  1.0000
  P   P2        1.0  0.91295  0.51293  0.88998  1.0000
  Mo  Mo11      1.0  0.11099  0.94669  0.87311  1.0000
  Mo  Mo12      1.0  0.88901  0.44669  0.12689  1.0000
  Mo  Mo13      1.0  0.81124  0.94746  0.96740  1.0000
  Mo  Mo14      1.0  0.18876  0.44746  0.03260  1.0000
  Mo  Mo15      1.0  0.13142  0.10540  0.90033  1.0000
  Mo  Mo16      1.0  0.86858  0.60540  0.09967  1.0000
  Mo  Mo17      1.0  0.79332  0.01611  0.19261  1.0000
  Mo  Mo18      1.0  0.20668  0.51611  0.80739  1.0000
  Mo  Mo19      1.0  0.83049  0.10678  0.99213  1.0000
  Mo  Mo20      1.0  0.16951  0.60678  0.00787  1.0000
  Mo  Mo21      1.0  0.06612  0.84554  0.09235  1.0000
  Mo  Mo22      1.0  0.93388  0.34554  0.90765  1.0000
  Mo  Mo23      1.0  0.11646  0.17789  0.14334  1.0000
  Mo  Mo24      1.0  0.88354  0.67789  0.85666  1.0000
  O   O1        1.0  0.28990  0.95380  0.90990  1.0000
  O   O2        1.0  0.71010  0.45380  0.09010  1.0000
  O   O3        1.0  0.49490  0.10710  0.32380  1.0000
  O   O4        1.0  0.50510  0.60710  0.67620  1.0000
  O   O5        1.0  0.96720  0.10370  0.91110  1.0000
  O   O6        1.0  0.03280  0.60370  0.08890  1.0000
  O   O7        1.0  0.91240  0.07300  0.27460  1.0000
  O   O8        1.0  0.08760  0.57300  0.72540  1.0000
  O   O9        1.0  0.94880  0.95210  0.89050  1.0000
  O   O10       1.0  0.05120  0.45210  0.10950  1.0000
  O   O11       1.0  0.02710  0.84560  0.22460  1.0000
  O   O12       1.0  0.97290  0.34560  0.77540  1.0000
  O   O13       1.0  0.89520  0.94980  0.25920  1.0000
  O   O14       1.0  0.10480  0.44980  0.74080  1.0000
  O   O15       1.0  0.91680  0.88310  0.03690  1.0000
  O   O16       1.0  0.08320  0.38310  0.96310  1.0000
  O   O17       1.0  0.75400  0.08780  0.10060  1.0000
  O   O18       1.0  0.24600  0.58780  0.89940  1.0000
  O   O19       1.0  0.94600  0.01870  0.07960  1.0000
  O   O20       1.0  0.05400  0.51870  0.92040  1.0000
  O   O21       1.0  0.16660  0.15260  0.01850  1.0000
  O   O22       1.0  0.83340  0.65260  0.98150  1.0000
  O   O23       1.0  0.05770  0.11040  0.45810  1.0000
  O   O24       1.0  0.94230  0.61040  0.54190  1.0000
  O   O25       1.0  0.14780  0.01700  0.01620  1.0000
  O   O26       1.0  0.85220  0.51700  0.98380  1.0000
  O   O27       1.0  0.51590  0.00800  0.98870  1.0000
  O   O28       1.0  0.48410  0.50800  0.01130  1.0000
  O   O29       1.0  0.13580  0.06700  0.18170  1.0000
  O   O30       1.0  0.86420  0.56700  0.81830  1.0000
  O   O31       1.0  0.30730  0.07880  0.92660  1.0000
  O   O32       1.0  0.69270  0.57880  0.07340  1.0000
  O   O33       1.0  0.09880  0.90300  0.76620  1.0000
  O   O34       1.0  0.90120  0.40300  0.23380  1.0000
  O   O35       1.0  0.01930  0.88180  0.42290  1.0000
  O   O36       1.0  0.98070  0.38180  0.57710  1.0000
  O   O37       1.0  0.25860  0.09220  0.36150  1.0000
  O   O38       1.0  0.74140  0.59220  0.63850  1.0000
  O   O39       1.0  0.35560  0.99480  0.27640  1.0000
  O   O40       1.0  0.64440  0.49480  0.72360  1.0000
  O   O41       1.0  0.45970  0.87670  0.28920  1.0000
  O   O42       1.0  0.54030  0.37670  0.71080  1.0000
  O   O43       1.0  0.38740  0.06280  0.12790  1.0000
  O   O44       1.0  0.61260  0.56280  0.87210  1.0000
  O   O45       1.0  0.73800  0.96200  0.08120  1.0000
  O   O46       1.0  0.26200  0.46200  0.91880  1.0000
  O   O47       1.0  0.73810  0.16370  0.93260  1.0000
  O   O48       1.0  0.26190  0.66370  0.06740  1.0000
  O   O49       1.0  0.11250  0.02810  0.81890  1.0000
  O   O50       1.0  0.88750  0.52810  0.18110  1.0000
  O   O51       1.0  0.13940  0.88120  0.97940  1.0000
  O   O52       1.0  0.86060  0.38120  0.02060  1.0000
  O   O53       1.0  0.76890  0.03320  0.92270  1.0000
  O   O54       1.0  0.23110  0.53320  0.07730  1.0000
  Cu  Cu1       1.0  0.06502  0.84662  0.60112  1.0000
  Cu  Cu2       1.0  0.93498  0.34662  0.39888  1.0000
  Cu  Cu3       1.0  0.09954  0.18302  0.62853  1.0000
  Cu  Cu4       1.0  0.90046  0.68302  0.37147  1.0000
  O   O55       1.0  0.22660  0.89790  0.33250  1.0000
  O   O56       1.0  0.77340  0.39790  0.66750  1.0000
  O   O57       1.0  0.04460  0.76950  0.06260  1.0000
  O   O58       1.0  0.95540  0.26950  0.93740  1.0000
  O   O59       1.0  0.09430  0.00050  0.35810  1.0000
  O   O60       1.0  0.90570  0.50050  0.64190  1.0000
  O   O61       1.0  0.11690  0.94980  0.16310  1.0000
  O   O62       1.0  0.88310  0.44980  0.83690  1.0000
  O   O63       1.0  0.13500  0.15880  0.80820  1.0000
  O   O64       1.0  0.86500  0.65880  0.19180  1.0000
  O   O65       1.0  0.11550  0.25660  0.13240  1.0000
  O   O66       1.0  0.88450  0.75660  0.86760  1.0000
  O   O67       1.0  0.70020  0.90630  0.89160  1.0000
  O   O68       1.0  0.29980  0.40630  0.10840  1.0000
  O   O69       1.0  0.07990  0.16730  0.27610  1.0000
  O   O70       1.0  0.92010  0.66730  0.72390  1.0000
  O   O71       1.0  0.95630  0.15540  0.08130  1.0000
  O   O72       1.0  0.04370  0.65540  0.91870  1.0000
  O   O73       1.0  0.24190  0.84280  0.15680  1.0000
  O   O74       1.0  0.75810  0.34280  0.84320  1.0000
  O   O75       1.0  0.36150  0.93850  0.10080  1.0000
  O   O76       1.0  0.63850  0.43850  0.89920  1.0000
  O   O77       1.0  0.29040  0.16290  0.20410  1.0000
  O   O78       1.0  0.70960  0.66290  0.79590  1.0000
  Cu  Cu5       1.0  0.32144  0.86148  0.01091  1.0000
  Cu  Cu6       1.0  0.67856  0.36148  0.98909  1.0000
  N   N1        1.0  0.88900  0.83860  0.59570  1.0000
  N   N2        1.0  0.11100  0.33860  0.40430  1.0000
  N   N3        1.0  0.92400  0.18730  0.62150  1.0000
  N   N4        1.0  0.07600  0.68730  0.37850  1.0000
  O   O79       1.0  0.67430  0.01550  0.25500  1.0000
  O   O80       1.0  0.32570  0.51550  0.74500  1.0000
  N   N5        1.0  0.27580  0.18630  0.62890  1.0000
  N   N6        1.0  0.72420  0.68630  0.37110  1.0000
  N   N7        1.0  0.24030  0.84230  0.60500  1.0000
  N   N8        1.0  0.75970  0.34230  0.39500  1.0000
  C   C1        1.0  0.84030  0.16800  0.54190  1.0000
  C   C2        1.0  0.15970  0.66800  0.45810  1.0000
  H   H1        1.0  0.86900  0.15440  0.48470  1.0000
  H   H2        1.0  0.13100  0.65440  0.51530  1.0000
  C   C3        1.0  0.49840  0.83760  0.60110  1.0000
  C   C4        1.0  0.50160  0.33760  0.39890  1.0000
  C   C5        1.0  0.66750  0.18880  0.62370  1.0000
  C   C6        1.0  0.33250  0.68880  0.37630  1.0000
  C   C7        1.0  0.32590  0.86020  0.68680  1.0000
  C   C8        1.0  0.67410  0.36020  0.31320  1.0000
  H   H3        1.0  0.29840  0.87480  0.74410  1.0000
  H   H4        1.0  0.70160  0.37480  0.25590  1.0000
  C   C9        1.0  0.87850  0.20940  0.70140  1.0000
  C   C10       1.0  0.12150  0.70940  0.29860  1.0000
  H   H5        1.0  0.93450  0.22360  0.75690  1.0000
  H   H6        1.0  0.06550  0.72360  0.24310  1.0000
  C   C11       1.0  0.28380  0.82370  0.52340  1.0000
  C   C12       1.0  0.71620  0.32370  0.47660  1.0000
  H   H7        1.0  0.22630  0.81160  0.46730  1.0000
  H   H8        1.0  0.77370  0.31160  0.53270  1.0000
  C   C13       1.0  0.75320  0.21200  0.70530  1.0000
  C   C14       1.0  0.24680  0.71200  0.29470  1.0000
  H   H9        1.0  0.72620  0.22900  0.76120  1.0000
  H   H10       1.0  0.27380  0.72900  0.23880  1.0000
  N   N9        1.0  0.49650  0.83140  0.03750  1.0000
  N   N10       1.0  0.50350  0.33140  0.96250  1.0000
  C   C15       1.0  0.44300  0.18200  0.53720  1.0000
  C   C16       1.0  0.55700  0.68200  0.46280  1.0000
  H   H11       1.0  0.46870  0.17810  0.47540  1.0000
  H   H12       1.0  0.53130  0.67810  0.52460  1.0000
  C   C17       1.0  0.40820  0.82120  0.51600  1.0000
  C   C18       1.0  0.59180  0.32120  0.48400  1.0000
  H   H13       1.0  0.43230  0.80890  0.45610  1.0000
  H   H14       1.0  0.56770  0.30890  0.54390  1.0000
  C   C19       1.0  0.53150  0.18840  0.62650  1.0000
  C   C20       1.0  0.46850  0.68840  0.37350  1.0000
  C   C21       1.0  0.71230  0.16750  0.54090  1.0000
  C   C22       1.0  0.28770  0.66750  0.45910  1.0000
  H   H15       1.0  0.65810  0.15290  0.48460  1.0000
  H   H16       1.0  0.34190  0.65290  0.51540  1.0000
  C   C23       1.0  0.45320  0.85740  0.68660  1.0000
  C   C24       1.0  0.54680  0.35740  0.31340  1.0000
  H   H17       1.0  0.50880  0.86880  0.74410  1.0000
  H   H18       1.0  0.49120  0.36880  0.25590  1.0000
  C   C25       1.0  0.31860  0.18170  0.54220  1.0000
  C   C26       1.0  0.68140  0.68170  0.45780  1.0000
  H   H19       1.0  0.26160  0.17800  0.48260  1.0000
  H   H20       1.0  0.73840  0.67800  0.51740  1.0000
  C   C27       1.0  0.67910  0.83800  0.50930  1.0000
  C   C28       1.0  0.32090  0.33800  0.49070  1.0000
  H   H21       1.0  0.62430  0.83780  0.44810  1.0000
  H   H22       1.0  0.37570  0.33780  0.55190  1.0000
  N   N11       1.0  0.30240  0.78870  0.91510  1.0000
  N   N12       1.0  0.69760  0.28870  0.08490  1.0000
  C   C29       1.0  0.35990  0.19350  0.71300  1.0000
  C   C30       1.0  0.64010  0.69350  0.28700  1.0000
  H   H23       1.0  0.33160  0.19830  0.77370  1.0000
  H   H24       1.0  0.66840  0.69830  0.22630  1.0000
  C   C31       1.0  0.84330  0.83550  0.68360  1.0000
  C   C32       1.0  0.15670  0.33550  0.31640  1.0000
  H   H25       1.0  0.89980  0.83400  0.74380  1.0000
  H   H26       1.0  0.10020  0.33400  0.25620  1.0000
  C   C33       1.0  0.48520  0.19430  0.71470  1.0000
  C   C34       1.0  0.51480  0.69430  0.28530  1.0000
  H   H27       1.0  0.53950  0.19890  0.77560  1.0000
  H   H28       1.0  0.46050  0.69890  0.22440  1.0000
  C   C35       1.0  0.80460  0.83950  0.50970  1.0000
  C   C36       1.0  0.19540  0.33950  0.49030  1.0000
  H   H29       1.0  0.83250  0.84120  0.44850  1.0000
  H   H30       1.0  0.16750  0.34120  0.55150  1.0000
  C   C37       1.0  0.72760  0.77580  0.06870  1.0000
  C   C38       1.0  0.27240  0.27580  0.93130  1.0000
  H   H31       1.0  0.80540  0.75680  0.07910  1.0000
  H   H32       1.0  0.19460  0.25680  0.92090  1.0000
  C   C39       1.0  0.58700  0.85480  0.10760  1.0000
  C   C40       1.0  0.41300  0.35480  0.89240  1.0000
  H   H33       1.0  0.57120  0.88980  0.14470  1.0000
  H   H34       1.0  0.42880  0.38980  0.85530  1.0000
  C   C41       1.0  0.63290  0.83680  0.59780  1.0000
  C   C42       1.0  0.36710  0.33680  0.40220  1.0000
  C   C43       1.0  0.19760  0.77050  0.85240  1.0000
  C   C44       1.0  0.80240  0.27050  0.14760  1.0000
  H   H35       1.0  0.12220  0.78880  0.85870  1.0000
  H   H36       1.0  0.87780  0.28880  0.14130  1.0000
  C   C45       1.0  0.71960  0.83440  0.68840  1.0000
  C   C46       1.0  0.28040  0.33440  0.31160  1.0000
  H   H37       1.0  0.69320  0.83220  0.75010  1.0000
  H   H38       1.0  0.30680  0.33220  0.24990  1.0000
  C   C47       1.0  0.70580  0.82730  0.12600  1.0000
  C   C48       1.0  0.29420  0.32730  0.87400  1.0000
  H   H39       1.0  0.76810  0.84340  0.17540  1.0000
  H   H40       1.0  0.23190  0.34340  0.82460  1.0000
  C   C49       1.0  0.51830  0.78140  0.98390  1.0000
  C   C50       1.0  0.48170  0.28140  0.01610  1.0000
  C   C51       1.0  0.63300  0.75270  0.99570  1.0000
  C   C52       1.0  0.36700  0.25270  0.00430  1.0000
  H   H41       1.0  0.64650  0.71860  0.95570  1.0000
  H   H42       1.0  0.35350  0.21860  0.04430  1.0000
  C   C53       1.0  0.40880  0.75890  0.90830  1.0000
  C   C54       1.0  0.59120  0.25890  0.09170  1.0000
  C   C55       1.0  0.20040  0.72530  0.77930  1.0000
  C   C56       1.0  0.79960  0.22530  0.22070  1.0000
  H   H43       1.0  0.12810  0.71510  0.73460  1.0000
  H   H44       1.0  0.87190  0.21510  0.26540  1.0000
  C   C57       1.0  0.30690  0.69600  0.77270  1.0000
  C   C58       1.0  0.69310  0.19600  0.22730  1.0000
  H   H45       1.0  0.30810  0.66440  0.72530  1.0000
  H   H46       1.0  0.69190  0.16440  0.27470  1.0000
  C   C59       1.0  0.41810  0.71350  0.83820  1.0000
  C   C60       1.0  0.58190  0.21350  0.16180  1.0000
  H   H47       1.0  0.49380  0.69480  0.83370  1.0000
  H   H48       1.0  0.50620  0.19480  0.16630  1.0000
