data_image0
_chemical_formula_structural       Zn8O24N8C20O12C12O4C8H8O4C4O4C4H40
_chemical_formula_sum              "Zn8 O48 N8 C48 H48"
_cell_length_a       12.7369
_cell_length_b       11.329
_cell_length_c       16.4424
_cell_angle_alpha    90
_cell_angle_beta     90
_cell_angle_gamma    90

_space_group_name_H-M_alt    "P 1"
_space_group_IT_number       1

loop_
  _space_group_symop_operation_xyz
  'x, y, z'

loop_
  _atom_site_type_symbol
  _atom_site_label
  _atom_site_symmetry_multiplicity
  _atom_site_fract_x
  _atom_site_fract_y
  _atom_site_fract_z
  _atom_site_occupancy
  Zn  Zn1       1.0  0.01478  0.73099  0.12172  1.0000
  Zn  Zn2       1.0  0.98522  0.26901  0.62172  1.0000
  Zn  Zn3       1.0  0.51478  0.76901  0.12172  1.0000
  Zn  Zn4       1.0  0.48522  0.23099  0.62172  1.0000
  Zn  Zn5       1.0  0.76209  0.73849  0.99075  1.0000
  Zn  Zn6       1.0  0.23791  0.26151  0.49075  1.0000
  Zn  Zn7       1.0  0.26209  0.76151  0.99075  1.0000
  Zn  Zn8       1.0  0.73791  0.23849  0.49075  1.0000
  O   O1        1.0  0.83238  0.74150  0.09591  1.0000
  O   O2        1.0  0.16762  0.25850  0.59591  1.0000
  O   O3        1.0  0.33238  0.75850  0.09591  1.0000
  O   O4        1.0  0.66762  0.24150  0.59591  1.0000
  O   O5        1.0  0.01580  0.90430  0.13537  1.0000
  O   O6        1.0  0.98420  0.09570  0.63537  1.0000
  O   O7        1.0  0.51580  0.59570  0.13537  1.0000
  O   O8        1.0  0.48420  0.40430  0.63537  1.0000
  O   O9        1.0  0.01630  0.55776  0.13907  1.0000
  O   O10       1.0  0.98370  0.44224  0.63907  1.0000
  O   O11       1.0  0.51630  0.94224  0.13907  1.0000
  O   O12       1.0  0.48370  0.05776  0.63907  1.0000
  O   O13       1.0  0.08223  0.73186  0.01539  1.0000
  O   O14       1.0  0.91777  0.26814  0.51539  1.0000
  O   O15       1.0  0.58223  0.76814  0.01539  1.0000
  O   O16       1.0  0.41777  0.23186  0.51539  1.0000
  O   O17       1.0  0.24046  0.93515  0.98892  1.0000
  O   O18       1.0  0.75954  0.06485  0.48892  1.0000
  O   O19       1.0  0.74046  0.56485  0.98892  1.0000
  O   O20       1.0  0.25954  0.43515  0.48892  1.0000
  O   O21       1.0  0.28570  0.59285  0.96119  1.0000
  O   O22       1.0  0.71430  0.40715  0.46119  1.0000
  O   O23       1.0  0.78570  0.90715  0.96119  1.0000
  O   O24       1.0  0.21430  0.09285  0.46119  1.0000
  N   N1        1.0  0.20500  0.77115  0.87511  1.0000
  N   N2        1.0  0.79500  0.22885  0.37511  1.0000
  N   N3        1.0  0.70500  0.72885  0.87511  1.0000
  N   N4        1.0  0.29500  0.27115  0.37511  1.0000
  N   N5        1.0  0.96020  0.73130  0.23807  1.0000
  N   N6        1.0  0.03980  0.26870  0.73807  1.0000
  N   N7        1.0  0.46020  0.76870  0.23807  1.0000
  N   N8        1.0  0.53980  0.23130  0.73807  1.0000
  C   C1        1.0  0.00910  0.62620  0.27636  1.0000
  C   C2        1.0  0.99090  0.37380  0.77636  1.0000
  C   C3        1.0  0.50910  0.87380  0.27636  1.0000
  C   C4        1.0  0.49090  0.12620  0.77636  1.0000
  C   C5        1.0  0.99740  0.84390  0.27345  1.0000
  C   C6        1.0  0.00260  0.15610  0.77345  1.0000
  C   C7        1.0  0.49740  0.65610  0.27345  1.0000
  C   C8        1.0  0.50260  0.34390  0.77345  1.0000
  C   C9        1.0  0.00590  0.93880  0.20940  1.0000
  C   C10       1.0  0.99410  0.06120  0.70940  1.0000
  C   C11       1.0  0.50590  0.56120  0.20940  1.0000
  C   C12       1.0  0.49410  0.43880  0.70940  1.0000
  C   C13       1.0  0.22730  0.97710  0.91781  1.0000
  C   C14       1.0  0.77270  0.02290  0.41781  1.0000
  C   C15       1.0  0.72730  0.52290  0.91781  1.0000
  C   C16       1.0  0.27270  0.47710  0.41781  1.0000
  C   C17       1.0  0.01710  0.52680  0.21405  1.0000
  C   C18       1.0  0.98290  0.47320  0.71405  1.0000
  C   C19       1.0  0.51710  0.97320  0.21405  1.0000
  C   C20       1.0  0.48290  0.02680  0.71405  1.0000
  O   O25       1.0  0.00750  0.04310  0.23104  1.0000
  O   O26       1.0  0.99250  0.95690  0.73104  1.0000
  O   O27       1.0  0.50750  0.45690  0.23104  1.0000
  O   O28       1.0  0.49250  0.54310  0.73104  1.0000
  O   O29       1.0  0.02730  0.42440  0.23805  1.0000
  O   O30       1.0  0.97270  0.57560  0.73805  1.0000
  O   O31       1.0  0.52730  0.07560  0.23805  1.0000
  O   O32       1.0  0.47270  0.92440  0.73805  1.0000
  O   O33       1.0  0.21570  0.08430  0.90333  1.0000
  O   O34       1.0  0.78430  0.91570  0.40333  1.0000
  O   O35       1.0  0.71570  0.41570  0.90333  1.0000
  O   O36       1.0  0.28430  0.58430  0.40333  1.0000
  C   C21       1.0  0.23240  0.89100  0.84703  1.0000
  C   C22       1.0  0.76760  0.10900  0.34703  1.0000
  C   C23       1.0  0.73240  0.60900  0.84703  1.0000
  C   C24       1.0  0.26760  0.39100  0.34703  1.0000
  C   C25       1.0  0.26110  0.67820  0.82999  1.0000
  C   C26       1.0  0.73890  0.32180  0.32999  1.0000
  C   C27       1.0  0.76110  0.82180  0.82999  1.0000
  C   C28       1.0  0.23890  0.17820  0.32999  1.0000
  C   C29       1.0  0.27760  0.57140  0.88423  1.0000
  C   C30       1.0  0.72240  0.42860  0.38423  1.0000
  C   C31       1.0  0.77760  0.92860  0.88423  1.0000
  C   C32       1.0  0.22240  0.07140  0.38423  1.0000
  O   O37       1.0  0.28540  0.47210  0.85459  1.0000
  O   O38       1.0  0.71460  0.52790  0.35459  1.0000
  O   O39       1.0  0.78540  0.02790  0.85459  1.0000
  O   O40       1.0  0.21460  0.97210  0.35459  1.0000
  C   C33       1.0  0.78350  0.75010  0.16460  1.0000
  C   C34       1.0  0.21650  0.24990  0.66460  1.0000
  C   C35       1.0  0.28350  0.74990  0.16460  1.0000
  C   C36       1.0  0.71650  0.25010  0.66460  1.0000
  C   C37       1.0  0.84430  0.72050  0.23994  1.0000
  C   C38       1.0  0.15570  0.27950  0.73994  1.0000
  C   C39       1.0  0.34430  0.77950  0.23994  1.0000
  C   C40       1.0  0.65570  0.22050  0.73994  1.0000
  H   H1        1.0  0.81860  0.77060  0.28340  1.0000
  H   H2        1.0  0.18140  0.22940  0.78340  1.0000
  H   H3        1.0  0.31860  0.72940  0.28340  1.0000
  H   H4        1.0  0.68140  0.27060  0.78340  1.0000
  H   H5        1.0  0.82750  0.63980  0.25470  1.0000
  H   H6        1.0  0.17250  0.36020  0.75470  1.0000
  H   H7        1.0  0.32750  0.86020  0.25470  1.0000
  H   H8        1.0  0.67250  0.13980  0.75470  1.0000
  O   O41       1.0  0.69110  0.77330  0.17350  1.0000
  O   O42       1.0  0.30890  0.22670  0.67350  1.0000
  O   O43       1.0  0.19110  0.72670  0.17350  1.0000
  O   O44       1.0  0.80890  0.27330  0.67350  1.0000
  C   C41       1.0  0.03090  0.72590  0.94890  1.0000
  C   C42       1.0  0.96910  0.27410  0.44890  1.0000
  C   C43       1.0  0.53090  0.77410  0.94890  1.0000
  C   C44       1.0  0.46910  0.22590  0.44890  1.0000
  O   O45       1.0  0.93810  0.70320  0.94131  1.0000
  O   O46       1.0  0.06190  0.29680  0.44131  1.0000
  O   O47       1.0  0.43810  0.79680  0.94131  1.0000
  O   O48       1.0  0.56190  0.20320  0.44131  1.0000
  C   C45       1.0  0.09070  0.75250  0.87060  1.0000
  C   C46       1.0  0.90930  0.24750  0.37060  1.0000
  C   C47       1.0  0.59070  0.74750  0.87060  1.0000
  C   C48       1.0  0.40930  0.25250  0.37060  1.0000
  H   H9        1.0  0.08900  0.68200  0.83800  1.0000
  H   H10       1.0  0.91100  0.31800  0.33800  1.0000
  H   H11       1.0  0.58900  0.81800  0.83800  1.0000
  H   H12       1.0  0.41100  0.18200  0.33800  1.0000
  H   H13       1.0  0.06200  0.78800  0.84000  1.0000
  H   H14       1.0  0.93800  0.21200  0.34000  1.0000
  H   H15       1.0  0.56200  0.71200  0.84000  1.0000
  H   H16       1.0  0.43800  0.28800  0.34000  1.0000
  H   H17       1.0  0.33700  0.70800  0.81500  1.0000
  H   H18       1.0  0.66300  0.29200  0.31500  1.0000
  H   H19       1.0  0.83700  0.79200  0.81500  1.0000
  H   H20       1.0  0.16300  0.20800  0.31500  1.0000
  H   H21       1.0  0.23500  0.66200  0.77500  1.0000
  H   H22       1.0  0.76500  0.33800  0.27500  1.0000
  H   H23       1.0  0.73500  0.83800  0.77500  1.0000
  H   H24       1.0  0.26500  0.16200  0.27500  1.0000
  H   H25       1.0  0.31800  0.89400  0.82500  1.0000
  H   H26       1.0  0.68200  0.10600  0.32500  1.0000
  H   H27       1.0  0.81800  0.60600  0.82500  1.0000
  H   H28       1.0  0.18200  0.39400  0.32500  1.0000
  H   H29       1.0  0.17600  0.90800  0.82000  1.0000
  H   H30       1.0  0.82400  0.09200  0.32000  1.0000
  H   H31       1.0  0.67600  0.59200  0.82000  1.0000
  H   H32       1.0  0.32400  0.40800  0.32000  1.0000
  H   H33       1.0  0.96300  0.60000  0.32400  1.0000
  H   H34       1.0  0.03700  0.40000  0.82400  1.0000
  H   H35       1.0  0.46300  0.90000  0.32400  1.0000
  H   H36       1.0  0.53700  0.10000  0.82400  1.0000
  H   H37       1.0  0.08100  0.63600  0.29500  1.0000
  H   H38       1.0  0.91900  0.36400  0.79500  1.0000
  H   H39       1.0  0.58100  0.86400  0.29500  1.0000
  H   H40       1.0  0.41900  0.13600  0.79500  1.0000
  H   H41       1.0  0.96000  0.86000  0.31600  1.0000
  H   H42       1.0  0.04000  0.14000  0.81600  1.0000
  H   H43       1.0  0.46000  0.64000  0.31600  1.0000
  H   H44       1.0  0.54000  0.36000  0.81600  1.0000
  H   H45       1.0  0.06400  0.83200  0.29500  1.0000
  H   H46       1.0  0.93600  0.16800  0.79500  1.0000
  H   H47       1.0  0.56400  0.66800  0.29500  1.0000
  H   H48       1.0  0.43600  0.33200  0.79500  1.0000
