data_image0
_chemical_formula_structural       Ag144C4H12C4H12C4H4C4H8C4H8C4H12C4H4C4H12C4H12C4H12C4H8C4H4C4H12C4H12C4H4C4H8C4H12C4H4C4H4C4H4C8H4C4H4C4H12C4H8C4H4C4H12C4H12C4H4C4H8C4H12C4H4C4H4C4H4C4H4C4H4C8H12C4H4C4H8C4H12C4H4C4H4C4H4C4H4C4H4C8H12C4H8C4H4C4H12C4H4C4H4C4H4C4H4C8H4C4H12C4H8C4H4C4H12C4H12C4H4C4H8C4H12C8H4C4H4C4H4C4H4C4H4C4H12C4H8C4H4C4H12C4H4C4H4C4H4C4H4C8H4C4H4C8H4C4H4C4H4C4H4C4H12C4H8C4H4C4H12C4H12C4H4C4H8C4H12C8H4C4H4C4H4C4H4C4H4C4H4C4H4C8H4C4H4C4H4C4H8C4H4C4H12C8H4C4H4C4H4C4H4C4H4C4H12C4H4C4H8C4H12C8H4C4H4C4H4C4H4C4H4C4H12C4H4C4H8C4H12C4H12C4H8C4H4C4H12C4H12C4H4C4H8C4H12C8H4C4H4C4H4C4H4C4H4Mo20O220H4S120C8H4C4H4C4H4C4H4C4H4O12S4C4H12
_chemical_formula_sum              "Ag144 C604 H924 Mo20 O232 S124"
_cell_length_a       20.74
_cell_length_b       32.73
_cell_length_c       35.78
_cell_angle_alpha    90
_cell_angle_beta     93.105
_cell_angle_gamma    90

_space_group_name_H-M_alt    "P 1"
_space_group_IT_number       1

loop_
  _space_group_symop_operation_xyz
  'x, y, z'

loop_
  _atom_site_type_symbol
  _atom_site_label
  _atom_site_symmetry_multiplicity
  _atom_site_fract_x
  _atom_site_fract_y
  _atom_site_fract_z
  _atom_site_occupancy
  Ag  Ag1       1.0  0.16483  0.72112  0.19579  1.0000
  Ag  Ag2       1.0  0.33517  0.22112  0.30421  1.0000
  Ag  Ag3       1.0  0.83517  0.27888  0.80421  1.0000
  Ag  Ag4       1.0  0.66483  0.77888  0.69579  1.0000
  Ag  Ag5       1.0  0.02586  0.73113  0.15685  1.0000
  Ag  Ag6       1.0  0.47414  0.23113  0.34315  1.0000
  Ag  Ag7       1.0  0.97414  0.26887  0.84315  1.0000
  Ag  Ag8       1.0  0.52586  0.76887  0.65685  1.0000
  Ag  Ag9       1.0  0.11728  0.80719  0.17172  1.0000
  Ag  Ag10      1.0  0.38272  0.30719  0.32828  1.0000
  Ag  Ag11      1.0  0.88272  0.19281  0.82828  1.0000
  Ag  Ag12      1.0  0.61728  0.69281  0.67172  1.0000
  Ag  Ag13      1.0  0.31175  0.74995  0.15198  1.0000
  Ag  Ag14      1.0  0.18825  0.24995  0.34802  1.0000
  Ag  Ag15      1.0  0.68825  0.25005  0.84802  1.0000
  Ag  Ag16      1.0  0.81175  0.75005  0.65198  1.0000
  Ag  Ag17      1.0  0.25619  0.83283  0.13571  1.0000
  Ag  Ag18      1.0  0.24381  0.33283  0.36429  1.0000
  Ag  Ag19      1.0  0.74381  0.16717  0.86429  1.0000
  Ag  Ag20      1.0  0.75619  0.66717  0.63571  1.0000
  Ag  Ag21      1.0  0.08305  0.84429  0.08673  1.0000
  Ag  Ag22      1.0  0.41695  0.34429  0.41327  1.0000
  Ag  Ag23      1.0  0.91695  0.15571  0.91327  1.0000
  Ag  Ag24      1.0  0.58305  0.65571  0.58673  1.0000
  Ag  Ag25      1.0  0.99990  0.77110  0.06802  1.0000
  Ag  Ag26      1.0  0.50010  0.27110  0.43198  1.0000
  Ag  Ag27      1.0  0.00010  0.22890  0.93198  1.0000
  Ag  Ag28      1.0  0.49990  0.72890  0.56802  1.0000
  Ag  Ag29      1.0  0.07233  0.66063  0.08916  1.0000
  Ag  Ag30      1.0  0.42767  0.16063  0.41084  1.0000
  Ag  Ag31      1.0  0.92767  0.33937  0.91084  1.0000
  Ag  Ag32      1.0  0.57233  0.83937  0.58916  1.0000
  Ag  Ag33      1.0  0.20260  0.65133  0.13036  1.0000
  Ag  Ag34      1.0  0.29740  0.15133  0.36964  1.0000
  Ag  Ag35      1.0  0.79740  0.34867  0.86964  1.0000
  Ag  Ag36      1.0  0.70260  0.84867  0.63036  1.0000
  Ag  Ag37      1.0  0.17819  0.61650  0.05259  1.0000
  Ag  Ag38      1.0  0.32181  0.11650  0.44741  1.0000
  Ag  Ag39      1.0  0.82181  0.38350  0.94741  1.0000
  Ag  Ag40      1.0  0.67819  0.88350  0.55259  1.0000
  Ag  Ag41      1.0  0.37001  0.67077  0.11371  1.0000
  Ag  Ag42      1.0  0.12999  0.17077  0.38629  1.0000
  Ag  Ag43      1.0  0.62999  0.32923  0.88629  1.0000
  Ag  Ag44      1.0  0.87001  0.82923  0.61371  1.0000
  Ag  Ag45      1.0  0.38175  0.81018  0.10328  1.0000
  Ag  Ag46      1.0  0.11825  0.31018  0.39672  1.0000
  Ag  Ag47      1.0  0.61825  0.18982  0.89672  1.0000
  Ag  Ag48      1.0  0.88175  0.68982  0.60328  1.0000
  Ag  Ag49      1.0  0.20622  0.89925  0.06418  1.0000
  Ag  Ag50      1.0  0.29378  0.39925  0.43582  1.0000
  Ag  Ag51      1.0  0.79378  0.10075  0.93582  1.0000
  Ag  Ag52      1.0  0.70622  0.60075  0.56418  1.0000
  Ag  Ag53      1.0  0.03600  0.82978  0.00740  1.0000
  Ag  Ag54      1.0  0.46400  0.32978  0.49260  1.0000
  Ag  Ag55      1.0  0.96400  0.17022  0.99260  1.0000
  Ag  Ag56      1.0  0.53600  0.67022  0.50740  1.0000
  Ag  Ag57      1.0  0.99577  0.68437  0.01018  1.0000
  Ag  Ag58      1.0  0.50423  0.18437  0.48982  1.0000
  Ag  Ag59      1.0  0.00423  0.31563  0.98982  1.0000
  Ag  Ag60      1.0  0.49577  0.81563  0.51018  1.0000
  Ag  Ag61      1.0  0.09794  0.60875  0.96068  1.0000
  Ag  Ag62      1.0  0.40206  0.10875  0.53932  1.0000
  Ag  Ag63      1.0  0.90206  0.39125  0.03932  1.0000
  Ag  Ag64      1.0  0.59794  0.89125  0.46068  1.0000
  Ag  Ag65      1.0  0.32035  0.62887  0.02536  1.0000
  Ag  Ag66      1.0  0.17965  0.12887  0.47464  1.0000
  Ag  Ag67      1.0  0.67965  0.37113  0.97464  1.0000
  Ag  Ag68      1.0  0.82035  0.87113  0.52536  1.0000
  Ag  Ag69      1.0  0.48802  0.73738  0.06863  1.0000
  Ag  Ag70      1.0  0.01198  0.23738  0.43137  1.0000
  Ag  Ag71      1.0  0.51198  0.26262  0.93137  1.0000
  Ag  Ag72      1.0  0.98802  0.76262  0.56863  1.0000
  Ag  Ag73      1.0  0.35212  0.86119  0.02579  1.0000
  Ag  Ag74      1.0  0.14788  0.36119  0.47421  1.0000
  Ag  Ag75      1.0  0.64788  0.13881  0.97421  1.0000
  Ag  Ag76      1.0  0.85212  0.63881  0.52579  1.0000
  Ag  Ag77      1.0  0.13188  0.90561  0.96609  1.0000
  Ag  Ag78      1.0  0.36812  0.40561  0.53391  1.0000
  Ag  Ag79      1.0  0.86812  0.09439  0.03391  1.0000
  Ag  Ag80      1.0  0.63188  0.59439  0.46609  1.0000
  Ag  Ag81      1.0  0.04409  0.76170  0.94296  1.0000
  Ag  Ag82      1.0  0.45591  0.26170  0.55704  1.0000
  Ag  Ag83      1.0  0.95591  0.23830  0.05704  1.0000
  Ag  Ag84      1.0  0.54409  0.73830  0.44296  1.0000
  Ag  Ag85      1.0  0.10324  0.69018  0.89311  1.0000
  Ag  Ag86      1.0  0.39676  0.19018  0.60689  1.0000
  Ag  Ag87      1.0  0.89676  0.30982  0.10689  1.0000
  Ag  Ag88      1.0  0.60324  0.80982  0.39311  1.0000
  Ag  Ag89      1.0  0.22852  0.66608  0.86208  1.0000
  Ag  Ag90      1.0  0.27148  0.16608  0.63792  1.0000
  Ag  Ag91      1.0  0.77148  0.33392  0.13792  1.0000
  Ag  Ag92      1.0  0.72852  0.83392  0.36208  1.0000
  Ag  Ag93      1.0  0.26899  0.60087  0.92627  1.0000
  Ag  Ag94      1.0  0.23101  0.10087  0.57373  1.0000
  Ag  Ag95      1.0  0.73101  0.39913  0.07373  1.0000
  Ag  Ag96      1.0  0.76899  0.89913  0.42627  1.0000
  Ag  Ag97      1.0  0.44660  0.67435  0.99252  1.0000
  Ag  Ag98      1.0  0.05340  0.17435  0.50748  1.0000
  Ag  Ag99      1.0  0.55340  0.32565  0.00748  1.0000
  Ag  Ag100     1.0  0.94660  0.82565  0.49252  1.0000
  Ag  Ag101     1.0  0.47795  0.73821  0.93387  1.0000
  Ag  Ag102     1.0  0.02205  0.23821  0.56613  1.0000
  Ag  Ag103     1.0  0.52205  0.26179  0.06613  1.0000
  Ag  Ag104     1.0  0.97795  0.76179  0.43387  1.0000
  Ag  Ag105     1.0  0.49451  0.81273  0.98996  1.0000
  Ag  Ag106     1.0  0.00549  0.31273  0.51004  1.0000
  Ag  Ag107     1.0  0.50549  0.18727  0.01004  1.0000
  Ag  Ag108     1.0  0.99451  0.68727  0.48996  1.0000
  Ag  Ag109     1.0  0.40312  0.66034  0.91294  1.0000
  Ag  Ag110     1.0  0.09688  0.16034  0.58706  1.0000
  Ag  Ag111     1.0  0.59688  0.33966  0.08706  1.0000
  Ag  Ag112     1.0  0.90312  0.83966  0.41294  1.0000
  Ag  Ag113     1.0  0.36767  0.69008  0.82933  1.0000
  Ag  Ag114     1.0  0.13233  0.19008  0.67067  1.0000
  Ag  Ag115     1.0  0.63233  0.30992  0.17067  1.0000
  Ag  Ag116     1.0  0.86767  0.80992  0.32933  1.0000
  Ag  Ag117     1.0  0.44320  0.77175  0.84033  1.0000
  Ag  Ag118     1.0  0.05680  0.27175  0.65967  1.0000
  Ag  Ag119     1.0  0.55680  0.22825  0.15967  1.0000
  Ag  Ag120     1.0  0.94320  0.72825  0.34033  1.0000
  Ag  Ag121     1.0  0.40287  0.84217  0.90349  1.0000
  Ag  Ag122     1.0  0.09713  0.34217  0.59651  1.0000
  Ag  Ag123     1.0  0.59713  0.15783  0.09651  1.0000
  Ag  Ag124     1.0  0.90287  0.65783  0.40349  1.0000
  Ag  Ag125     1.0  0.29995  0.88565  0.94421  1.0000
  Ag  Ag126     1.0  0.20005  0.38565  0.55579  1.0000
  Ag  Ag127     1.0  0.70005  0.11435  0.05579  1.0000
  Ag  Ag128     1.0  0.79995  0.61435  0.44421  1.0000
  Ag  Ag129     1.0  0.26671  0.84881  0.86787  1.0000
  Ag  Ag130     1.0  0.23329  0.34881  0.63213  1.0000
  Ag  Ag131     1.0  0.73329  0.15119  0.13213  1.0000
  Ag  Ag132     1.0  0.76671  0.65119  0.36787  1.0000
  Ag  Ag133     1.0  0.16956  0.74623  0.83927  1.0000
  Ag  Ag134     1.0  0.33044  0.24623  0.66073  1.0000
  Ag  Ag135     1.0  0.83044  0.25377  0.16073  1.0000
  Ag  Ag136     1.0  0.66956  0.75377  0.33927  1.0000
  Ag  Ag137     1.0  0.31237  0.77779  0.79713  1.0000
  Ag  Ag138     1.0  0.18763  0.27779  0.70287  1.0000
  Ag  Ag139     1.0  0.68763  0.22221  0.20287  1.0000
  Ag  Ag140     1.0  0.81237  0.72221  0.29713  1.0000
  Ag  Ag141     1.0  0.11550  0.83793  0.88158  1.0000
  Ag  Ag142     1.0  0.38450  0.33793  0.61842  1.0000
  Ag  Ag143     1.0  0.88450  0.16207  0.11842  1.0000
  Ag  Ag144     1.0  0.61550  0.66207  0.38158  1.0000
  C   C1        1.0  0.43600  0.94710  0.81610  1.0000
  C   C2        1.0  0.06400  0.44710  0.68390  1.0000
  C   C3        1.0  0.56400  0.05290  0.18390  1.0000
  C   C4        1.0  0.93600  0.55290  0.31610  1.0000
  H   H1        1.0  0.41150  0.94850  0.79200  1.0000
  H   H2        1.0  0.08850  0.44850  0.70800  1.0000
  H   H3        1.0  0.58850  0.05150  0.20800  1.0000
  H   H4        1.0  0.91150  0.55150  0.29200  1.0000
  H   H5        1.0  0.48200  0.95180  0.81240  1.0000
  H   H6        1.0  0.01800  0.45180  0.68760  1.0000
  H   H7        1.0  0.51800  0.04820  0.18760  1.0000
  H   H8        1.0  0.98200  0.54820  0.31240  1.0000
  H   H9        1.0  0.42030  0.96800  0.83300  1.0000
  H   H10       1.0  0.07970  0.46800  0.66700  1.0000
  H   H11       1.0  0.57970  0.03200  0.16700  1.0000
  H   H12       1.0  0.92030  0.53200  0.33300  1.0000
  C   C5        1.0  0.42300  0.86920  0.77620  1.0000
  C   C6        1.0  0.07700  0.36920  0.72380  1.0000
  C   C7        1.0  0.57700  0.13080  0.22380  1.0000
  C   C8        1.0  0.92300  0.63080  0.27620  1.0000
  H   H13       1.0  0.41260  0.88890  0.75610  1.0000
  H   H14       1.0  0.08740  0.38890  0.74390  1.0000
  H   H15       1.0  0.58740  0.11110  0.24390  1.0000
  H   H16       1.0  0.91260  0.61110  0.25610  1.0000
  H   H17       1.0  0.41410  0.84150  0.76710  1.0000
  H   H18       1.0  0.08590  0.34150  0.73290  1.0000
  H   H19       1.0  0.58590  0.15850  0.23290  1.0000
  H   H20       1.0  0.91410  0.65850  0.26710  1.0000
  H   H21       1.0  0.46800  0.87160  0.78470  1.0000
  H   H22       1.0  0.03200  0.37160  0.71530  1.0000
  H   H23       1.0  0.53200  0.12840  0.21530  1.0000
  H   H24       1.0  0.96800  0.62840  0.28470  1.0000
  C   C9        1.0  0.37920  0.87840  0.80890  1.0000
  C   C10       1.0  0.12080  0.37840  0.69110  1.0000
  C   C11       1.0  0.62080  0.12160  0.19110  1.0000
  C   C12       1.0  0.87920  0.62160  0.30890  1.0000
  H   H25       1.0  0.33750  0.89240  0.80160  1.0000
  H   H26       1.0  0.16250  0.39240  0.69840  1.0000
  H   H27       1.0  0.66250  0.10760  0.19840  1.0000
  H   H28       1.0  0.83750  0.60760  0.30160  1.0000
  C   C13       1.0  0.42700  0.90410  0.83370  1.0000
  C   C14       1.0  0.07300  0.40410  0.66630  1.0000
  C   C15       1.0  0.57300  0.09590  0.16630  1.0000
  C   C16       1.0  0.92700  0.59590  0.33370  1.0000
  H   H29       1.0  0.46960  0.89000  0.83600  1.0000
  H   H30       1.0  0.03040  0.39000  0.66400  1.0000
  H   H31       1.0  0.53040  0.11000  0.16400  1.0000
  H   H32       1.0  0.96960  0.61000  0.33600  1.0000
  H   H33       1.0  0.41110  0.90700  0.85900  1.0000
  H   H34       1.0  0.08890  0.40700  0.64100  1.0000
  H   H35       1.0  0.58890  0.09300  0.14100  1.0000
  H   H36       1.0  0.91110  0.59300  0.35900  1.0000
  C   C17       1.0  0.13530  0.96120  0.87870  1.0000
  C   C18       1.0  0.36470  0.46120  0.62130  1.0000
  C   C19       1.0  0.86470  0.03880  0.12130  1.0000
  C   C20       1.0  0.63530  0.53880  0.37870  1.0000
  H   H37       1.0  0.14720  0.98480  0.89500  1.0000
  H   H38       1.0  0.35280  0.48480  0.60500  1.0000
  H   H39       1.0  0.85280  0.01520  0.10500  1.0000
  H   H40       1.0  0.64720  0.51520  0.39500  1.0000
  H   H41       1.0  0.09980  0.94570  0.88950  1.0000
  H   H42       1.0  0.40020  0.44570  0.61050  1.0000
  H   H43       1.0  0.90020  0.05430  0.11050  1.0000
  H   H44       1.0  0.59980  0.55430  0.38950  1.0000
  C   C21       1.0  0.11800  0.97450  0.83780  1.0000
  C   C22       1.0  0.38200  0.47450  0.66220  1.0000
  C   C23       1.0  0.88200  0.02550  0.16220  1.0000
  C   C24       1.0  0.61800  0.52550  0.33780  1.0000
  H   H45       1.0  0.07370  0.98490  0.83590  1.0000
  H   H46       1.0  0.42630  0.48490  0.66410  1.0000
  H   H47       1.0  0.92630  0.01510  0.16410  1.0000
  H   H48       1.0  0.57370  0.51510  0.33590  1.0000
  H   H49       1.0  0.12180  0.95100  0.82110  1.0000
  H   H50       1.0  0.37820  0.45100  0.67890  1.0000
  H   H51       1.0  0.87820  0.04900  0.17890  1.0000
  H   H52       1.0  0.62180  0.54900  0.32110  1.0000
  H   H53       1.0  0.14790  0.99600  0.83060  1.0000
  H   H54       1.0  0.35210  0.49600  0.66940  1.0000
  H   H55       1.0  0.85210  0.00400  0.16940  1.0000
  H   H56       1.0  0.64790  0.50400  0.33060  1.0000
  C   C25       1.0  0.19400  0.93380  0.87190  1.0000
  C   C26       1.0  0.30600  0.43380  0.62810  1.0000
  C   C27       1.0  0.80600  0.06620  0.12810  1.0000
  C   C28       1.0  0.69400  0.56620  0.37190  1.0000
  H   H57       1.0  0.19140  0.92280  0.84570  1.0000
  H   H58       1.0  0.30860  0.42280  0.65430  1.0000
  H   H59       1.0  0.80860  0.07720  0.15430  1.0000
  H   H60       1.0  0.69140  0.57720  0.34570  1.0000
  C   C29       1.0  0.24880  0.96560  0.87700  1.0000
  C   C30       1.0  0.25120  0.46560  0.62300  1.0000
  C   C31       1.0  0.75120  0.03440  0.12300  1.0000
  C   C32       1.0  0.74880  0.53440  0.37700  1.0000
  H   H61       1.0  0.29040  0.95230  0.87350  1.0000
  H   H62       1.0  0.20960  0.45230  0.62650  1.0000
  H   H63       1.0  0.70960  0.04770  0.12650  1.0000
  H   H64       1.0  0.79040  0.54770  0.37350  1.0000
  H   H65       1.0  0.24880  0.97720  0.90230  1.0000
  H   H66       1.0  0.25120  0.47720  0.59770  1.0000
  H   H67       1.0  0.75120  0.02280  0.09770  1.0000
  H   H68       1.0  0.74880  0.52280  0.40230  1.0000
  H   H69       1.0  0.24200  0.98750  0.85850  1.0000
  H   H70       1.0  0.25800  0.48750  0.64150  1.0000
  H   H71       1.0  0.75800  0.01250  0.14150  1.0000
  H   H72       1.0  0.74200  0.51250  0.35850  1.0000
  C   C33       1.0  0.31300  0.80310  0.70080  1.0000
  C   C34       1.0  0.18700  0.30310  0.79920  1.0000
  C   C35       1.0  0.68700  0.19690  0.29920  1.0000
  C   C36       1.0  0.81300  0.69690  0.20080  1.0000
  H   H73       1.0  0.26830  0.80820  0.70720  1.0000
  H   H74       1.0  0.23170  0.30820  0.79280  1.0000
  H   H75       1.0  0.73170  0.19180  0.29280  1.0000
  H   H76       1.0  0.76830  0.69180  0.20720  1.0000
  H   H77       1.0  0.31310  0.78440  0.67940  1.0000
  H   H78       1.0  0.18690  0.28440  0.82060  1.0000
  H   H79       1.0  0.68690  0.21560  0.32060  1.0000
  H   H80       1.0  0.81310  0.71560  0.17940  1.0000
  H   H81       1.0  0.33330  0.82890  0.69420  1.0000
  H   H82       1.0  0.16670  0.32890  0.80580  1.0000
  H   H83       1.0  0.66670  0.17110  0.30580  1.0000
  H   H84       1.0  0.83330  0.67110  0.19420  1.0000
  C   C37       1.0  0.18000  0.71700  0.69110  1.0000
  C   C38       1.0  0.32000  0.21700  0.80890  1.0000
  C   C39       1.0  0.82000  0.28300  0.30890  1.0000
  C   C40       1.0  0.68000  0.78300  0.19110  1.0000
  H   H85       1.0  0.19560  0.74060  0.67740  1.0000
  H   H86       1.0  0.30440  0.24060  0.82260  1.0000
  H   H87       1.0  0.80440  0.25940  0.32260  1.0000
  H   H88       1.0  0.69560  0.75940  0.17740  1.0000
  H   H89       1.0  0.13450  0.72070  0.69600  1.0000
  H   H90       1.0  0.36550  0.22070  0.80400  1.0000
  H   H91       1.0  0.86550  0.27930  0.30400  1.0000
  H   H92       1.0  0.63450  0.77930  0.19600  1.0000
  H   H93       1.0  0.18520  0.69210  0.67620  1.0000
  H   H94       1.0  0.31480  0.19210  0.82380  1.0000
  H   H95       1.0  0.81480  0.30790  0.32380  1.0000
  H   H96       1.0  0.68520  0.80790  0.17620  1.0000
  C   C41       1.0  0.22000  0.71270  0.72890  1.0000
  C   C42       1.0  0.28000  0.21270  0.77110  1.0000
  C   C43       1.0  0.78000  0.28730  0.27110  1.0000
  C   C44       1.0  0.72000  0.78730  0.22890  1.0000
  H   H97       1.0  0.21270  0.73930  0.74130  1.0000
  H   H98       1.0  0.28730  0.23930  0.75870  1.0000
  H   H99       1.0  0.78730  0.26070  0.25870  1.0000
  H   H100      1.0  0.71270  0.76070  0.24130  1.0000
  H   H101      1.0  0.26530  0.71410  0.72120  1.0000
  H   H102      1.0  0.23470  0.21410  0.77880  1.0000
  H   H103      1.0  0.73470  0.28590  0.27880  1.0000
  H   H104      1.0  0.76530  0.78590  0.22120  1.0000
  C   C45       1.0  0.22540  0.68140  0.76360  1.0000
  C   C46       1.0  0.27460  0.18140  0.73640  1.0000
  C   C47       1.0  0.77460  0.31860  0.23640  1.0000
  C   C48       1.0  0.72540  0.81860  0.26360  1.0000
  H   H105      1.0  0.25290  0.65720  0.75830  1.0000
  H   H106      1.0  0.24710  0.15720  0.74170  1.0000
  H   H107      1.0  0.74710  0.34280  0.24170  1.0000
  H   H108      1.0  0.75290  0.84280  0.25830  1.0000
  C   C49       1.0  0.15550  0.66930  0.76790  1.0000
  C   C50       1.0  0.34450  0.16930  0.73210  1.0000
  C   C51       1.0  0.84450  0.33070  0.23210  1.0000
  C   C52       1.0  0.65550  0.83070  0.26790  1.0000
  H   H109      1.0  0.14270  0.67670  0.79300  1.0000
  H   H110      1.0  0.35730  0.17670  0.70700  1.0000
  H   H111      1.0  0.85730  0.32330  0.20700  1.0000
  H   H112      1.0  0.64270  0.82330  0.29300  1.0000
  H   H113      1.0  0.15200  0.63960  0.76460  1.0000
  H   H114      1.0  0.34800  0.13960  0.73540  1.0000
  H   H115      1.0  0.84800  0.36040  0.23540  1.0000
  H   H116      1.0  0.65200  0.86040  0.26460  1.0000
  H   H117      1.0  0.12700  0.68300  0.74910  1.0000
  H   H118      1.0  0.37300  0.18300  0.75090  1.0000
  H   H119      1.0  0.87300  0.31700  0.25090  1.0000
  H   H120      1.0  0.62700  0.81700  0.24910  1.0000
  C   C53       1.0  0.59260  0.70410  0.85270  1.0000
  C   C54       1.0  0.90740  0.20410  0.64730  1.0000
  C   C55       1.0  0.40740  0.29590  0.14730  1.0000
  C   C56       1.0  0.09260  0.79590  0.35270  1.0000
  H   H121      1.0  0.57790  0.72720  0.83700  1.0000
  H   H122      1.0  0.92210  0.22720  0.66300  1.0000
  H   H123      1.0  0.42210  0.27280  0.16300  1.0000
  H   H124      1.0  0.07790  0.77280  0.33700  1.0000
  H   H125      1.0  0.62970  0.69100  0.84180  1.0000
  H   H126      1.0  0.87030  0.19100  0.65820  1.0000
  H   H127      1.0  0.37030  0.30900  0.15820  1.0000
  H   H128      1.0  0.12970  0.80900  0.34180  1.0000
  H   H129      1.0  0.60530  0.71390  0.87790  1.0000
  H   H130      1.0  0.89470  0.21390  0.62210  1.0000
  H   H131      1.0  0.39470  0.28610  0.12210  1.0000
  H   H132      1.0  0.10530  0.78610  0.37790  1.0000
  C   C57       1.0  0.53820  0.67330  0.85500  1.0000
  C   C58       1.0  0.96180  0.17330  0.64500  1.0000
  C   C59       1.0  0.46180  0.32670  0.14500  1.0000
  C   C60       1.0  0.03820  0.82670  0.35500  1.0000
  H   H133      1.0  0.52770  0.66290  0.82910  1.0000
  H   H134      1.0  0.97230  0.16290  0.67090  1.0000
  H   H135      1.0  0.47230  0.33710  0.17090  1.0000
  H   H136      1.0  0.02770  0.83710  0.32910  1.0000
  C   C61       1.0  0.54640  0.63840  0.87930  1.0000
  C   C62       1.0  0.95360  0.13840  0.62070  1.0000
  C   C63       1.0  0.45360  0.36160  0.12070  1.0000
  C   C64       1.0  0.04640  0.86160  0.37930  1.0000
  H   H137      1.0  0.50480  0.62400  0.88140  1.0000
  H   H138      1.0  0.99520  0.12400  0.61860  1.0000
  H   H139      1.0  0.49520  0.37600  0.11860  1.0000
  H   H140      1.0  0.00480  0.87600  0.38140  1.0000
  H   H141      1.0  0.56250  0.64710  0.90460  1.0000
  H   H142      1.0  0.93750  0.14710  0.59540  1.0000
  H   H143      1.0  0.43750  0.35290  0.09540  1.0000
  H   H144      1.0  0.06250  0.85290  0.40460  1.0000
  C   C65       1.0  0.60200  0.60700  0.85940  1.0000
  C   C66       1.0  0.89800  0.10700  0.64060  1.0000
  C   C67       1.0  0.39800  0.39300  0.14060  1.0000
  C   C68       1.0  0.10200  0.89300  0.35940  1.0000
  H   H145      1.0  0.59170  0.60510  0.83240  1.0000
  H   H146      1.0  0.90830  0.10510  0.66760  1.0000
  H   H147      1.0  0.40830  0.39490  0.16760  1.0000
  H   H148      1.0  0.09170  0.89490  0.33240  1.0000
  H   H149      1.0  0.60000  0.57970  0.87050  1.0000
  H   H150      1.0  0.90000  0.07970  0.62950  1.0000
  H   H151      1.0  0.40000  0.42030  0.12950  1.0000
  H   H152      1.0  0.10000  0.92030  0.37050  1.0000
  H   H153      1.0  0.64530  0.61830  0.86390  1.0000
  H   H154      1.0  0.85470  0.11830  0.63610  1.0000
  H   H155      1.0  0.35470  0.38170  0.13610  1.0000
  H   H156      1.0  0.14530  0.88170  0.36390  1.0000
  C   C69       1.0  0.73570  0.78810  0.84100  1.0000
  C   C70       1.0  0.76430  0.28810  0.65900  1.0000
  C   C71       1.0  0.26430  0.21190  0.15900  1.0000
  C   C72       1.0  0.23570  0.71190  0.34100  1.0000
  H   H157      1.0  0.77030  0.77820  0.82720  1.0000
  H   H158      1.0  0.72970  0.27820  0.67280  1.0000
  H   H159      1.0  0.22970  0.22180  0.17280  1.0000
  H   H160      1.0  0.27030  0.72180  0.32720  1.0000
  C   C73       1.0  0.68010  0.80310  0.82240  1.0000
  C   C74       1.0  0.81990  0.30310  0.67760  1.0000
  C   C75       1.0  0.31990  0.19690  0.17760  1.0000
  C   C76       1.0  0.18010  0.69690  0.32240  1.0000
  H   H161      1.0  0.67680  0.80350  0.79580  1.0000
  H   H162      1.0  0.82320  0.30350  0.70420  1.0000
  H   H163      1.0  0.32320  0.19650  0.20420  1.0000
  H   H164      1.0  0.17680  0.69650  0.29580  1.0000
  C   C77       1.0  0.62950  0.81750  0.84260  1.0000
  C   C78       1.0  0.87050  0.31750  0.65740  1.0000
  C   C79       1.0  0.37050  0.18250  0.15740  1.0000
  C   C80       1.0  0.12950  0.68250  0.34260  1.0000
  H   H165      1.0  0.59150  0.82780  0.82980  1.0000
  H   H166      1.0  0.90850  0.32780  0.67020  1.0000
  H   H167      1.0  0.40850  0.17220  0.17020  1.0000
  H   H168      1.0  0.09150  0.67220  0.32980  1.0000
  C   C81       1.0  0.63430  0.81690  0.88150  1.0000
  C   C82       1.0  0.86570  0.31690  0.61850  1.0000
  C   C83       1.0  0.36570  0.18310  0.11850  1.0000
  C   C84       1.0  0.13430  0.68310  0.38150  1.0000
  C   C85       1.0  0.68990  0.80180  0.90010  1.0000
  C   C86       1.0  0.81010  0.30180  0.59990  1.0000
  C   C87       1.0  0.31010  0.19820  0.09990  1.0000
  C   C88       1.0  0.18990  0.69820  0.40010  1.0000
  H   H169      1.0  0.69330  0.80140  0.92670  1.0000
  H   H170      1.0  0.80670  0.30140  0.57330  1.0000
  H   H171      1.0  0.30670  0.19860  0.07330  1.0000
  H   H172      1.0  0.19330  0.69860  0.42670  1.0000
  C   C89       1.0  0.74060  0.78740  0.87990  1.0000
  C   C90       1.0  0.75940  0.28740  0.62010  1.0000
  C   C91       1.0  0.25940  0.21260  0.12010  1.0000
  C   C92       1.0  0.24060  0.71260  0.37990  1.0000
  H   H173      1.0  0.77860  0.77720  0.89270  1.0000
  H   H174      1.0  0.72140  0.27720  0.60730  1.0000
  H   H175      1.0  0.22140  0.22280  0.10730  1.0000
  H   H176      1.0  0.27860  0.72280  0.39270  1.0000
  C   C93       1.0  0.68720  0.67570  0.97850  1.0000
  C   C94       1.0  0.81280  0.17570  0.52150  1.0000
  C   C95       1.0  0.31280  0.32430  0.02150  1.0000
  C   C96       1.0  0.18720  0.82430  0.47850  1.0000
  H   H177      1.0  0.69420  0.65170  0.96290  1.0000
  H   H178      1.0  0.80580  0.15170  0.53710  1.0000
  H   H179      1.0  0.30580  0.34830  0.03710  1.0000
  H   H180      1.0  0.19420  0.84830  0.46290  1.0000
  H   H181      1.0  0.70190  0.66980  0.00440  1.0000
  H   H182      1.0  0.79810  0.16980  0.49560  1.0000
  H   H183      1.0  0.29810  0.33020  0.99560  1.0000
  H   H184      1.0  0.20190  0.83020  0.50440  1.0000
  H   H185      1.0  0.71170  0.69890  0.96920  1.0000
  H   H186      1.0  0.78830  0.19890  0.53080  1.0000
  H   H187      1.0  0.28830  0.30110  0.03080  1.0000
  H   H188      1.0  0.21170  0.80110  0.46920  1.0000
  C   C97       1.0  0.61590  0.68620  0.97680  1.0000
  C   C98       1.0  0.88410  0.18620  0.52320  1.0000
  C   C99       1.0  0.38410  0.31380  0.02320  1.0000
  C   C100      1.0  0.11590  0.81380  0.47680  1.0000
  H   H189      1.0  0.59120  0.66260  0.98570  1.0000
  H   H190      1.0  0.90880  0.16260  0.51430  1.0000
  H   H191      1.0  0.40880  0.33740  0.01430  1.0000
  H   H192      1.0  0.09120  0.83740  0.48570  1.0000
  H   H193      1.0  0.60110  0.69180  0.95050  1.0000
  H   H194      1.0  0.89890  0.19180  0.54950  1.0000
  H   H195      1.0  0.39890  0.30820  0.04950  1.0000
  H   H196      1.0  0.10110  0.80820  0.45050  1.0000
  C   C101      1.0  0.60240  0.72370  0.00090  1.0000
  C   C102      1.0  0.89760  0.22370  0.49910  1.0000
  C   C103      1.0  0.39760  0.27630  0.99910  1.0000
  C   C104      1.0  0.10240  0.77630  0.50090  1.0000
  H   H197      1.0  0.60340  0.70860  0.02530  1.0000
  H   H198      1.0  0.89660  0.20860  0.47470  1.0000
  H   H199      1.0  0.39660  0.29140  0.97470  1.0000
  H   H200      1.0  0.10340  0.79140  0.52530  1.0000
  C   C105      1.0  0.65290  0.75580  0.01360  1.0000
  C   C106      1.0  0.84710  0.25580  0.48640  1.0000
  C   C107      1.0  0.34710  0.24420  0.98640  1.0000
  C   C108      1.0  0.15290  0.74420  0.51360  1.0000
  H   H201      1.0  0.63290  0.77620  0.02940  1.0000
  H   H202      1.0  0.86710  0.27620  0.47060  1.0000
  H   H203      1.0  0.36710  0.22380  0.97060  1.0000
  H   H204      1.0  0.13290  0.72380  0.52940  1.0000
  H   H205      1.0  0.66950  0.76920  0.99160  1.0000
  H   H206      1.0  0.83050  0.26920  0.50840  1.0000
  H   H207      1.0  0.33050  0.23080  0.00840  1.0000
  H   H208      1.0  0.16950  0.73080  0.49160  1.0000
  H   H209      1.0  0.68850  0.74240  0.02800  1.0000
  H   H210      1.0  0.81150  0.24240  0.47200  1.0000
  H   H211      1.0  0.31150  0.25760  0.97200  1.0000
  H   H212      1.0  0.18850  0.75760  0.52800  1.0000
  C   C109      1.0  0.47830  0.93710  0.00600  1.0000
  C   C110      1.0  0.02170  0.43710  0.49400  1.0000
  C   C111      1.0  0.52170  0.06290  0.99400  1.0000
  C   C112      1.0  0.97830  0.56290  0.50600  1.0000
  H   H213      1.0  0.43810  0.94670  0.01620  1.0000
  H   H214      1.0  0.06190  0.44670  0.48380  1.0000
  H   H215      1.0  0.56190  0.05330  0.98380  1.0000
  H   H216      1.0  0.93810  0.55330  0.51620  1.0000
  H   H217      1.0  0.50800  0.96010  0.00380  1.0000
  H   H218      1.0  0.99200  0.46010  0.49620  1.0000
  H   H219      1.0  0.49200  0.03990  0.99620  1.0000
  H   H220      1.0  0.00800  0.53990  0.50380  1.0000
  H   H221      1.0  0.49830  0.91650  0.02280  1.0000
  H   H222      1.0  0.00170  0.41650  0.47720  1.0000
  H   H223      1.0  0.50170  0.08350  0.97720  1.0000
  H   H224      1.0  0.99830  0.58350  0.52280  1.0000
  C   C113      1.0  0.46270  0.91720  0.96530  1.0000
  C   C114      1.0  0.03730  0.41720  0.53470  1.0000
  C   C115      1.0  0.53730  0.08280  0.03470  1.0000
  C   C116      1.0  0.96270  0.58280  0.46530  1.0000
  H   H225      1.0  0.50570  0.90840  0.95680  1.0000
  H   H226      1.0  0.99430  0.40840  0.54320  1.0000
  H   H227      1.0  0.49430  0.09160  0.04320  1.0000
  H   H228      1.0  0.00570  0.59160  0.45680  1.0000
  C   C117      1.0  0.43150  0.94410  0.93120  1.0000
  C   C118      1.0  0.06850  0.44410  0.56880  1.0000
  C   C119      1.0  0.56850  0.05590  0.06880  1.0000
  C   C120      1.0  0.93150  0.55590  0.43120  1.0000
  H   H229      1.0  0.42970  0.92770  0.90790  1.0000
  H   H230      1.0  0.07030  0.42770  0.59210  1.0000
  H   H231      1.0  0.57030  0.07230  0.09210  1.0000
  H   H232      1.0  0.92970  0.57230  0.40790  1.0000
  H   H233      1.0  0.38690  0.95200  0.93660  1.0000
  H   H234      1.0  0.11310  0.45200  0.56340  1.0000
  H   H235      1.0  0.61310  0.04800  0.06340  1.0000
  H   H236      1.0  0.88690  0.54800  0.43660  1.0000
  C   C121      1.0  0.47100  0.98150  0.92610  1.0000
  C   C122      1.0  0.02900  0.48150  0.57390  1.0000
  C   C123      1.0  0.52900  0.01850  0.07390  1.0000
  C   C124      1.0  0.97100  0.51850  0.42610  1.0000
  H   H237      1.0  0.45240  0.99730  0.90490  1.0000
  H   H238      1.0  0.04760  0.49730  0.59510  1.0000
  H   H239      1.0  0.54760  0.00270  0.09510  1.0000
  H   H240      1.0  0.95240  0.50270  0.40490  1.0000
  H   H241      1.0  0.51530  0.97360  0.92110  1.0000
  H   H242      1.0  0.98470  0.47360  0.57890  1.0000
  H   H243      1.0  0.48470  0.02640  0.07890  1.0000
  H   H244      1.0  0.01530  0.52640  0.42110  1.0000
  H   H245      1.0  0.47140  0.99810  0.94890  1.0000
  H   H246      1.0  0.02860  0.49810  0.55110  1.0000
  H   H247      1.0  0.52860  0.00190  0.05110  1.0000
  H   H248      1.0  0.97140  0.50190  0.44890  1.0000
  C   C125      1.0  0.27380  0.04280  0.96970  1.0000
  C   C126      1.0  0.22620  0.54280  0.53030  1.0000
  C   C127      1.0  0.72620  0.95720  0.03030  1.0000
  C   C128      1.0  0.77380  0.45720  0.46970  1.0000
  H   H249      1.0  0.24730  0.03350  0.94900  1.0000
  H   H250      1.0  0.25270  0.53350  0.55100  1.0000
  H   H251      1.0  0.75270  0.96650  0.05100  1.0000
  H   H252      1.0  0.74730  0.46650  0.44900  1.0000
  C   C129      1.0  0.30370  0.08070  0.96830  1.0000
  C   C130      1.0  0.19630  0.58070  0.53170  1.0000
  C   C131      1.0  0.69630  0.91930  0.03170  1.0000
  C   C132      1.0  0.80370  0.41930  0.46830  1.0000
  H   H253      1.0  0.29750  0.09730  0.94670  1.0000
  H   H254      1.0  0.20250  0.59730  0.55330  1.0000
  H   H255      1.0  0.70250  0.90270  0.05330  1.0000
  H   H256      1.0  0.79750  0.40270  0.44670  1.0000
  C   C133      1.0  0.34260  0.09440  0.99870  1.0000
  C   C134      1.0  0.15740  0.59440  0.50130  1.0000
  C   C135      1.0  0.65740  0.90560  0.00130  1.0000
  C   C136      1.0  0.84260  0.40560  0.49870  1.0000
  H   H257      1.0  0.36300  0.12040  0.99770  1.0000
  H   H258      1.0  0.13700  0.62040  0.50230  1.0000
  H   H259      1.0  0.63700  0.87960  0.00230  1.0000
  H   H260      1.0  0.86300  0.37960  0.49770  1.0000
  C   C137      1.0  0.35160  0.07010  0.03040  1.0000
  C   C138      1.0  0.14840  0.57010  0.46960  1.0000
  C   C139      1.0  0.64840  0.92990  0.96960  1.0000
  C   C140      1.0  0.85160  0.42990  0.53040  1.0000
  H   H261      1.0  0.37820  0.07950  0.05110  1.0000
  H   H262      1.0  0.12180  0.57950  0.44890  1.0000
  H   H263      1.0  0.62180  0.92050  0.94890  1.0000
  H   H264      1.0  0.87820  0.42050  0.55110  1.0000
  C   C141      1.0  0.32180  0.03220  0.03180  1.0000
  C   C142      1.0  0.17820  0.53220  0.46820  1.0000
  C   C143      1.0  0.67820  0.96780  0.96820  1.0000
  C   C144      1.0  0.82180  0.46780  0.53180  1.0000
  H   H265      1.0  0.32800  0.01560  0.05340  1.0000
  H   H266      1.0  0.17200  0.51560  0.44660  1.0000
  H   H267      1.0  0.67200  0.98440  0.94660  1.0000
  H   H268      1.0  0.82800  0.48440  0.55340  1.0000
  C   C145      1.0  0.28290  0.01850  0.00150  1.0000
  C   C146      1.0  0.21710  0.51850  0.49850  1.0000
  C   C147      1.0  0.71710  0.98150  0.99850  1.0000
  C   C148      1.0  0.78290  0.48150  0.50150  1.0000
  C   C149      1.0  0.39200  0.94540  0.08460  1.0000
  C   C150      1.0  0.10800  0.44540  0.41540  1.0000
  C   C151      1.0  0.60800  0.05460  0.91540  1.0000
  C   C152      1.0  0.89200  0.55460  0.58460  1.0000
  H   H269      1.0  0.39690  0.93000  0.06140  1.0000
  H   H270      1.0  0.10310  0.43000  0.43860  1.0000
  H   H271      1.0  0.60310  0.07000  0.93860  1.0000
  H   H272      1.0  0.89690  0.57000  0.56140  1.0000
  H   H273      1.0  0.43460  0.95310  0.09540  1.0000
  H   H274      1.0  0.06540  0.45310  0.40460  1.0000
  H   H275      1.0  0.56540  0.04690  0.90460  1.0000
  H   H276      1.0  0.93460  0.54690  0.59540  1.0000
  H   H277      1.0  0.36630  0.97000  0.07910  1.0000
  H   H278      1.0  0.13370  0.47000  0.42090  1.0000
  H   H279      1.0  0.63370  0.03000  0.92090  1.0000
  H   H280      1.0  0.86630  0.53000  0.57910  1.0000
  C   C153      1.0  0.35710  0.91850  0.11270  1.0000
  C   C154      1.0  0.14290  0.41850  0.38730  1.0000
  C   C155      1.0  0.64290  0.08150  0.88730  1.0000
  C   C156      1.0  0.85710  0.58150  0.61270  1.0000
  H   H281      1.0  0.32030  0.93620  0.11970  1.0000
  H   H282      1.0  0.17970  0.43620  0.38030  1.0000
  H   H283      1.0  0.67970  0.06380  0.88030  1.0000
  H   H284      1.0  0.82030  0.56380  0.61970  1.0000
  C   C157      1.0  0.38670  0.90320  0.15200  1.0000
  C   C158      1.0  0.11330  0.40320  0.34800  1.0000
  C   C159      1.0  0.61330  0.09680  0.84800  1.0000
  C   C160      1.0  0.88670  0.59680  0.65200  1.0000
  H   H285      1.0  0.35150  0.89310  0.16730  1.0000
  H   H286      1.0  0.14850  0.39310  0.33270  1.0000
  H   H287      1.0  0.64850  0.10690  0.83270  1.0000
  H   H288      1.0  0.85150  0.60690  0.66730  1.0000
  H   H289      1.0  0.41670  0.88020  0.14820  1.0000
  H   H290      1.0  0.08330  0.38020  0.35180  1.0000
  H   H291      1.0  0.58330  0.11980  0.85180  1.0000
  H   H292      1.0  0.91670  0.61980  0.64820  1.0000
  C   C161      1.0  0.42300  0.93790  0.17290  1.0000
  C   C162      1.0  0.07700  0.43790  0.32710  1.0000
  C   C163      1.0  0.57700  0.06210  0.82710  1.0000
  C   C164      1.0  0.92300  0.56210  0.67290  1.0000
  H   H293      1.0  0.45110  0.95290  0.15660  1.0000
  H   H294      1.0  0.04890  0.45290  0.34340  1.0000
  H   H295      1.0  0.54890  0.04710  0.84340  1.0000
  H   H296      1.0  0.95110  0.54710  0.65660  1.0000
  H   H297      1.0  0.44880  0.92600  0.19380  1.0000
  H   H298      1.0  0.05120  0.42600  0.30620  1.0000
  H   H299      1.0  0.55120  0.07400  0.80620  1.0000
  H   H300      1.0  0.94880  0.57400  0.69380  1.0000
  H   H301      1.0  0.39100  0.95670  0.18240  1.0000
  H   H302      1.0  0.10900  0.45670  0.31760  1.0000
  H   H303      1.0  0.60900  0.04330  0.81760  1.0000
  H   H304      1.0  0.89100  0.54330  0.68240  1.0000
  C   C165      1.0  0.13800  0.97910  0.13970  1.0000
  C   C166      1.0  0.36200  0.47910  0.36030  1.0000
  C   C167      1.0  0.86200  0.02090  0.86030  1.0000
  C   C168      1.0  0.63800  0.52090  0.63970  1.0000
  H   H305      1.0  0.17540  0.97390  0.12610  1.0000
  H   H306      1.0  0.32460  0.47390  0.37390  1.0000
  H   H307      1.0  0.82460  0.02610  0.87390  1.0000
  H   H308      1.0  0.67540  0.52610  0.62610  1.0000
  C   C169      1.0  0.10330  0.01500  0.13360  1.0000
  C   C170      1.0  0.39670  0.51500  0.36640  1.0000
  C   C171      1.0  0.89670  0.98500  0.86640  1.0000
  C   C172      1.0  0.60330  0.48500  0.63360  1.0000
  H   H309      1.0  0.11690  0.03440  0.11600  1.0000
  H   H310      1.0  0.38310  0.53440  0.38400  1.0000
  H   H311      1.0  0.88310  0.96560  0.88400  1.0000
  H   H312      1.0  0.61690  0.46560  0.61600  1.0000
  C   C173      1.0  0.04860  0.02250  0.15340  1.0000
  C   C174      1.0  0.45140  0.52250  0.34660  1.0000
  C   C175      1.0  0.95140  0.97750  0.84660  1.0000
  C   C176      1.0  0.54860  0.47750  0.65340  1.0000
  H   H313      1.0  0.02480  0.04700  0.14930  1.0000
  H   H314      1.0  0.47520  0.54700  0.35070  1.0000
  H   H315      1.0  0.97520  0.95300  0.85070  1.0000
  H   H316      1.0  0.52480  0.45300  0.64930  1.0000
  C   C177      1.0  0.02870  0.99400  0.17920  1.0000
  C   C178      1.0  0.47130  0.49400  0.32080  1.0000
  C   C179      1.0  0.97130  0.00600  0.82080  1.0000
  C   C180      1.0  0.52870  0.50600  0.67920  1.0000
  H   H317      1.0  0.99130  0.99910  0.19270  1.0000
  H   H318      1.0  0.50870  0.49910  0.30730  1.0000
  H   H319      1.0  0.00870  0.00090  0.80730  1.0000
  H   H320      1.0  0.49130  0.50090  0.69270  1.0000
  C   C181      1.0  0.06340  0.95810  0.18520  1.0000
  C   C182      1.0  0.43660  0.45810  0.31480  1.0000
  C   C183      1.0  0.93660  0.04190  0.81480  1.0000
  C   C184      1.0  0.56340  0.54190  0.68520  1.0000
  H   H321      1.0  0.04980  0.93860  0.20290  1.0000
  H   H322      1.0  0.45020  0.43860  0.29710  1.0000
  H   H323      1.0  0.95020  0.06140  0.79710  1.0000
  H   H324      1.0  0.54980  0.56140  0.70290  1.0000
  C   C185      1.0  0.11810  0.95060  0.16550  1.0000
  C   C186      1.0  0.38190  0.45060  0.33450  1.0000
  C   C187      1.0  0.88190  0.04940  0.83450  1.0000
  C   C188      1.0  0.61810  0.54940  0.66550  1.0000
  C   C189      1.0  0.91800  0.95540  0.05030  1.0000
  C   C190      1.0  0.58200  0.45540  0.44970  1.0000
  C   C191      1.0  0.08200  0.04460  0.94970  1.0000
  C   C192      1.0  0.41800  0.54460  0.55030  1.0000
  H   H325      1.0  0.91070  0.97590  0.03060  1.0000
  H   H326      1.0  0.58930  0.47590  0.46940  1.0000
  H   H327      1.0  0.08930  0.02410  0.96940  1.0000
  H   H328      1.0  0.41070  0.52410  0.53060  1.0000
  H   H329      1.0  0.93910  0.96830  0.07250  1.0000
  H   H330      1.0  0.56090  0.46830  0.42750  1.0000
  H   H331      1.0  0.06090  0.03170  0.92750  1.0000
  H   H332      1.0  0.43910  0.53170  0.57250  1.0000
  H   H333      1.0  0.87660  0.94380  0.05680  1.0000
  H   H334      1.0  0.62340  0.44380  0.44320  1.0000
  H   H335      1.0  0.12340  0.05620  0.94320  1.0000
  H   H336      1.0  0.37660  0.55620  0.55680  1.0000
  C   C193      1.0  0.96410  0.91930  0.03550  1.0000
  C   C194      1.0  0.53590  0.41930  0.46450  1.0000
  C   C195      1.0  0.03590  0.08070  0.96450  1.0000
  C   C196      1.0  0.46410  0.58070  0.53550  1.0000
  H   H337      1.0  0.95680  0.89340  0.04900  1.0000
  H   H338      1.0  0.54320  0.39340  0.45100  1.0000
  H   H339      1.0  0.04320  0.10660  0.95100  1.0000
  H   H340      1.0  0.45680  0.60660  0.54900  1.0000
  H   H341      1.0  0.95550  0.91460  0.00840  1.0000
  H   H342      1.0  0.54450  0.41460  0.49160  1.0000
  H   H343      1.0  0.04450  0.08540  0.99160  1.0000
  H   H344      1.0  0.45550  0.58540  0.50840  1.0000
  C   C197      1.0  0.03300  0.93450  0.04350  1.0000
  C   C198      1.0  0.46700  0.43450  0.45650  1.0000
  C   C199      1.0  0.96700  0.06550  0.95650  1.0000
  C   C200      1.0  0.53300  0.56550  0.54350  1.0000
  H   H345      1.0  0.03440  0.93120  0.07140  1.0000
  H   H346      1.0  0.46560  0.43120  0.42860  1.0000
  H   H347      1.0  0.96560  0.06880  0.92860  1.0000
  H   H348      1.0  0.53440  0.56880  0.57140  1.0000
  C   C201      1.0  0.07000  0.97660  0.04250  1.0000
  C   C202      1.0  0.43000  0.47660  0.45750  1.0000
  C   C203      1.0  0.93000  0.02340  0.95750  1.0000
  C   C204      1.0  0.57000  0.52340  0.54250  1.0000
  H   H349      1.0  0.10670  0.97400  0.02660  1.0000
  H   H350      1.0  0.39330  0.47400  0.47340  1.0000
  H   H351      1.0  0.89330  0.02600  0.97340  1.0000
  H   H352      1.0  0.60670  0.52600  0.52660  1.0000
  H   H353      1.0  0.08550  0.98410  0.06800  1.0000
  H   H354      1.0  0.41450  0.48410  0.43200  1.0000
  H   H355      1.0  0.91450  0.01590  0.93200  1.0000
  H   H356      1.0  0.58550  0.51590  0.56800  1.0000
  H   H357      1.0  0.04050  0.99770  0.03240  1.0000
  H   H358      1.0  0.45950  0.49770  0.46760  1.0000
  H   H359      1.0  0.95950  0.00230  0.96760  1.0000
  H   H360      1.0  0.54050  0.50230  0.53240  1.0000
  C   C205      1.0  0.80500  0.88090  0.88410  1.0000
  C   C206      1.0  0.69500  0.38090  0.61590  1.0000
  C   C207      1.0  0.19500  0.11910  0.11590  1.0000
  C   C208      1.0  0.30500  0.61910  0.38410  1.0000
  H   H361      1.0  0.77900  0.86730  0.86530  1.0000
  H   H362      1.0  0.72100  0.36730  0.63470  1.0000
  H   H363      1.0  0.22100  0.13270  0.13470  1.0000
  H   H364      1.0  0.27900  0.63270  0.36530  1.0000
  C   C209      1.0  0.77640  0.90470  0.91070  1.0000
  C   C210      1.0  0.72360  0.40470  0.58930  1.0000
  C   C211      1.0  0.22360  0.09530  0.08930  1.0000
  C   C212      1.0  0.27640  0.59530  0.41070  1.0000
  H   H365      1.0  0.73070  0.90740  0.91020  1.0000
  H   H366      1.0  0.76930  0.40740  0.58980  1.0000
  H   H367      1.0  0.26930  0.09260  0.08980  1.0000
  H   H368      1.0  0.23070  0.59260  0.41020  1.0000
  C   C213      1.0  0.81450  0.92460  0.93820  1.0000
  C   C214      1.0  0.68550  0.42460  0.56180  1.0000
  C   C215      1.0  0.18550  0.07540  0.06180  1.0000
  C   C216      1.0  0.31450  0.57540  0.43820  1.0000
  H   H369      1.0  0.79490  0.94090  0.95640  1.0000
  H   H370      1.0  0.70510  0.44090  0.54360  1.0000
  H   H371      1.0  0.20510  0.05910  0.04360  1.0000
  H   H372      1.0  0.29490  0.55910  0.45640  1.0000
  C   C217      1.0  0.88130  0.92070  0.93900  1.0000
  C   C218      1.0  0.61870  0.42070  0.56100  1.0000
  C   C219      1.0  0.11870  0.07930  0.06100  1.0000
  C   C220      1.0  0.38130  0.57930  0.43900  1.0000
  H   H373      1.0  0.90740  0.93430  0.95780  1.0000
  H   H374      1.0  0.59260  0.43430  0.54220  1.0000
  H   H375      1.0  0.09260  0.06570  0.04220  1.0000
  H   H376      1.0  0.40740  0.56570  0.45780  1.0000
  C   C221      1.0  0.91000  0.89690  0.91240  1.0000
  C   C222      1.0  0.59000  0.39690  0.58760  1.0000
  C   C223      1.0  0.09000  0.10310  0.08760  1.0000
  C   C224      1.0  0.41000  0.60310  0.41240  1.0000
  C   C225      1.0  0.87180  0.87700  0.88490  1.0000
  C   C226      1.0  0.62820  0.37700  0.61510  1.0000
  C   C227      1.0  0.12820  0.12300  0.11510  1.0000
  C   C228      1.0  0.37180  0.62300  0.38490  1.0000
  H   H377      1.0  0.89140  0.86070  0.86670  1.0000
  H   H378      1.0  0.60860  0.36070  0.63330  1.0000
  H   H379      1.0  0.10860  0.13930  0.13330  1.0000
  H   H380      1.0  0.39140  0.63930  0.36670  1.0000
  C   C229      1.0  0.80900  0.82640  0.01640  1.0000
  C   C230      1.0  0.69100  0.32640  0.48360  1.0000
  C   C231      1.0  0.19100  0.17360  0.98360  1.0000
  C   C232      1.0  0.30900  0.67360  0.51640  1.0000
  H   H381      1.0  0.77690  0.81980  0.99610  1.0000
  H   H382      1.0  0.72310  0.31980  0.50390  1.0000
  H   H383      1.0  0.22310  0.18020  0.00390  1.0000
  H   H384      1.0  0.27690  0.68020  0.49610  1.0000
  H   H385      1.0  0.81040  0.85610  0.01970  1.0000
  H   H386      1.0  0.68960  0.35610  0.48030  1.0000
  H   H387      1.0  0.18960  0.14390  0.98030  1.0000
  H   H388      1.0  0.31040  0.64390  0.51970  1.0000
  H   H389      1.0  0.79610  0.81350  0.03960  1.0000
  H   H390      1.0  0.70390  0.31350  0.46040  1.0000
  H   H391      1.0  0.20390  0.18650  0.96040  1.0000
  H   H392      1.0  0.29610  0.68650  0.53960  1.0000
  C   C233      1.0  0.87160  0.81110  0.00680  1.0000
  C   C234      1.0  0.62840  0.31110  0.49320  1.0000
  C   C235      1.0  0.12840  0.18890  0.99320  1.0000
  C   C236      1.0  0.37160  0.68890  0.50680  1.0000
  H   H393      1.0  0.89820  0.81340  0.03060  1.0000
  H   H394      1.0  0.60180  0.31340  0.46940  1.0000
  H   H395      1.0  0.10180  0.18660  0.96940  1.0000
  H   H396      1.0  0.39820  0.68660  0.53060  1.0000
  H   H397      1.0  0.88800  0.83260  0.99030  1.0000
  H   H398      1.0  0.61200  0.33260  0.50970  1.0000
  H   H399      1.0  0.11200  0.16740  0.00970  1.0000
  H   H400      1.0  0.38800  0.66740  0.49030  1.0000
  C   C237      1.0  0.89530  0.77080  0.98940  1.0000
  C   C238      1.0  0.60470  0.27080  0.51060  1.0000
  C   C239      1.0  0.10470  0.22920  0.01060  1.0000
  C   C240      1.0  0.39530  0.72920  0.48940  1.0000
  H   H401      1.0  0.87580  0.75050  0.00630  1.0000
  H   H402      1.0  0.62420  0.25050  0.49370  1.0000
  H   H403      1.0  0.12420  0.24950  0.99370  1.0000
  H   H404      1.0  0.37580  0.74950  0.50630  1.0000
  C   C241      1.0  0.84700  0.76790  0.95510  1.0000
  C   C242      1.0  0.65300  0.26790  0.54490  1.0000
  C   C243      1.0  0.15300  0.23210  0.04490  1.0000
  C   C244      1.0  0.34700  0.73210  0.45510  1.0000
  H   H405      1.0  0.85810  0.74430  0.93980  1.0000
  H   H406      1.0  0.64190  0.24430  0.56020  1.0000
  H   H407      1.0  0.14190  0.25570  0.06020  1.0000
  H   H408      1.0  0.35810  0.75570  0.43980  1.0000
  H   H409      1.0  0.84950  0.79290  0.94020  1.0000
  H   H410      1.0  0.65050  0.29290  0.55980  1.0000
  H   H411      1.0  0.15050  0.20710  0.05980  1.0000
  H   H412      1.0  0.34950  0.70710  0.44020  1.0000
  H   H413      1.0  0.80330  0.76460  0.96350  1.0000
  H   H414      1.0  0.69670  0.26460  0.53650  1.0000
  H   H415      1.0  0.19670  0.23540  0.03650  1.0000
  H   H416      1.0  0.30330  0.73540  0.46350  1.0000
  C   C245      1.0  0.93580  0.77390  0.86600  1.0000
  C   C246      1.0  0.56420  0.27390  0.63400  1.0000
  C   C247      1.0  0.06420  0.22610  0.13400  1.0000
  C   C248      1.0  0.43580  0.72610  0.36600  1.0000
  H   H417      1.0  0.92220  0.74940  0.87910  1.0000
  H   H418      1.0  0.57780  0.24940  0.62090  1.0000
  H   H419      1.0  0.07780  0.25060  0.12090  1.0000
  H   H420      1.0  0.42220  0.75060  0.37910  1.0000
  H   H421      1.0  0.90180  0.78210  0.84740  1.0000
  H   H422      1.0  0.59820  0.28210  0.65260  1.0000
  H   H423      1.0  0.09820  0.21790  0.15260  1.0000
  H   H424      1.0  0.40180  0.71790  0.34740  1.0000
  H   H425      1.0  0.94370  0.79610  0.88410  1.0000
  H   H426      1.0  0.55630  0.29610  0.61590  1.0000
  H   H427      1.0  0.05630  0.20390  0.11590  1.0000
  H   H428      1.0  0.44370  0.70390  0.38410  1.0000
  C   C249      1.0  0.00500  0.76380  0.84400  1.0000
  C   C250      1.0  0.49500  0.26380  0.65600  1.0000
  C   C251      1.0  0.99500  0.23620  0.15600  1.0000
  C   C252      1.0  0.50500  0.73620  0.34400  1.0000
  H   H429      1.0  0.01090  0.78640  0.82570  1.0000
  H   H430      1.0  0.48910  0.28640  0.67430  1.0000
  H   H431      1.0  0.98910  0.21360  0.17430  1.0000
  H   H432      1.0  0.51090  0.71360  0.32570  1.0000
  C   C253      1.0  0.00550  0.72430  0.82230  1.0000
  C   C254      1.0  0.49450  0.22430  0.67770  1.0000
  C   C255      1.0  0.99450  0.27570  0.17770  1.0000
  C   C256      1.0  0.50550  0.77570  0.32230  1.0000
  H   H433      1.0  0.00120  0.70070  0.83920  1.0000
  H   H434      1.0  0.49880  0.20070  0.66080  1.0000
  H   H435      1.0  0.99880  0.29930  0.16080  1.0000
  H   H436      1.0  0.50120  0.79930  0.33920  1.0000
  H   H437      1.0  0.04620  0.72150  0.80930  1.0000
  H   H438      1.0  0.45380  0.22150  0.69070  1.0000
  H   H439      1.0  0.95380  0.27850  0.19070  1.0000
  H   H440      1.0  0.54620  0.77850  0.30930  1.0000
  C   C257      1.0  0.94700  0.72700  0.79380  1.0000
  C   C258      1.0  0.55300  0.22700  0.70620  1.0000
  C   C259      1.0  0.05300  0.27300  0.20620  1.0000
  C   C260      1.0  0.44700  0.77300  0.29380  1.0000
  H   H441      1.0  0.94380  0.70210  0.77880  1.0000
  H   H442      1.0  0.55620  0.20210  0.72120  1.0000
  H   H443      1.0  0.05620  0.29790  0.22120  1.0000
  H   H444      1.0  0.44380  0.79790  0.27880  1.0000
  H   H445      1.0  0.95190  0.75070  0.77730  1.0000
  H   H446      1.0  0.54810  0.25070  0.72270  1.0000
  H   H447      1.0  0.04810  0.24930  0.22270  1.0000
  H   H448      1.0  0.45190  0.74930  0.27730  1.0000
  H   H449      1.0  0.90700  0.73040  0.80720  1.0000
  H   H450      1.0  0.59300  0.23040  0.69280  1.0000
  H   H451      1.0  0.09300  0.26960  0.19280  1.0000
  H   H452      1.0  0.40700  0.76960  0.30720  1.0000
  C   C261      1.0  0.88740  0.63530  0.89340  1.0000
  C   C262      1.0  0.61260  0.13530  0.60660  1.0000
  C   C263      1.0  0.11260  0.36470  0.10660  1.0000
  C   C264      1.0  0.38740  0.86470  0.39340  1.0000
  C   C265      1.0  0.88100  0.60050  0.87360  1.0000
  C   C266      1.0  0.61900  0.10050  0.62640  1.0000
  C   C267      1.0  0.11900  0.39950  0.12640  1.0000
  C   C268      1.0  0.38100  0.89950  0.37360  1.0000
  H   H453      1.0  0.91590  0.58170  0.87670  1.0000
  H   H454      1.0  0.58410  0.08170  0.62330  1.0000
  H   H455      1.0  0.08410  0.41830  0.12330  1.0000
  H   H456      1.0  0.41590  0.91830  0.37670  1.0000
  C   C269      1.0  0.83500  0.58950  0.85170  1.0000
  C   C270      1.0  0.66500  0.08950  0.64830  1.0000
  C   C271      1.0  0.16500  0.41050  0.14830  1.0000
  C   C272      1.0  0.33500  0.91050  0.35170  1.0000
  H   H457      1.0  0.83190  0.56320  0.84040  1.0000
  H   H458      1.0  0.66810  0.06320  0.65960  1.0000
  H   H459      1.0  0.16810  0.43680  0.15960  1.0000
  H   H460      1.0  0.33190  0.93680  0.34040  1.0000
  C   C273      1.0  0.78370  0.62380  0.84520  1.0000
  C   C274      1.0  0.71630  0.12380  0.65480  1.0000
  C   C275      1.0  0.21630  0.37620  0.15480  1.0000
  C   C276      1.0  0.28370  0.87620  0.34520  1.0000
  H   H461      1.0  0.75190  0.62040  0.82530  1.0000
  H   H462      1.0  0.74810  0.12040  0.67470  1.0000
  H   H463      1.0  0.24810  0.37960  0.17470  1.0000
  H   H464      1.0  0.25190  0.87960  0.32530  1.0000
  C   C277      1.0  0.78210  0.65610  0.86500  1.0000
  C   C278      1.0  0.71790  0.15610  0.63500  1.0000
  C   C279      1.0  0.21790  0.34390  0.13500  1.0000
  C   C280      1.0  0.28210  0.84390  0.36500  1.0000
  H   H465      1.0  0.74710  0.67480  0.86210  1.0000
  H   H466      1.0  0.75290  0.17480  0.63790  1.0000
  H   H467      1.0  0.25290  0.32520  0.13790  1.0000
  H   H468      1.0  0.24710  0.82520  0.36210  1.0000
  C   C281      1.0  0.83420  0.66330  0.89160  1.0000
  C   C282      1.0  0.66580  0.16330  0.60840  1.0000
  C   C283      1.0  0.16580  0.33670  0.10840  1.0000
  C   C284      1.0  0.33420  0.83670  0.39160  1.0000
  H   H469      1.0  0.83380  0.68630  0.90780  1.0000
  H   H470      1.0  0.66620  0.18630  0.59220  1.0000
  H   H471      1.0  0.16620  0.31370  0.09220  1.0000
  H   H472      1.0  0.33380  0.81370  0.40780  1.0000
  C   C285      1.0  0.04300  0.56600  0.80970  1.0000
  C   C286      1.0  0.45700  0.06600  0.69030  1.0000
  C   C287      1.0  0.95700  0.43400  0.19030  1.0000
  C   C288      1.0  0.54300  0.93400  0.30970  1.0000
  H   H473      1.0  0.00670  0.57790  0.79440  1.0000
  H   H474      1.0  0.49330  0.07790  0.70560  1.0000
  H   H475      1.0  0.99330  0.42210  0.20560  1.0000
  H   H476      1.0  0.50670  0.92210  0.29440  1.0000
  H   H477      1.0  0.02720  0.54220  0.82320  1.0000
  H   H478      1.0  0.47280  0.04220  0.67680  1.0000
  H   H479      1.0  0.97280  0.45780  0.17680  1.0000
  H   H480      1.0  0.52720  0.95780  0.32320  1.0000
  H   H481      1.0  0.07680  0.55760  0.79350  1.0000
  H   H482      1.0  0.42320  0.05760  0.70650  1.0000
  H   H483      1.0  0.92320  0.44240  0.20650  1.0000
  H   H484      1.0  0.57680  0.94240  0.29350  1.0000
  C   C289      1.0  0.07120  0.60010  0.83980  1.0000
  C   C290      1.0  0.42880  0.10010  0.66020  1.0000
  C   C291      1.0  0.92880  0.39990  0.16020  1.0000
  C   C292      1.0  0.57120  0.89990  0.33980  1.0000
  H   H485      1.0  0.08500  0.62450  0.82590  1.0000
  H   H486      1.0  0.41500  0.12450  0.67410  1.0000
  H   H487      1.0  0.91500  0.37550  0.17410  1.0000
  H   H488      1.0  0.58500  0.87550  0.32590  1.0000
  H   H489      1.0  0.03610  0.60870  0.85580  1.0000
  H   H490      1.0  0.46390  0.10870  0.64420  1.0000
  H   H491      1.0  0.96390  0.39130  0.14420  1.0000
  H   H492      1.0  0.53610  0.89130  0.35580  1.0000
  C   C293      1.0  0.12320  0.58600  0.86260  1.0000
  C   C294      1.0  0.37680  0.08600  0.63740  1.0000
  C   C295      1.0  0.87680  0.41400  0.13740  1.0000
  C   C296      1.0  0.62320  0.91400  0.36260  1.0000
  H   H493      1.0  0.15800  0.58710  0.84440  1.0000
  H   H494      1.0  0.34200  0.08710  0.65560  1.0000
  H   H495      1.0  0.84200  0.41290  0.15560  1.0000
  H   H496      1.0  0.65800  0.91290  0.34440  1.0000
  C   C297      1.0  0.12600  0.54100  0.87230  1.0000
  C   C298      1.0  0.37400  0.04100  0.62770  1.0000
  C   C299      1.0  0.87400  0.45900  0.12770  1.0000
  C   C300      1.0  0.62600  0.95900  0.37230  1.0000
  H   H497      1.0  0.16450  0.53550  0.88860  1.0000
  H   H498      1.0  0.33550  0.03550  0.61140  1.0000
  H   H499      1.0  0.83550  0.46450  0.11140  1.0000
  H   H500      1.0  0.66450  0.96450  0.38860  1.0000
  H   H501      1.0  0.12760  0.52490  0.84930  1.0000
  H   H502      1.0  0.37240  0.02490  0.65070  1.0000
  H   H503      1.0  0.87240  0.47510  0.15070  1.0000
  H   H504      1.0  0.62760  0.97510  0.34930  1.0000
  H   H505      1.0  0.08730  0.53350  0.88540  1.0000
  H   H506      1.0  0.41270  0.03350  0.61460  1.0000
  H   H507      1.0  0.91270  0.46650  0.11460  1.0000
  H   H508      1.0  0.58730  0.96650  0.38540  1.0000
  C   C301      1.0  0.36860  0.50930  0.75660  1.0000
  C   C302      1.0  0.13140  0.00930  0.74340  1.0000
  C   C303      1.0  0.63140  0.49070  0.24340  1.0000
  C   C304      1.0  0.86860  0.99070  0.25660  1.0000
  H   H509      1.0  0.34480  0.49930  0.73510  1.0000
  H   H510      1.0  0.15520  0.99930  0.76490  1.0000
  H   H511      1.0  0.65520  0.50070  0.26490  1.0000
  H   H512      1.0  0.84480  0.00070  0.23510  1.0000
  C   C305      1.0  0.43290  0.49820  0.76330  1.0000
  C   C306      1.0  0.06710  0.99820  0.73670  1.0000
  C   C307      1.0  0.56710  0.50180  0.23670  1.0000
  C   C308      1.0  0.93290  0.00180  0.26330  1.0000
  H   H513      1.0  0.45310  0.48060  0.74630  1.0000
  H   H514      1.0  0.04690  0.98060  0.75370  1.0000
  H   H515      1.0  0.54690  0.51940  0.25370  1.0000
  H   H516      1.0  0.95310  0.01940  0.24630  1.0000
  C   C309      1.0  0.46770  0.51280  0.79480  1.0000
  C   C310      1.0  0.03230  0.01280  0.70520  1.0000
  C   C311      1.0  0.53230  0.48720  0.20520  1.0000
  C   C312      1.0  0.96770  0.98720  0.29480  1.0000
  H   H517      1.0  0.51160  0.50520  0.79930  1.0000
  H   H518      1.0  0.98840  0.00520  0.70070  1.0000
  H   H519      1.0  0.48840  0.49480  0.20070  1.0000
  H   H520      1.0  0.01160  0.99480  0.29930  1.0000
  C   C313      1.0  0.43820  0.53840  0.81970  1.0000
  C   C314      1.0  0.06180  0.03840  0.68030  1.0000
  C   C315      1.0  0.56180  0.46160  0.18030  1.0000
  C   C316      1.0  0.93820  0.96160  0.31970  1.0000
  H   H521      1.0  0.46200  0.54840  0.84120  1.0000
  H   H522      1.0  0.03800  0.04840  0.65880  1.0000
  H   H523      1.0  0.53800  0.45160  0.15880  1.0000
  H   H524      1.0  0.96200  0.95160  0.34120  1.0000
  C   C317      1.0  0.37390  0.54950  0.81300  1.0000
  C   C318      1.0  0.12610  0.04950  0.68700  1.0000
  C   C319      1.0  0.62610  0.45050  0.18700  1.0000
  C   C320      1.0  0.87390  0.95050  0.31300  1.0000
  C   C321      1.0  0.33910  0.53490  0.78150  1.0000
  C   C322      1.0  0.16090  0.03490  0.71850  1.0000
  C   C323      1.0  0.66090  0.46510  0.21850  1.0000
  C   C324      1.0  0.83910  0.96510  0.28150  1.0000
  H   H525      1.0  0.29510  0.54250  0.77700  1.0000
  H   H526      1.0  0.20490  0.04250  0.72300  1.0000
  H   H527      1.0  0.70490  0.45750  0.22300  1.0000
  H   H528      1.0  0.79510  0.95750  0.27700  1.0000
  C   C325      1.0  0.17000  0.46600  0.02120  1.0000
  C   C326      1.0  0.33000  0.96600  0.47880  1.0000
  C   C327      1.0  0.83000  0.53400  0.97880  1.0000
  C   C328      1.0  0.67000  0.03400  0.52120  1.0000
  H   H529      1.0  0.12760  0.47570  0.01550  1.0000
  H   H530      1.0  0.37240  0.97570  0.48450  1.0000
  H   H531      1.0  0.87240  0.52430  0.98450  1.0000
  H   H532      1.0  0.62760  0.02430  0.51550  1.0000
  C   C329      1.0  0.22300  0.48770  0.00970  1.0000
  C   C330      1.0  0.27700  0.98770  0.49030  1.0000
  C   C331      1.0  0.77700  0.51230  0.99030  1.0000
  C   C332      1.0  0.72300  0.01230  0.50970  1.0000
  C   C333      1.0  0.28500  0.47330  0.01800  1.0000
  C   C334      1.0  0.21500  0.97330  0.48200  1.0000
  C   C335      1.0  0.71500  0.52670  0.98200  1.0000
  C   C336      1.0  0.78500  0.02670  0.51800  1.0000
  H   H533      1.0  0.32130  0.48820  0.01020  1.0000
  H   H534      1.0  0.17870  0.98820  0.48980  1.0000
  H   H535      1.0  0.67870  0.51180  0.98980  1.0000
  H   H536      1.0  0.82130  0.01180  0.51020  1.0000
  C   C337      1.0  0.29400  0.43700  0.03790  1.0000
  C   C338      1.0  0.20600  0.93700  0.46210  1.0000
  C   C339      1.0  0.70600  0.56300  0.96210  1.0000
  C   C340      1.0  0.79400  0.06300  0.53790  1.0000
  H   H537      1.0  0.33700  0.42720  0.04350  1.0000
  H   H538      1.0  0.16300  0.92720  0.45650  1.0000
  H   H539      1.0  0.66300  0.57280  0.95650  1.0000
  H   H540      1.0  0.83700  0.07280  0.54350  1.0000
  C   C341      1.0  0.24200  0.41520  0.04940  1.0000
  C   C342      1.0  0.25800  0.91520  0.45060  1.0000
  C   C343      1.0  0.75800  0.58480  0.95060  1.0000
  C   C344      1.0  0.74200  0.08480  0.54940  1.0000
  H   H541      1.0  0.24790  0.39040  0.06290  1.0000
  H   H542      1.0  0.25210  0.89040  0.43710  1.0000
  H   H543      1.0  0.75210  0.60960  0.93710  1.0000
  H   H544      1.0  0.74790  0.10960  0.56290  1.0000
  C   C345      1.0  0.17900  0.42960  0.04100  1.0000
  C   C346      1.0  0.32100  0.92960  0.45900  1.0000
  C   C347      1.0  0.82100  0.57040  0.95900  1.0000
  C   C348      1.0  0.67900  0.07040  0.54100  1.0000
  H   H545      1.0  0.14320  0.41470  0.04890  1.0000
  H   H546      1.0  0.35680  0.91470  0.45110  1.0000
  H   H547      1.0  0.85680  0.58530  0.95110  1.0000
  H   H548      1.0  0.64320  0.08530  0.54890  1.0000
  C   C349      1.0  0.26300  0.50800  0.13070  1.0000
  C   C350      1.0  0.23700  0.00800  0.36930  1.0000
  C   C351      1.0  0.73700  0.49200  0.86930  1.0000
  C   C352      1.0  0.76300  0.99200  0.63070  1.0000
  H   H549      1.0  0.22720  0.48930  0.13580  1.0000
  H   H550      1.0  0.27280  0.98930  0.36420  1.0000
  H   H551      1.0  0.77280  0.51070  0.86420  1.0000
  H   H552      1.0  0.72720  0.01070  0.63580  1.0000
  H   H553      1.0  0.28940  0.51250  0.15370  1.0000
  H   H554      1.0  0.21060  0.01250  0.34630  1.0000
  H   H555      1.0  0.71060  0.48750  0.84630  1.0000
  H   H556      1.0  0.78940  0.98750  0.65370  1.0000
  H   H557      1.0  0.28900  0.49590  0.11160  1.0000
  H   H558      1.0  0.21100  0.99590  0.38840  1.0000
  H   H559      1.0  0.71100  0.50410  0.88840  1.0000
  H   H560      1.0  0.78900  0.00410  0.61160  1.0000
  C   C353      1.0  0.23650  0.54620  0.11740  1.0000
  C   C354      1.0  0.26350  0.04620  0.38260  1.0000
  C   C355      1.0  0.76350  0.45380  0.88260  1.0000
  C   C356      1.0  0.73650  0.95380  0.61740  1.0000
  H   H561      1.0  0.21070  0.55970  0.13640  1.0000
  H   H562      1.0  0.28930  0.05970  0.36360  1.0000
  H   H563      1.0  0.78930  0.44030  0.86360  1.0000
  H   H564      1.0  0.71070  0.94030  0.63640  1.0000
  H   H565      1.0  0.20970  0.54280  0.09390  1.0000
  H   H566      1.0  0.29030  0.04280  0.40610  1.0000
  H   H567      1.0  0.79030  0.45720  0.90610  1.0000
  H   H568      1.0  0.70970  0.95720  0.59390  1.0000
  C   C357      1.0  0.30330  0.57130  0.11060  1.0000
  C   C358      1.0  0.19670  0.07130  0.38940  1.0000
  C   C359      1.0  0.69670  0.42870  0.88940  1.0000
  C   C360      1.0  0.80330  0.92870  0.61060  1.0000
  H   H569      1.0  0.32330  0.57690  0.13620  1.0000
  H   H570      1.0  0.17670  0.07690  0.36380  1.0000
  H   H571      1.0  0.67670  0.42310  0.86380  1.0000
  H   H572      1.0  0.82330  0.92310  0.63620  1.0000
  C   C361      1.0  0.35090  0.55090  0.09140  1.0000
  C   C362      1.0  0.14910  0.05090  0.40860  1.0000
  C   C363      1.0  0.64910  0.44910  0.90860  1.0000
  C   C364      1.0  0.85090  0.94910  0.59140  1.0000
  H   H573      1.0  0.33310  0.54260  0.06670  1.0000
  H   H574      1.0  0.16690  0.04260  0.43330  1.0000
  H   H575      1.0  0.66690  0.45740  0.93330  1.0000
  H   H576      1.0  0.83310  0.95740  0.56670  1.0000
  H   H577      1.0  0.36520  0.52660  0.10560  1.0000
  H   H578      1.0  0.13480  0.02660  0.39440  1.0000
  H   H579      1.0  0.63480  0.47340  0.89440  1.0000
  H   H580      1.0  0.86520  0.97340  0.60560  1.0000
  H   H581      1.0  0.38780  0.56920  0.08860  1.0000
  H   H582      1.0  0.11220  0.06920  0.41140  1.0000
  H   H583      1.0  0.61220  0.43080  0.91140  1.0000
  H   H584      1.0  0.88780  0.93080  0.58860  1.0000
  C   C365      1.0  0.40020  0.54320  0.99400  1.0000
  C   C366      1.0  0.09980  0.04320  0.50600  1.0000
  C   C367      1.0  0.59980  0.45680  0.00600  1.0000
  C   C368      1.0  0.90020  0.95680  0.49400  1.0000
  H   H585      1.0  0.42720  0.55150  0.01610  1.0000
  H   H586      1.0  0.07280  0.05150  0.48390  1.0000
  H   H587      1.0  0.57280  0.44850  0.98390  1.0000
  H   H588      1.0  0.92720  0.94850  0.51610  1.0000
  H   H589      1.0  0.40750  0.51420  0.98890  1.0000
  H   H590      1.0  0.09250  0.01420  0.51110  1.0000
  H   H591      1.0  0.59250  0.48580  0.01110  1.0000
  H   H592      1.0  0.90750  0.98580  0.48890  1.0000
  H   H593      1.0  0.35460  0.54760  0.99880  1.0000
  H   H594      1.0  0.14540  0.04760  0.50120  1.0000
  H   H595      1.0  0.64540  0.45240  0.00120  1.0000
  H   H596      1.0  0.85460  0.95240  0.49880  1.0000
  C   C369      1.0  0.41560  0.56530  0.96470  1.0000
  C   C370      1.0  0.08440  0.06530  0.53530  1.0000
  C   C371      1.0  0.58440  0.43470  0.03530  1.0000
  C   C372      1.0  0.91560  0.93470  0.46470  1.0000
  H   H597      1.0  0.40200  0.55040  0.94120  1.0000
  H   H598      1.0  0.09800  0.05040  0.55880  1.0000
  H   H599      1.0  0.59800  0.44960  0.05880  1.0000
  H   H600      1.0  0.90200  0.94960  0.44120  1.0000
  C   C373      1.0  0.48500  0.57950  0.96250  1.0000
  C   C374      1.0  0.01500  0.07950  0.53750  1.0000
  C   C375      1.0  0.51500  0.42050  0.03750  1.0000
  C   C376      1.0  0.98500  0.92050  0.46250  1.0000
  H   H601      1.0  0.50240  0.58740  0.98770  1.0000
  H   H602      1.0  0.99760  0.08740  0.51230  1.0000
  H   H603      1.0  0.49760  0.41260  0.01230  1.0000
  H   H604      1.0  0.00240  0.91260  0.48770  1.0000
  H   H605      1.0  0.48620  0.60370  0.94590  1.0000
  H   H606      1.0  0.01380  0.10370  0.55410  1.0000
  H   H607      1.0  0.51380  0.39630  0.05410  1.0000
  H   H608      1.0  0.98620  0.89630  0.44590  1.0000
  C   C377      1.0  0.52800  0.54160  0.94560  1.0000
  C   C378      1.0  0.97200  0.04160  0.55440  1.0000
  C   C379      1.0  0.47200  0.45840  0.05440  1.0000
  C   C380      1.0  0.02800  0.95840  0.44560  1.0000
  H   H609      1.0  0.49970  0.52270  0.93140  1.0000
  H   H610      1.0  0.00030  0.02270  0.56860  1.0000
  H   H611      1.0  0.50030  0.47730  0.06860  1.0000
  H   H612      1.0  0.99970  0.97730  0.43140  1.0000
  H   H613      1.0  0.55060  0.52690  0.96640  1.0000
  H   H614      1.0  0.94940  0.02690  0.53360  1.0000
  H   H615      1.0  0.44940  0.47310  0.03360  1.0000
  H   H616      1.0  0.05060  0.97310  0.46640  1.0000
  H   H617      1.0  0.56010  0.55290  0.92920  1.0000
  H   H618      1.0  0.93990  0.05290  0.57080  1.0000
  H   H619      1.0  0.43990  0.44710  0.07080  1.0000
  H   H620      1.0  0.06010  0.94710  0.42920  1.0000
  C   C381      1.0  0.55980  0.59400  0.08210  1.0000
  C   C382      1.0  0.94020  0.09400  0.41790  1.0000
  C   C383      1.0  0.44020  0.40600  0.91790  1.0000
  C   C384      1.0  0.05980  0.90600  0.58210  1.0000
  C   C385      1.0  0.55550  0.56220  0.10760  1.0000
  C   C386      1.0  0.94450  0.06220  0.39240  1.0000
  C   C387      1.0  0.44450  0.43780  0.89240  1.0000
  C   C388      1.0  0.05550  0.93780  0.60760  1.0000
  H   H621      1.0  0.52140  0.56180  0.12430  1.0000
  H   H622      1.0  0.97860  0.06180  0.37570  1.0000
  H   H623      1.0  0.47860  0.43820  0.87570  1.0000
  H   H624      1.0  0.02140  0.93820  0.62430  1.0000
  C   C389      1.0  0.60100  0.53100  0.10860  1.0000
  C   C390      1.0  0.89900  0.03100  0.39140  1.0000
  C   C391      1.0  0.39900  0.46900  0.89140  1.0000
  C   C392      1.0  0.10100  0.96900  0.60860  1.0000
  H   H625      1.0  0.59800  0.50920  0.12600  1.0000
  H   H626      1.0  0.90200  0.00920  0.37400  1.0000
  H   H627      1.0  0.40200  0.49080  0.87400  1.0000
  H   H628      1.0  0.09800  0.99080  0.62600  1.0000
  C   C393      1.0  0.65090  0.53160  0.08420  1.0000
  C   C394      1.0  0.84910  0.03160  0.41580  1.0000
  C   C395      1.0  0.34910  0.46840  0.91580  1.0000
  C   C396      1.0  0.15090  0.96840  0.58420  1.0000
  H   H629      1.0  0.68200  0.51030  0.08490  1.0000
  H   H630      1.0  0.81800  0.01030  0.41510  1.0000
  H   H631      1.0  0.31800  0.48970  0.91510  1.0000
  H   H632      1.0  0.18200  0.98970  0.58490  1.0000
  C   C397      1.0  0.65520  0.56340  0.05870  1.0000
  C   C398      1.0  0.84480  0.06340  0.44130  1.0000
  C   C399      1.0  0.34480  0.43660  0.94130  1.0000
  C   C400      1.0  0.15520  0.93660  0.55870  1.0000
  H   H633      1.0  0.68930  0.56390  0.04200  1.0000
  H   H634      1.0  0.81070  0.06390  0.45800  1.0000
  H   H635      1.0  0.31070  0.43610  0.95800  1.0000
  H   H636      1.0  0.18930  0.93610  0.54200  1.0000
  C   C401      1.0  0.60970  0.59460  0.05770  1.0000
  C   C402      1.0  0.89030  0.09460  0.44230  1.0000
  C   C403      1.0  0.39030  0.40540  0.94230  1.0000
  C   C404      1.0  0.10970  0.90540  0.55770  1.0000
  H   H637      1.0  0.61260  0.61640  0.04030  1.0000
  H   H638      1.0  0.88740  0.11640  0.45970  1.0000
  H   H639      1.0  0.38740  0.38360  0.95970  1.0000
  H   H640      1.0  0.11260  0.88360  0.54030  1.0000
  C   C405      1.0  0.46690  0.61370  0.22870  1.0000
  C   C406      1.0  0.03310  0.11370  0.27130  1.0000
  C   C407      1.0  0.53310  0.38630  0.77130  1.0000
  C   C408      1.0  0.96690  0.88630  0.72870  1.0000
  H   H641      1.0  0.49940  0.60420  0.21310  1.0000
  H   H642      1.0  0.00060  0.10420  0.28690  1.0000
  H   H643      1.0  0.50060  0.39580  0.78690  1.0000
  H   H644      1.0  0.99940  0.89580  0.71310  1.0000
  C   C409      1.0  0.40700  0.62600  0.21290  1.0000
  C   C410      1.0  0.09300  0.12600  0.28710  1.0000
  C   C411      1.0  0.59300  0.37400  0.78710  1.0000
  C   C412      1.0  0.90700  0.87400  0.71290  1.0000
  H   H645      1.0  0.39920  0.62500  0.18650  1.0000
  H   H646      1.0  0.10080  0.12500  0.31350  1.0000
  H   H647      1.0  0.60080  0.37500  0.81350  1.0000
  H   H648      1.0  0.89920  0.87500  0.68650  1.0000
  C   C413      1.0  0.35980  0.64000  0.23570  1.0000
  C   C414      1.0  0.14020  0.14000  0.26430  1.0000
  C   C415      1.0  0.64020  0.36000  0.76430  1.0000
  C   C416      1.0  0.85980  0.86000  0.73570  1.0000
  C   C417      1.0  0.37180  0.64150  0.27430  1.0000
  C   C418      1.0  0.12820  0.14150  0.22570  1.0000
  C   C419      1.0  0.62820  0.35850  0.72570  1.0000
  C   C420      1.0  0.87180  0.85850  0.77430  1.0000
  H   H649      1.0  0.33930  0.65100  0.28980  1.0000
  H   H650      1.0  0.16070  0.15100  0.21020  1.0000
  H   H651      1.0  0.66070  0.34900  0.71020  1.0000
  H   H652      1.0  0.83930  0.84900  0.78980  1.0000
  C   C421      1.0  0.43100  0.62910  0.29000  1.0000
  C   C422      1.0  0.06900  0.12910  0.21000  1.0000
  C   C423      1.0  0.56900  0.37090  0.71000  1.0000
  C   C424      1.0  0.93100  0.87090  0.79000  1.0000
  H   H653      1.0  0.43950  0.63020  0.31640  1.0000
  H   H654      1.0  0.06050  0.13020  0.18360  1.0000
  H   H655      1.0  0.56050  0.36980  0.68360  1.0000
  H   H656      1.0  0.93950  0.86980  0.81640  1.0000
  C   C425      1.0  0.47890  0.61520  0.26730  1.0000
  C   C426      1.0  0.02110  0.11520  0.23270  1.0000
  C   C427      1.0  0.52110  0.38480  0.73270  1.0000
  C   C428      1.0  0.97890  0.88480  0.76730  1.0000
  H   H657      1.0  0.51960  0.60670  0.27810  1.0000
  H   H658      1.0  0.98040  0.10670  0.22190  1.0000
  H   H659      1.0  0.48040  0.39330  0.72190  1.0000
  H   H660      1.0  0.01960  0.89330  0.77810  1.0000
  C   C429      1.0  0.32170  0.82870  0.22930  1.0000
  C   C430      1.0  0.17830  0.32870  0.27070  1.0000
  C   C431      1.0  0.67830  0.17130  0.77070  1.0000
  C   C432      1.0  0.82170  0.67130  0.72930  1.0000
  H   H661      1.0  0.31600  0.84350  0.20520  1.0000
  H   H662      1.0  0.18400  0.34350  0.29480  1.0000
  H   H663      1.0  0.68400  0.15650  0.79480  1.0000
  H   H664      1.0  0.81600  0.65650  0.70520  1.0000
  H   H665      1.0  0.34690  0.80410  0.22300  1.0000
  H   H666      1.0  0.15310  0.30410  0.27700  1.0000
  H   H667      1.0  0.65310  0.19590  0.77700  1.0000
  H   H668      1.0  0.84690  0.69590  0.72300  1.0000
  C   C433      1.0  0.26060  0.81130  0.23090  1.0000
  C   C434      1.0  0.23940  0.31130  0.26910  1.0000
  C   C435      1.0  0.73940  0.18870  0.76910  1.0000
  C   C436      1.0  0.76060  0.68870  0.73090  1.0000
  H   H669      1.0  0.23180  0.83570  0.23250  1.0000
  H   H670      1.0  0.26820  0.33570  0.26750  1.0000
  H   H671      1.0  0.76820  0.16430  0.76750  1.0000
  H   H672      1.0  0.73180  0.66430  0.73250  1.0000
  C   C437      1.0  0.24230  0.78550  0.26330  1.0000
  C   C438      1.0  0.25770  0.28550  0.23670  1.0000
  C   C439      1.0  0.75770  0.21450  0.73670  1.0000
  C   C440      1.0  0.74230  0.71450  0.76330  1.0000
  H   H673      1.0  0.19620  0.77890  0.26060  1.0000
  H   H674      1.0  0.30380  0.27890  0.23940  1.0000
  H   H675      1.0  0.80380  0.22110  0.73940  1.0000
  H   H676      1.0  0.69620  0.72110  0.76060  1.0000
  H   H677      1.0  0.25120  0.80060  0.28670  1.0000
  H   H678      1.0  0.24880  0.30060  0.21330  1.0000
  H   H679      1.0  0.74880  0.19940  0.71330  1.0000
  H   H680      1.0  0.75120  0.69940  0.78670  1.0000
  H   H681      1.0  0.26760  0.76020  0.26380  1.0000
  H   H682      1.0  0.23240  0.26020  0.23620  1.0000
  H   H683      1.0  0.73240  0.23980  0.73620  1.0000
  H   H684      1.0  0.76760  0.73980  0.76380  1.0000
  C   C441      1.0  0.99760  0.79910  0.25270  1.0000
  C   C442      1.0  0.50240  0.29910  0.24730  1.0000
  C   C443      1.0  0.00240  0.20090  0.74730  1.0000
  C   C444      1.0  0.49760  0.70090  0.75270  1.0000
  C   C445      1.0  0.93010  0.80760  0.25290  1.0000
  C   C446      1.0  0.56990  0.30760  0.24710  1.0000
  C   C447      1.0  0.06990  0.19240  0.74710  1.0000
  C   C448      1.0  0.43010  0.69240  0.75290  1.0000
  H   H685      1.0  0.89730  0.78740  0.25020  1.0000
  H   H686      1.0  0.60270  0.28740  0.24980  1.0000
  H   H687      1.0  0.10270  0.21260  0.74980  1.0000
  H   H688      1.0  0.39730  0.71260  0.75020  1.0000
  C   C449      1.0  0.91820  0.84960  0.25760  1.0000
  C   C450      1.0  0.58180  0.34960  0.24240  1.0000
  C   C451      1.0  0.08180  0.15040  0.74240  1.0000
  C   C452      1.0  0.41820  0.65040  0.75760  1.0000
  H   H689      1.0  0.87540  0.85840  0.26130  1.0000
  H   H690      1.0  0.62460  0.35840  0.23870  1.0000
  H   H691      1.0  0.12460  0.14160  0.73870  1.0000
  H   H692      1.0  0.37540  0.64160  0.76130  1.0000
  C   C453      1.0  0.96490  0.87710  0.25690  1.0000
  C   C454      1.0  0.53510  0.37710  0.24310  1.0000
  C   C455      1.0  0.03510  0.12290  0.74310  1.0000
  C   C456      1.0  0.46490  0.62290  0.75690  1.0000
  H   H693      1.0  0.95330  0.90520  0.25720  1.0000
  H   H694      1.0  0.54670  0.40520  0.24280  1.0000
  H   H695      1.0  0.04670  0.09480  0.74280  1.0000
  H   H696      1.0  0.45330  0.59480  0.75720  1.0000
  C   C457      1.0  0.02520  0.86780  0.25580  1.0000
  C   C458      1.0  0.47480  0.36780  0.24420  1.0000
  C   C459      1.0  0.97480  0.13220  0.74420  1.0000
  C   C460      1.0  0.52520  0.63220  0.75580  1.0000
  H   H697      1.0  0.05570  0.88950  0.25650  1.0000
  H   H698      1.0  0.44430  0.38950  0.24350  1.0000
  H   H699      1.0  0.94430  0.11050  0.74350  1.0000
  H   H700      1.0  0.55570  0.61050  0.75650  1.0000
  C   C461      1.0  0.04770  0.82860  0.25380  1.0000
  C   C462      1.0  0.45230  0.32860  0.24620  1.0000
  C   C463      1.0  0.95230  0.17140  0.74620  1.0000
  C   C464      1.0  0.54770  0.67140  0.75380  1.0000
  H   H701      1.0  0.09220  0.82190  0.25310  1.0000
  H   H702      1.0  0.40780  0.32190  0.24690  1.0000
  H   H703      1.0  0.90780  0.17810  0.74690  1.0000
  H   H704      1.0  0.59220  0.67810  0.75310  1.0000
  C   C465      1.0  0.89430  0.80560  0.15310  1.0000
  C   C466      1.0  0.60570  0.30560  0.34690  1.0000
  C   C467      1.0  0.10570  0.19440  0.84690  1.0000
  C   C468      1.0  0.39430  0.69440  0.65310  1.0000
  H   H705      1.0  0.86870  0.80290  0.12940  1.0000
  H   H706      1.0  0.63130  0.30290  0.37060  1.0000
  H   H707      1.0  0.13130  0.19710  0.87060  1.0000
  H   H708      1.0  0.36870  0.69710  0.62940  1.0000
  H   H709      1.0  0.86760  0.81790  0.17190  1.0000
  H   H710      1.0  0.63240  0.31790  0.32810  1.0000
  H   H711      1.0  0.13240  0.18210  0.82810  1.0000
  H   H712      1.0  0.36760  0.68210  0.67190  1.0000
  H   H713      1.0  0.90910  0.77860  0.16160  1.0000
  H   H714      1.0  0.59090  0.27860  0.33840  1.0000
  H   H715      1.0  0.09090  0.22140  0.83840  1.0000
  H   H716      1.0  0.40910  0.72140  0.66160  1.0000
  C   C469      1.0  0.94890  0.83120  0.14770  1.0000
  C   C470      1.0  0.55110  0.33120  0.35230  1.0000
  C   C471      1.0  0.05110  0.16880  0.85230  1.0000
  C   C472      1.0  0.44890  0.66880  0.64770  1.0000
  H   H717      1.0  0.96440  0.83500  0.17450  1.0000
  H   H718      1.0  0.53560  0.33500  0.32550  1.0000
  H   H719      1.0  0.03560  0.16500  0.82550  1.0000
  H   H720      1.0  0.46440  0.66500  0.67450  1.0000
  C   C473      1.0  0.94600  0.87440  0.13600  1.0000
  C   C474      1.0  0.55400  0.37440  0.36400  1.0000
  C   C475      1.0  0.05400  0.12560  0.86400  1.0000
  C   C476      1.0  0.44600  0.62560  0.63600  1.0000
  H   H721      1.0  0.93590  0.87520  0.10870  1.0000
  H   H722      1.0  0.56410  0.37520  0.39130  1.0000
  H   H723      1.0  0.06410  0.12480  0.89130  1.0000
  H   H724      1.0  0.43590  0.62480  0.60870  1.0000
  H   H725      1.0  0.98930  0.88650  0.14080  1.0000
  H   H726      1.0  0.51070  0.38650  0.35920  1.0000
  H   H727      1.0  0.01070  0.11350  0.85920  1.0000
  H   H728      1.0  0.48930  0.61350  0.64080  1.0000
  C   C477      1.0  0.89780  0.90090  0.15450  1.0000
  C   C478      1.0  0.60220  0.40090  0.34550  1.0000
  C   C479      1.0  0.10220  0.09910  0.84550  1.0000
  C   C480      1.0  0.39780  0.59910  0.65450  1.0000
  H   H729      1.0  0.85430  0.89510  0.14380  1.0000
  H   H730      1.0  0.64570  0.39510  0.35620  1.0000
  H   H731      1.0  0.14570  0.10490  0.85620  1.0000
  H   H732      1.0  0.35430  0.60490  0.64380  1.0000
  H   H733      1.0  0.90820  0.92970  0.15040  1.0000
  H   H734      1.0  0.59180  0.42970  0.34960  1.0000
  H   H735      1.0  0.09180  0.07030  0.84960  1.0000
  H   H736      1.0  0.40820  0.57030  0.65040  1.0000
  H   H737      1.0  0.89960  0.89530  0.18150  1.0000
  H   H738      1.0  0.60040  0.39530  0.31850  1.0000
  H   H739      1.0  0.10040  0.10470  0.81850  1.0000
  H   H740      1.0  0.39960  0.60470  0.68150  1.0000
  C   C481      1.0  0.86600  0.64630  0.09000  1.0000
  C   C482      1.0  0.63400  0.14630  0.41000  1.0000
  C   C483      1.0  0.13400  0.35370  0.91000  1.0000
  C   C484      1.0  0.36600  0.85370  0.59000  1.0000
  C   C485      1.0  0.85500  0.61600  0.11600  1.0000
  C   C486      1.0  0.64500  0.11600  0.38400  1.0000
  C   C487      1.0  0.14500  0.38400  0.88400  1.0000
  C   C488      1.0  0.35500  0.88400  0.61600  1.0000
  H   H741      1.0  0.86190  0.62160  0.14200  1.0000
  H   H742      1.0  0.63810  0.12160  0.35800  1.0000
  H   H743      1.0  0.13810  0.37840  0.85800  1.0000
  H   H744      1.0  0.36190  0.87840  0.64200  1.0000
  C   C489      1.0  0.83400  0.57800  0.10400  1.0000
  C   C490      1.0  0.66600  0.07800  0.39600  1.0000
  C   C491      1.0  0.16600  0.42200  0.89600  1.0000
  C   C492      1.0  0.33400  0.92200  0.60400  1.0000
  H   H745      1.0  0.82650  0.55690  0.12210  1.0000
  H   H746      1.0  0.67350  0.05690  0.37790  1.0000
  H   H747      1.0  0.17350  0.44310  0.87790  1.0000
  H   H748      1.0  0.32650  0.94310  0.62210  1.0000
  C   C493      1.0  0.82400  0.56940  0.06600  1.0000
  C   C494      1.0  0.67600  0.06940  0.43400  1.0000
  C   C495      1.0  0.17600  0.43060  0.93400  1.0000
  C   C496      1.0  0.32400  0.93060  0.56600  1.0000
  H   H749      1.0  0.80920  0.54320  0.05810  1.0000
  H   H750      1.0  0.69080  0.04320  0.44190  1.0000
  H   H751      1.0  0.19080  0.45680  0.94190  1.0000
  H   H752      1.0  0.30920  0.95680  0.55810  1.0000
  C   C497      1.0  0.83400  0.60000  0.04000  1.0000
  C   C498      1.0  0.66600  0.10000  0.46000  1.0000
  C   C499      1.0  0.16600  0.40000  0.96000  1.0000
  C   C500      1.0  0.33400  0.90000  0.54000  1.0000
  H   H753      1.0  0.82740  0.59410  0.01410  1.0000
  H   H754      1.0  0.67260  0.09410  0.48590  1.0000
  H   H755      1.0  0.17260  0.40590  0.98590  1.0000
  H   H756      1.0  0.32740  0.90590  0.51410  1.0000
  C   C501      1.0  0.85500  0.63800  0.05200  1.0000
  C   C502      1.0  0.64500  0.13800  0.44800  1.0000
  C   C503      1.0  0.14500  0.36200  0.94800  1.0000
  C   C504      1.0  0.35500  0.86200  0.55200  1.0000
  H   H757      1.0  0.86280  0.65880  0.03400  1.0000
  H   H758      1.0  0.63720  0.15880  0.46600  1.0000
  H   H759      1.0  0.13720  0.34120  0.96600  1.0000
  H   H760      1.0  0.36280  0.84120  0.53400  1.0000
  C   C505      1.0  0.08420  0.63490  0.22710  1.0000
  C   C506      1.0  0.41580  0.13490  0.27290  1.0000
  C   C507      1.0  0.91580  0.36510  0.77290  1.0000
  C   C508      1.0  0.58420  0.86510  0.72710  1.0000
  H   H761      1.0  0.13020  0.64190  0.22960  1.0000
  H   H762      1.0  0.36980  0.14190  0.27040  1.0000
  H   H763      1.0  0.86980  0.35810  0.77040  1.0000
  H   H764      1.0  0.63020  0.85810  0.72960  1.0000
  H   H765      1.0  0.07640  0.60980  0.24100  1.0000
  H   H766      1.0  0.42360  0.10980  0.25900  1.0000
  H   H767      1.0  0.92360  0.39020  0.75900  1.0000
  H   H768      1.0  0.57640  0.89020  0.74100  1.0000
  H   H769      1.0  0.05880  0.65720  0.23720  1.0000
  H   H770      1.0  0.44120  0.15720  0.26280  1.0000
  H   H771      1.0  0.94120  0.34280  0.76280  1.0000
  H   H772      1.0  0.55880  0.84280  0.73720  1.0000
  C   C509      1.0  0.06330  0.62840  0.18420  1.0000
  C   C510      1.0  0.43670  0.12840  0.31580  1.0000
  C   C511      1.0  0.93670  0.37160  0.81580  1.0000
  C   C512      1.0  0.56330  0.87160  0.68420  1.0000
  H   H773      1.0  0.01750  0.63800  0.18400  1.0000
  H   H774      1.0  0.48250  0.13800  0.31600  1.0000
  H   H775      1.0  0.98250  0.36200  0.81600  1.0000
  H   H776      1.0  0.51750  0.86200  0.68400  1.0000
  C   C513      1.0  0.05300  0.58550  0.16690  1.0000
  C   C514      1.0  0.44700  0.08550  0.33310  1.0000
  C   C515      1.0  0.94700  0.41450  0.83310  1.0000
  C   C516      1.0  0.55300  0.91450  0.66690  1.0000
  H   H777      1.0  0.09400  0.57010  0.16850  1.0000
  H   H778      1.0  0.40600  0.07010  0.33150  1.0000
  H   H779      1.0  0.90600  0.42990  0.83150  1.0000
  H   H780      1.0  0.59400  0.92990  0.66850  1.0000
  H   H781      1.0  0.03830  0.58800  0.14020  1.0000
  H   H782      1.0  0.46170  0.08800  0.35980  1.0000
  H   H783      1.0  0.96170  0.41200  0.85980  1.0000
  H   H784      1.0  0.53830  0.91200  0.64020  1.0000
  C   C517      1.0  0.00100  0.56220  0.18870  1.0000
  C   C518      1.0  0.49900  0.06220  0.31130  1.0000
  C   C519      1.0  0.99900  0.43780  0.81130  1.0000
  C   C520      1.0  0.50100  0.93780  0.68870  1.0000
  H   H785      1.0  0.99580  0.53440  0.17890  1.0000
  H   H786      1.0  0.50420  0.03440  0.32110  1.0000
  H   H787      1.0  0.00420  0.46560  0.82110  1.0000
  H   H788      1.0  0.49580  0.96560  0.67890  1.0000
  H   H789      1.0  0.95930  0.57660  0.18560  1.0000
  H   H790      1.0  0.54070  0.07660  0.31440  1.0000
  H   H791      1.0  0.04070  0.42340  0.81440  1.0000
  H   H792      1.0  0.45930  0.92340  0.68560  1.0000
  H   H793      1.0  0.01420  0.56110  0.21540  1.0000
  H   H794      1.0  0.48580  0.06110  0.28460  1.0000
  H   H795      1.0  0.98580  0.43890  0.78460  1.0000
  H   H796      1.0  0.51420  0.93890  0.71540  1.0000
  C   C521      1.0  0.02290  0.50970  0.08710  1.0000
  C   C522      1.0  0.47710  0.00970  0.41290  1.0000
  C   C523      1.0  0.97710  0.49030  0.91290  1.0000
  C   C524      1.0  0.52290  0.99030  0.58710  1.0000
  H   H797      1.0  0.02900  0.48660  0.07020  1.0000
  H   H798      1.0  0.47100  0.98660  0.42980  1.0000
  H   H799      1.0  0.97100  0.51340  0.92980  1.0000
  H   H800      1.0  0.52900  0.01340  0.57020  1.0000
  H   H801      1.0  0.97660  0.51480  0.08890  1.0000
  H   H802      1.0  0.52340  0.01480  0.41110  1.0000
  H   H803      1.0  0.02340  0.48520  0.91110  1.0000
  H   H804      1.0  0.47660  0.98520  0.58890  1.0000
  H   H805      1.0  0.04230  0.50320  0.11200  1.0000
  H   H806      1.0  0.45770  0.00320  0.38800  1.0000
  H   H807      1.0  0.95770  0.49680  0.88800  1.0000
  H   H808      1.0  0.54230  0.99680  0.61200  1.0000
  C   C525      1.0  0.05730  0.55010  0.07090  1.0000
  C   C526      1.0  0.44270  0.05010  0.42910  1.0000
  C   C527      1.0  0.94270  0.44990  0.92910  1.0000
  C   C528      1.0  0.55730  0.94990  0.57090  1.0000
  H   H809      1.0  0.07170  0.56760  0.09230  1.0000
  H   H810      1.0  0.42830  0.06760  0.40770  1.0000
  H   H811      1.0  0.92830  0.43240  0.90770  1.0000
  H   H812      1.0  0.57170  0.93240  0.59230  1.0000
  H   H813      1.0  0.09640  0.54140  0.05830  1.0000
  H   H814      1.0  0.40360  0.04140  0.44170  1.0000
  H   H815      1.0  0.90360  0.45860  0.94170  1.0000
  H   H816      1.0  0.59640  0.95860  0.55830  1.0000
  C   C529      1.0  0.01850  0.57370  0.04560  1.0000
  C   C530      1.0  0.48150  0.07370  0.45440  1.0000
  C   C531      1.0  0.98150  0.42630  0.95440  1.0000
  C   C532      1.0  0.51850  0.92630  0.54560  1.0000
  H   H817      1.0  0.98340  0.58480  0.06080  1.0000
  H   H818      1.0  0.51660  0.08480  0.43920  1.0000
  H   H819      1.0  0.01660  0.41520  0.93920  1.0000
  H   H820      1.0  0.48340  0.91520  0.56080  1.0000
  C   C533      1.0  0.98080  0.55740  0.00590  1.0000
  C   C534      1.0  0.51920  0.05740  0.49410  1.0000
  C   C535      1.0  0.01920  0.44260  0.99410  1.0000
  C   C536      1.0  0.48080  0.94260  0.50590  1.0000
  H   H821      1.0  0.97150  0.58070  0.98930  1.0000
  H   H822      1.0  0.52850  0.08070  0.51070  1.0000
  H   H823      1.0  0.02850  0.41930  0.01070  1.0000
  H   H824      1.0  0.47150  0.91930  0.48930  1.0000
  H   H825      1.0  0.94030  0.54390  0.01160  1.0000
  H   H826      1.0  0.55970  0.04390  0.48840  1.0000
  H   H827      1.0  0.05970  0.45610  0.98840  1.0000
  H   H828      1.0  0.44030  0.95610  0.51160  1.0000
  H   H829      1.0  0.00860  0.53800  0.99350  1.0000
  H   H830      1.0  0.49140  0.03800  0.50650  1.0000
  H   H831      1.0  0.99140  0.46200  0.00650  1.0000
  H   H832      1.0  0.50860  0.96200  0.49350  1.0000
  C   C537      1.0  0.47200  0.71120  0.19110  1.0000
  C   C538      1.0  0.02800  0.21120  0.30890  1.0000
  C   C539      1.0  0.52800  0.28880  0.80890  1.0000
  C   C540      1.0  0.97200  0.78880  0.69110  1.0000
  H   H833      1.0  0.47490  0.68580  0.17670  1.0000
  H   H834      1.0  0.02510  0.18580  0.32330  1.0000
  H   H835      1.0  0.52510  0.31420  0.82330  1.0000
  H   H836      1.0  0.97490  0.81420  0.67670  1.0000
  H   H837      1.0  0.43010  0.71290  0.20200  1.0000
  H   H838      1.0  0.06990  0.21290  0.29800  1.0000
  H   H839      1.0  0.56990  0.28710  0.79800  1.0000
  H   H840      1.0  0.93010  0.78710  0.70200  1.0000
  H   H841      1.0  0.50650  0.71140  0.21110  1.0000
  H   H842      1.0  0.99350  0.21140  0.28890  1.0000
  H   H843      1.0  0.49350  0.28860  0.78890  1.0000
  H   H844      1.0  0.00650  0.78860  0.71110  1.0000
  C   C541      1.0  0.48090  0.74800  0.16500  1.0000
  C   C542      1.0  0.01910  0.24800  0.33500  1.0000
  C   C543      1.0  0.51910  0.25200  0.83500  1.0000
  C   C544      1.0  0.98090  0.75200  0.66500  1.0000
  H   H845      1.0  0.52420  0.74500  0.15430  1.0000
  H   H846      1.0  0.97580  0.24500  0.34570  1.0000
  H   H847      1.0  0.47580  0.25500  0.84570  1.0000
  H   H848      1.0  0.02420  0.75500  0.65430  1.0000
  C   C545      1.0  0.47800  0.78850  0.17980  1.0000
  C   C546      1.0  0.02200  0.28850  0.32020  1.0000
  C   C547      1.0  0.52200  0.21150  0.82020  1.0000
  C   C548      1.0  0.97800  0.71150  0.67980  1.0000
  H   H849      1.0  0.43650  0.79110  0.19210  1.0000
  H   H850      1.0  0.06350  0.29110  0.30790  1.0000
  H   H851      1.0  0.56350  0.20890  0.80790  1.0000
  H   H852      1.0  0.93650  0.70890  0.69210  1.0000
  H   H853      1.0  0.47640  0.80760  0.15840  1.0000
  H   H854      1.0  0.02360  0.30760  0.34160  1.0000
  H   H855      1.0  0.52360  0.19240  0.84160  1.0000
  H   H856      1.0  0.97640  0.69240  0.65840  1.0000
  C   C549      1.0  0.53400  0.80370  0.20910  1.0000
  C   C550      1.0  0.96600  0.30370  0.29090  1.0000
  C   C551      1.0  0.46600  0.19630  0.79090  1.0000
  C   C552      1.0  0.03400  0.69630  0.70910  1.0000
  H   H857      1.0  0.52500  0.83180  0.21680  1.0000
  H   H858      1.0  0.97500  0.33180  0.28320  1.0000
  H   H859      1.0  0.47500  0.16820  0.78320  1.0000
  H   H860      1.0  0.02500  0.66820  0.71680  1.0000
  H   H861      1.0  0.57560  0.80290  0.19730  1.0000
  H   H862      1.0  0.92440  0.30290  0.30270  1.0000
  H   H863      1.0  0.42440  0.19710  0.80270  1.0000
  H   H864      1.0  0.07560  0.69710  0.69730  1.0000
  H   H865      1.0  0.53590  0.78580  0.23110  1.0000
  H   H866      1.0  0.96410  0.28580  0.26890  1.0000
  H   H867      1.0  0.46410  0.21420  0.76890  1.0000
  H   H868      1.0  0.03590  0.71420  0.73110  1.0000
  C   C553      1.0  0.60360  0.86360  0.10730  1.0000
  C   C554      1.0  0.89640  0.36360  0.39270  1.0000
  C   C555      1.0  0.39640  0.13640  0.89270  1.0000
  C   C556      1.0  0.10360  0.63640  0.60730  1.0000
  C   C557      1.0  0.66610  0.84820  0.11150  1.0000
  C   C558      1.0  0.83390  0.34820  0.38850  1.0000
  C   C559      1.0  0.33390  0.15180  0.88850  1.0000
  C   C560      1.0  0.16610  0.65180  0.61150  1.0000
  H   H869      1.0  0.67580  0.82220  0.10160  1.0000
  H   H870      1.0  0.82420  0.32220  0.39840  1.0000
  H   H871      1.0  0.32420  0.17780  0.89840  1.0000
  H   H872      1.0  0.17580  0.67780  0.60160  1.0000
  C   C561      1.0  0.71440  0.87110  0.13010  1.0000
  C   C562      1.0  0.78560  0.37110  0.36990  1.0000
  C   C563      1.0  0.28560  0.12890  0.86990  1.0000
  C   C564      1.0  0.21440  0.62890  0.63010  1.0000
  H   H873      1.0  0.75710  0.86060  0.13300  1.0000
  H   H874      1.0  0.74290  0.36060  0.36700  1.0000
  H   H875      1.0  0.24290  0.13940  0.86700  1.0000
  H   H876      1.0  0.25710  0.63940  0.63300  1.0000
  C   C565      1.0  0.70020  0.90920  0.14460  1.0000
  C   C566      1.0  0.79980  0.40920  0.35540  1.0000
  C   C567      1.0  0.29980  0.09080  0.85540  1.0000
  C   C568      1.0  0.20020  0.59080  0.64460  1.0000
  H   H877      1.0  0.73320  0.92480  0.15730  1.0000
  H   H878      1.0  0.76680  0.42480  0.34270  1.0000
  H   H879      1.0  0.26680  0.07520  0.84270  1.0000
  H   H880      1.0  0.23320  0.57520  0.65730  1.0000
  C   C569      1.0  0.63800  0.92460  0.14040  1.0000
  C   C570      1.0  0.86200  0.42460  0.35960  1.0000
  C   C571      1.0  0.36200  0.07540  0.85960  1.0000
  C   C572      1.0  0.13800  0.57540  0.64040  1.0000
  H   H881      1.0  0.62800  0.95070  0.15020  1.0000
  H   H882      1.0  0.87200  0.45070  0.34980  1.0000
  H   H883      1.0  0.37200  0.04930  0.84980  1.0000
  H   H884      1.0  0.12800  0.54930  0.65020  1.0000
  C   C573      1.0  0.58940  0.90180  0.12170  1.0000
  C   C574      1.0  0.91060  0.40180  0.37830  1.0000
  C   C575      1.0  0.41060  0.09820  0.87830  1.0000
  C   C576      1.0  0.08940  0.59820  0.62170  1.0000
  H   H885      1.0  0.54670  0.91230  0.11890  1.0000
  H   H886      1.0  0.95330  0.41230  0.38110  1.0000
  H   H887      1.0  0.45330  0.08770  0.88110  1.0000
  H   H888      1.0  0.04670  0.58770  0.61890  1.0000
  Mo  Mo1       1.0  0.18228  0.74858  0.07212  1.0000
  Mo  Mo2       1.0  0.31772  0.24858  0.42788  1.0000
  Mo  Mo3       1.0  0.81772  0.25142  0.92788  1.0000
  Mo  Mo4       1.0  0.68228  0.75142  0.57212  1.0000
  Mo  Mo5       1.0  0.32711  0.74615  0.02333  1.0000
  Mo  Mo6       1.0  0.17289  0.24615  0.47667  1.0000
  Mo  Mo7       1.0  0.67289  0.25385  0.97667  1.0000
  Mo  Mo8       1.0  0.82711  0.75385  0.52333  1.0000
  Mo  Mo9       1.0  0.20207  0.80382  0.98530  1.0000
  Mo  Mo10      1.0  0.29793  0.30382  0.51470  1.0000
  Mo  Mo11      1.0  0.79793  0.19618  0.01470  1.0000
  Mo  Mo12      1.0  0.70207  0.69618  0.48530  1.0000
  Mo  Mo13      1.0  0.18838  0.70260  0.98557  1.0000
  Mo  Mo14      1.0  0.31162  0.20260  0.51443  1.0000
  Mo  Mo15      1.0  0.81162  0.29740  0.01443  1.0000
  Mo  Mo16      1.0  0.68838  0.79740  0.48557  1.0000
  Mo  Mo17      1.0  0.29358  0.75251  0.92324  1.0000
  Mo  Mo18      1.0  0.20642  0.25251  0.57676  1.0000
  Mo  Mo19      1.0  0.70642  0.24749  0.07676  1.0000
  Mo  Mo20      1.0  0.79358  0.74749  0.42324  1.0000
  O   O1        1.0  0.30000  0.70080  0.91030  1.0000
  O   O2        1.0  0.20000  0.20080  0.58970  1.0000
  O   O3        1.0  0.70000  0.29920  0.08970  1.0000
  O   O4        1.0  0.80000  0.79920  0.41030  1.0000
  O   O5        1.0  0.37490  0.77000  0.92140  1.0000
  O   O6        1.0  0.12510  0.27000  0.57860  1.0000
  O   O7        1.0  0.62510  0.23000  0.07860  1.0000
  O   O8        1.0  0.87490  0.73000  0.42140  1.0000
  O   O9        1.0  0.25480  0.77580  0.88650  1.0000
  O   O10       1.0  0.24520  0.27580  0.61350  1.0000
  O   O11       1.0  0.74520  0.22420  0.11350  1.0000
  O   O12       1.0  0.75480  0.72420  0.38650  1.0000
  O   O13       1.0  0.27230  0.80440  0.95410  1.0000
  O   O14       1.0  0.22770  0.30440  0.54590  1.0000
  O   O15       1.0  0.72770  0.19560  0.04590  1.0000
  O   O16       1.0  0.77230  0.69560  0.45410  1.0000
  O   O17       1.0  0.37970  0.78130  0.02520  1.0000
  O   O18       1.0  0.12030  0.28130  0.47480  1.0000
  O   O19       1.0  0.62030  0.21870  0.97480  1.0000
  O   O20       1.0  0.87970  0.71870  0.52520  1.0000
  O   O21       1.0  0.35640  0.70550  0.04300  1.0000
  O   O22       1.0  0.14360  0.20550  0.45700  1.0000
  O   O23       1.0  0.64360  0.29450  0.95700  1.0000
  O   O24       1.0  0.85640  0.79450  0.54300  1.0000
  O   O25       1.0  0.34130  0.73010  0.97960  1.0000
  O   O26       1.0  0.15870  0.23010  0.52040  1.0000
  O   O27       1.0  0.65870  0.26990  0.02040  1.0000
  O   O28       1.0  0.84130  0.76990  0.47960  1.0000
  O   O29       1.0  0.20380  0.74040  0.94730  1.0000
  O   O30       1.0  0.29620  0.24040  0.55270  1.0000
  O   O31       1.0  0.79620  0.25960  0.05270  1.0000
  O   O32       1.0  0.70380  0.75960  0.44730  1.0000
  O   O33       1.0  0.22490  0.66100  0.97750  1.0000
  O   O34       1.0  0.27510  0.16100  0.52250  1.0000
  O   O35       1.0  0.77510  0.33900  0.02250  1.0000
  O   O36       1.0  0.72490  0.83900  0.47750  1.0000
  O   O37       1.0  0.11330  0.69720  0.97630  1.0000
  O   O38       1.0  0.38670  0.19720  0.52370  1.0000
  O   O39       1.0  0.88670  0.30280  0.02370  1.0000
  O   O40       1.0  0.61330  0.80280  0.47630  1.0000
  O   O41       1.0  0.19610  0.69710  0.03760  1.0000
  O   O42       1.0  0.30390  0.19710  0.46240  1.0000
  O   O43       1.0  0.80390  0.30290  0.96240  1.0000
  O   O44       1.0  0.69610  0.80290  0.53760  1.0000
  O   O45       1.0  0.15240  0.77240  0.01620  1.0000
  O   O46       1.0  0.34760  0.27240  0.48380  1.0000
  O   O47       1.0  0.84760  0.22760  0.98380  1.0000
  O   O48       1.0  0.65240  0.72760  0.51620  1.0000
  O   O49       1.0  0.28370  0.76340  0.06210  1.0000
  O   O50       1.0  0.21630  0.26340  0.43790  1.0000
  O   O51       1.0  0.71630  0.23660  0.93790  1.0000
  O   O52       1.0  0.78370  0.73660  0.56210  1.0000
  O   O53       1.0  0.22660  0.84240  0.00970  1.0000
  O   O54       1.0  0.27340  0.34240  0.49030  1.0000
  O   O55       1.0  0.77340  0.15760  0.99030  1.0000
  O   O56       1.0  0.72660  0.65760  0.50970  1.0000
  O   O57       1.0  0.13860  0.81920  0.95990  1.0000
  O   O58       1.0  0.36140  0.31920  0.54010  1.0000
  O   O59       1.0  0.86140  0.18080  0.04010  1.0000
  O   O60       1.0  0.63860  0.68080  0.45990  1.0000
  O   O61       1.0  0.18130  0.80060  0.08660  1.0000
  O   O62       1.0  0.31870  0.30060  0.41340  1.0000
  O   O63       1.0  0.81870  0.19940  0.91340  1.0000
  O   O64       1.0  0.68130  0.69940  0.58660  1.0000
  O   O65       1.0  0.22360  0.72450  0.10950  1.0000
  O   O66       1.0  0.27640  0.22450  0.39050  1.0000
  O   O67       1.0  0.77640  0.27550  0.89050  1.0000
  O   O68       1.0  0.72360  0.77550  0.60950  1.0000
  O   O69       1.0  0.10300  0.73240  0.07540  1.0000
  O   O70       1.0  0.39700  0.23240  0.42460  1.0000
  O   O71       1.0  0.89700  0.26760  0.92460  1.0000
  O   O72       1.0  0.60300  0.76760  0.57540  1.0000
  O   O73       1.0  0.00750  0.72650  0.28570  1.0000
  O   O74       1.0  0.49250  0.22650  0.21430  1.0000
  O   O75       1.0  0.99250  0.27350  0.71430  1.0000
  O   O76       1.0  0.50750  0.77350  0.78570  1.0000
  O   O77       1.0  0.09020  0.74320  0.24510  1.0000
  O   O78       1.0  0.40980  0.24320  0.25490  1.0000
  O   O79       1.0  0.90980  0.25680  0.75490  1.0000
  O   O80       1.0  0.59020  0.75680  0.74510  1.0000
  O   O81       1.0  0.98230  0.72810  0.21980  1.0000
  O   O82       1.0  0.51770  0.22810  0.28020  1.0000
  O   O83       1.0  0.01770  0.27190  0.78020  1.0000
  O   O84       1.0  0.48230  0.77190  0.71980  1.0000
  O   O85       1.0  0.86560  0.72480  0.08380  1.0000
  O   O86       1.0  0.63440  0.22480  0.41620  1.0000
  O   O87       1.0  0.13440  0.27520  0.91620  1.0000
  O   O88       1.0  0.36560  0.77520  0.58380  1.0000
  O   O89       1.0  0.91980  0.69920  0.14130  1.0000
  O   O90       1.0  0.58020  0.19920  0.35870  1.0000
  O   O91       1.0  0.08020  0.30080  0.85870  1.0000
  O   O92       1.0  0.41980  0.80080  0.64130  1.0000
  O   O93       1.0  0.96190  0.69320  0.07960  1.0000
  O   O94       1.0  0.53810  0.19320  0.42040  1.0000
  O   O95       1.0  0.03810  0.30680  0.92040  1.0000
  O   O96       1.0  0.46190  0.80680  0.57960  1.0000
  O   O97       1.0  0.02200  0.91890  0.93750  1.0000
  O   O98       1.0  0.47800  0.41890  0.56250  1.0000
  O   O99       1.0  0.97800  0.08110  0.06250  1.0000
  O   O100      1.0  0.52200  0.58110  0.43750  1.0000
  O   O101      1.0  0.00980  0.87290  0.88010  1.0000
  O   O102      1.0  0.49020  0.37290  0.61990  1.0000
  O   O103      1.0  0.99020  0.12710  0.11990  1.0000
  O   O104      1.0  0.50980  0.62710  0.38010  1.0000
  O   O105      1.0  0.98890  0.84650  0.94230  1.0000
  O   O106      1.0  0.51110  0.34650  0.55770  1.0000
  O   O107      1.0  0.01110  0.15350  0.05770  1.0000
  O   O108      1.0  0.48890  0.65350  0.44230  1.0000
  O   O109      1.0  0.12170  0.87980  0.19600  1.0000
  O   O110      1.0  0.37830  0.37980  0.30400  1.0000
  O   O111      1.0  0.87830  0.12020  0.80400  1.0000
  O   O112      1.0  0.62170  0.62020  0.69600  1.0000
  O   O113      1.0  0.16050  0.89000  0.13310  1.0000
  O   O114      1.0  0.33950  0.39000  0.36690  1.0000
  O   O115      1.0  0.83950  0.11000  0.86690  1.0000
  O   O116      1.0  0.66050  0.61000  0.63310  1.0000
  O   O117      1.0  0.22090  0.91080  0.18480  1.0000
  O   O118      1.0  0.27910  0.41080  0.31520  1.0000
  O   O119      1.0  0.77910  0.08920  0.81520  1.0000
  O   O120      1.0  0.72090  0.58920  0.68480  1.0000
  O   O121      1.0  0.23330  0.96540  0.04370  1.0000
  O   O122      1.0  0.26670  0.46540  0.45630  1.0000
  O   O123      1.0  0.76670  0.03460  0.95630  1.0000
  O   O124      1.0  0.73330  0.53460  0.54370  1.0000
  O   O125      1.0  0.29710  0.94100  0.99430  1.0000
  O   O126      1.0  0.20290  0.44100  0.50570  1.0000
  O   O127      1.0  0.70290  0.05900  0.00570  1.0000
  O   O128      1.0  0.79710  0.55900  0.49430  1.0000
  O   O129      1.0  0.19070  0.96940  0.97780  1.0000
  O   O130      1.0  0.30930  0.46940  0.52220  1.0000
  O   O131      1.0  0.80930  0.03060  0.02220  1.0000
  O   O132      1.0  0.69070  0.53060  0.47780  1.0000
  O   O133      1.0  0.24470  0.68230  0.23640  1.0000
  O   O134      1.0  0.25530  0.18230  0.26360  1.0000
  O   O135      1.0  0.75530  0.31770  0.76360  1.0000
  O   O136      1.0  0.74470  0.81770  0.73640  1.0000
  O   O137      1.0  0.30170  0.67650  0.17970  1.0000
  O   O138      1.0  0.19830  0.17650  0.32030  1.0000
  O   O139      1.0  0.69830  0.32350  0.82030  1.0000
  O   O140      1.0  0.80170  0.82350  0.67970  1.0000
  O   O141      1.0  0.25530  0.60640  0.19910  1.0000
  O   O142      1.0  0.24470  0.10640  0.30090  1.0000
  O   O143      1.0  0.74470  0.39360  0.80090  1.0000
  O   O144      1.0  0.75530  0.89360  0.69910  1.0000
  O   O145      1.0  0.46880  0.63070  0.11920  1.0000
  O   O146      1.0  0.03120  0.13070  0.38080  1.0000
  O   O147      1.0  0.53120  0.36930  0.88080  1.0000
  O   O148      1.0  0.96880  0.86930  0.61920  1.0000
  O   O149      1.0  0.54680  0.67240  0.08890  1.0000
  O   O150      1.0  0.95320  0.17240  0.41110  1.0000
  O   O151      1.0  0.45320  0.32760  0.91110  1.0000
  O   O152      1.0  0.04680  0.82760  0.58890  1.0000
  O   O153      1.0  0.46370  0.63240  0.05140  1.0000
  O   O154      1.0  0.03630  0.13240  0.44860  1.0000
  O   O155      1.0  0.53630  0.36760  0.94860  1.0000
  O   O156      1.0  0.96370  0.86760  0.55140  1.0000
  O   O157      1.0  0.22720  0.56120  0.01480  1.0000
  O   O158      1.0  0.27280  0.06120  0.48520  1.0000
  O   O159      1.0  0.77280  0.43880  0.98520  1.0000
  O   O160      1.0  0.72720  0.93880  0.51480  1.0000
  O   O161      1.0  0.24840  0.53330  0.95340  1.0000
  O   O162      1.0  0.25160  0.03330  0.54660  1.0000
  O   O163      1.0  0.75160  0.46670  0.04660  1.0000
  O   O164      1.0  0.74840  0.96670  0.45340  1.0000
  O   O165      1.0  0.13830  0.53860  0.97340  1.0000
  O   O166      1.0  0.36170  0.03860  0.52660  1.0000
  O   O167      1.0  0.86170  0.46140  0.02660  1.0000
  O   O168      1.0  0.63830  0.96140  0.47340  1.0000
  O   O169      1.0  0.98950  0.60620  0.92740  1.0000
  O   O170      1.0  0.51050  0.10620  0.57260  1.0000
  O   O171      1.0  0.01050  0.39380  0.07260  1.0000
  O   O172      1.0  0.48950  0.89380  0.42740  1.0000
  O   O173      1.0  0.92390  0.65700  0.96190  1.0000
  O   O174      1.0  0.57610  0.15700  0.53810  1.0000
  O   O175      1.0  0.07610  0.34300  0.03810  1.0000
  O   O176      1.0  0.42390  0.84300  0.46190  1.0000
  O   O177      1.0  0.99000  0.67850  0.91160  1.0000
  O   O178      1.0  0.51000  0.17850  0.58840  1.0000
  O   O179      1.0  0.01000  0.32150  0.08840  1.0000
  O   O180      1.0  0.49000  0.82150  0.41160  1.0000
  O   O181      1.0  0.56330  0.79220  0.09110  1.0000
  O   O182      1.0  0.93670  0.29220  0.40890  1.0000
  O   O183      1.0  0.43670  0.20780  0.90890  1.0000
  O   O184      1.0  0.06330  0.70780  0.59110  1.0000
  O   O185      1.0  0.48270  0.84750  0.09200  1.0000
  O   O186      1.0  0.01730  0.34750  0.40800  1.0000
  O   O187      1.0  0.51730  0.15250  0.90800  1.0000
  O   O188      1.0  0.98270  0.65250  0.59200  1.0000
  O   O189      1.0  0.55510  0.84370  0.04040  1.0000
  O   O190      1.0  0.94490  0.34370  0.45960  1.0000
  O   O191      1.0  0.44490  0.15630  0.95960  1.0000
  O   O192      1.0  0.05510  0.65630  0.54040  1.0000
  O   O193      1.0  0.58620  0.83330  0.94590  1.0000
  O   O194      1.0  0.91380  0.33330  0.55410  1.0000
  O   O195      1.0  0.41380  0.16670  0.05410  1.0000
  O   O196      1.0  0.08620  0.66670  0.44590  1.0000
  O   O197      1.0  0.51720  0.80030  0.89780  1.0000
  O   O198      1.0  0.98280  0.30030  0.60220  1.0000
  O   O199      1.0  0.48280  0.19970  0.10220  1.0000
  O   O200      1.0  0.01720  0.69970  0.39780  1.0000
  O   O201      1.0  0.54520  0.86990  0.89240  1.0000
  O   O202      1.0  0.95480  0.36990  0.60760  1.0000
  O   O203      1.0  0.45480  0.13010  0.10760  1.0000
  O   O204      1.0  0.04520  0.63010  0.39240  1.0000
  O   O205      1.0  0.38230  0.61260  0.85030  1.0000
  O   O206      1.0  0.11770  0.11260  0.64970  1.0000
  O   O207      1.0  0.61770  0.38740  0.14970  1.0000
  O   O208      1.0  0.88230  0.88740  0.35030  1.0000
  O   O209      1.0  0.31630  0.56170  0.87340  1.0000
  O   O210      1.0  0.18370  0.06170  0.62660  1.0000
  O   O211      1.0  0.68370  0.43830  0.12660  1.0000
  O   O212      1.0  0.81630  0.93830  0.37340  1.0000
  O   O213      1.0  0.29060  0.60290  0.82180  1.0000
  O   O214      1.0  0.20940  0.10290  0.67820  1.0000
  O   O215      1.0  0.70940  0.39710  0.17820  1.0000
  O   O216      1.0  0.79060  0.89710  0.32180  1.0000
  O   O217      1.0  0.34990  0.78430  0.73370  1.0000
  O   O218      1.0  0.15010  0.28430  0.76630  1.0000
  O   O219      1.0  0.65010  0.21570  0.26630  1.0000
  O   O220      1.0  0.84990  0.71570  0.23370  1.0000
  H   H889      1.0  0.38400  0.77400  0.72500  1.0000
  H   H890      1.0  0.11600  0.27400  0.77500  1.0000
  H   H891      1.0  0.61600  0.22600  0.27500  1.0000
  H   H892      1.0  0.88400  0.72600  0.22500  1.0000
  S   S1        1.0  0.56640  0.83090  0.90641  1.0000
  S   S2        1.0  0.93360  0.33090  0.59359  1.0000
  S   S3        1.0  0.43360  0.16910  0.09359  1.0000
  S   S4        1.0  0.06640  0.66910  0.40641  1.0000
  S   S5        1.0  0.37130  0.83137  0.83671  1.0000
  S   S6        1.0  0.12870  0.33137  0.66329  1.0000
  S   S7        1.0  0.62870  0.16863  0.16329  1.0000
  S   S8        1.0  0.87130  0.66863  0.33671  1.0000
  S   S9        1.0  0.19490  0.89187  0.90628  1.0000
  S   S10       1.0  0.30510  0.39187  0.59372  1.0000
  S   S11       1.0  0.80510  0.10813  0.09372  1.0000
  S   S12       1.0  0.69490  0.60813  0.40628  1.0000
  S   S13       1.0  0.25820  0.71102  0.80730  1.0000
  S   S14       1.0  0.24180  0.21102  0.69270  1.0000
  S   S15       1.0  0.74180  0.28898  0.19270  1.0000
  S   S16       1.0  0.75820  0.78898  0.30730  1.0000
  S   S17       1.0  0.07700  0.76406  0.87700  1.0000
  S   S18       1.0  0.42300  0.26406  0.62300  1.0000
  S   S19       1.0  0.92300  0.23594  0.12300  1.0000
  S   S20       1.0  0.57700  0.73594  0.37700  1.0000
  S   S21       1.0  0.98850  0.88323  0.91951  1.0000
  S   S22       1.0  0.51150  0.38323  0.58049  1.0000
  S   S23       1.0  0.01150  0.11677  0.08049  1.0000
  S   S24       1.0  0.48850  0.61677  0.41951  1.0000
  S   S25       1.0  0.24860  0.96994  0.00420  1.0000
  S   S26       1.0  0.25140  0.46994  0.49580  1.0000
  S   S27       1.0  0.75140  0.03006  0.99580  1.0000
  S   S28       1.0  0.74860  0.53006  0.50420  1.0000
  S   S29       1.0  0.41390  0.86755  0.96816  1.0000
  S   S30       1.0  0.08610  0.36755  0.53184  1.0000
  S   S31       1.0  0.58610  0.13245  0.03184  1.0000
  S   S32       1.0  0.91390  0.63245  0.46816  1.0000
  S   S33       1.0  0.46440  0.70373  0.87011  1.0000
  S   S34       1.0  0.03560  0.20373  0.62989  1.0000
  S   S35       1.0  0.53560  0.29627  0.12989  1.0000
  S   S36       1.0  0.96440  0.79627  0.37011  1.0000
  S   S37       1.0  0.33920  0.58330  0.84141  1.0000
  S   S38       1.0  0.16080  0.08330  0.65859  1.0000
  S   S39       1.0  0.66080  0.41670  0.15859  1.0000
  S   S40       1.0  0.83920  0.91670  0.34141  1.0000
  S   S41       1.0  0.15800  0.62254  0.89930  1.0000
  S   S42       1.0  0.34200  0.12254  0.60070  1.0000
  S   S43       1.0  0.84200  0.37746  0.10070  1.0000
  S   S44       1.0  0.65800  0.87746  0.39930  1.0000
  S   S45       1.0  0.37290  0.61764  0.96512  1.0000
  S   S46       1.0  0.12710  0.11764  0.53488  1.0000
  S   S47       1.0  0.62710  0.38236  0.03488  1.0000
  S   S48       1.0  0.87290  0.88236  0.46512  1.0000
  S   S49       1.0  0.51610  0.73669  0.00036  1.0000
  S   S50       1.0  0.98390  0.23669  0.49964  1.0000
  S   S51       1.0  0.48390  0.26331  0.99964  1.0000
  S   S52       1.0  0.01610  0.76331  0.50036  1.0000
  S   S53       1.0  0.54620  0.83430  0.08100  1.0000
  S   S54       1.0  0.95380  0.33430  0.41900  1.0000
  S   S55       1.0  0.45380  0.16570  0.91900  1.0000
  S   S56       1.0  0.04620  0.66570  0.58100  1.0000
  S   S57       1.0  0.31510  0.87305  0.08976  1.0000
  S   S58       1.0  0.18490  0.37305  0.41024  1.0000
  S   S59       1.0  0.68490  0.12695  0.91024  1.0000
  S   S60       1.0  0.81510  0.62695  0.58976  1.0000
  S   S61       1.0  0.09400  0.89153  0.03320  1.0000
  S   S62       1.0  0.40600  0.39153  0.46680  1.0000
  S   S63       1.0  0.90600  0.10847  0.96680  1.0000
  S   S64       1.0  0.59400  0.60847  0.53320  1.0000
  S   S65       1.0  0.98030  0.76119  0.00012  1.0000
  S   S66       1.0  0.51970  0.26119  0.49988  1.0000
  S   S67       1.0  0.01970  0.23881  0.99988  1.0000
  S   S68       1.0  0.48030  0.73881  0.50012  1.0000
  S   S69       1.0  0.95260  0.64660  0.92619  1.0000
  S   S70       1.0  0.54740  0.14660  0.57381  1.0000
  S   S71       1.0  0.04740  0.35340  0.07381  1.0000
  S   S72       1.0  0.45260  0.85340  0.42619  1.0000
  S   S73       1.0  0.20520  0.53336  0.98503  1.0000
  S   S74       1.0  0.29480  0.03336  0.51497  1.0000
  S   S75       1.0  0.79480  0.46664  0.01497  1.0000
  S   S76       1.0  0.70520  0.96664  0.48503  1.0000
  S   S77       1.0  0.50560  0.63530  0.08519  1.0000
  S   S78       1.0  0.99440  0.13530  0.41481  1.0000
  S   S79       1.0  0.49440  0.36470  0.91481  1.0000
  S   S80       1.0  0.00560  0.86470  0.58519  1.0000
  S   S81       1.0  0.41810  0.74063  0.12511  1.0000
  S   S82       1.0  0.08190  0.24063  0.37489  1.0000
  S   S83       1.0  0.58190  0.25937  0.87489  1.0000
  S   S84       1.0  0.91810  0.75937  0.62511  1.0000
  S   S85       1.0  0.22870  0.78559  0.18806  1.0000
  S   S86       1.0  0.27130  0.28559  0.31194  1.0000
  S   S87       1.0  0.77130  0.21441  0.81194  1.0000
  S   S88       1.0  0.72870  0.71441  0.68806  1.0000
  S   S89       1.0  0.01860  0.80218  0.13074  1.0000
  S   S90       1.0  0.48140  0.30218  0.36926  1.0000
  S   S91       1.0  0.98140  0.19782  0.86926  1.0000
  S   S92       1.0  0.51860  0.69782  0.63074  1.0000
  S   S93       1.0  0.15730  0.90640  0.17010  1.0000
  S   S94       1.0  0.34270  0.40640  0.32990  1.0000
  S   S95       1.0  0.84270  0.09360  0.82990  1.0000
  S   S96       1.0  0.65730  0.59360  0.67010  1.0000
  S   S97       1.0  0.90370  0.69280  0.10090  1.0000
  S   S98       1.0  0.59630  0.19280  0.39910  1.0000
  S   S99       1.0  0.09630  0.30720  0.89910  1.0000
  S   S100      1.0  0.40370  0.80720  0.60090  1.0000
  S   S101      1.0  0.06410  0.62188  0.02877  1.0000
  S   S102      1.0  0.43590  0.12188  0.47123  1.0000
  S   S103      1.0  0.93590  0.37812  0.97123  1.0000
  S   S104      1.0  0.56410  0.87812  0.52877  1.0000
  S   S105      1.0  0.28400  0.62108  0.09045  1.0000
  S   S106      1.0  0.21600  0.12108  0.40955  1.0000
  S   S107      1.0  0.71600  0.37892  0.90955  1.0000
  S   S108      1.0  0.78400  0.87892  0.59045  1.0000
  S   S109      1.0  0.28770  0.65690  0.21240  1.0000
  S   S110      1.0  0.21230  0.15690  0.28760  1.0000
  S   S111      1.0  0.71230  0.34310  0.78760  1.0000
  S   S112      1.0  0.78770  0.84310  0.71240  1.0000
  S   S113      1.0  0.09910  0.67031  0.15761  1.0000
  S   S114      1.0  0.40090  0.17031  0.34239  1.0000
  S   S115      1.0  0.90090  0.32969  0.84239  1.0000
  S   S116      1.0  0.59910  0.82969  0.65761  1.0000
  S   S117      1.0  0.02330  0.74520  0.25197  1.0000
  S   S118      1.0  0.47670  0.24520  0.24803  1.0000
  S   S119      1.0  0.97670  0.25480  0.74803  1.0000
  S   S120      1.0  0.52330  0.75480  0.75197  1.0000
  C   C577      1.0  0.15900  0.85600  0.74410  1.0000
  C   C578      1.0  0.34100  0.35600  0.75590  1.0000
  C   C579      1.0  0.84100  0.14400  0.25590  1.0000
  C   C580      1.0  0.65900  0.64400  0.24410  1.0000
  C   C581      1.0  0.13500  0.83690  0.71200  1.0000
  C   C582      1.0  0.36500  0.33690  0.78800  1.0000
  C   C583      1.0  0.86500  0.16310  0.28800  1.0000
  C   C584      1.0  0.63500  0.66310  0.21200  1.0000
  H   H893      1.0  0.11700  0.81030  0.71310  1.0000
  H   H894      1.0  0.38300  0.31030  0.78690  1.0000
  H   H895      1.0  0.88300  0.18970  0.28690  1.0000
  H   H896      1.0  0.61700  0.68970  0.21310  1.0000
  C   C585      1.0  0.13800  0.85600  0.67720  1.0000
  C   C586      1.0  0.36200  0.35600  0.82280  1.0000
  C   C587      1.0  0.86200  0.14400  0.32280  1.0000
  C   C588      1.0  0.63800  0.64400  0.17720  1.0000
  H   H897      1.0  0.12200  0.84280  0.65510  1.0000
  H   H898      1.0  0.37800  0.34280  0.84490  1.0000
  H   H899      1.0  0.87800  0.15720  0.34490  1.0000
  H   H900      1.0  0.62200  0.65720  0.15510  1.0000
  C   C589      1.0  0.16500  0.89500  0.67510  1.0000
  C   C590      1.0  0.33500  0.39500  0.82490  1.0000
  C   C591      1.0  0.83500  0.10500  0.32490  1.0000
  C   C592      1.0  0.66500  0.60500  0.17510  1.0000
  H   H901      1.0  0.16700  0.90810  0.65150  1.0000
  H   H902      1.0  0.33300  0.40810  0.84850  1.0000
  H   H903      1.0  0.83300  0.09190  0.34850  1.0000
  H   H904      1.0  0.66700  0.59190  0.15150  1.0000
  C   C593      1.0  0.18900  0.91450  0.70700  1.0000
  C   C594      1.0  0.31100  0.41450  0.79300  1.0000
  C   C595      1.0  0.81100  0.08550  0.29300  1.0000
  C   C596      1.0  0.68900  0.58550  0.20700  1.0000
  H   H905      1.0  0.20690  0.94110  0.70600  1.0000
  H   H906      1.0  0.29310  0.44110  0.79400  1.0000
  H   H907      1.0  0.79310  0.05890  0.29400  1.0000
  H   H908      1.0  0.70690  0.55890  0.20600  1.0000
  C   C597      1.0  0.18600  0.89500  0.74200  1.0000
  C   C598      1.0  0.31400  0.39500  0.75800  1.0000
  C   C599      1.0  0.81400  0.10500  0.25800  1.0000
  C   C600      1.0  0.68600  0.60500  0.24200  1.0000
  H   H909      1.0  0.20180  0.90870  0.76410  1.0000
  H   H910      1.0  0.29820  0.40870  0.73590  1.0000
  H   H911      1.0  0.79820  0.09130  0.23590  1.0000
  H   H912      1.0  0.70180  0.59130  0.26410  1.0000
  O   O221      1.0  0.12110  0.78850  0.77800  1.0000
  O   O222      1.0  0.37890  0.28850  0.72200  1.0000
  O   O223      1.0  0.87890  0.21150  0.22200  1.0000
  O   O224      1.0  0.62110  0.71150  0.27800  1.0000
  O   O225      1.0  0.11180  0.85220  0.81130  1.0000
  O   O226      1.0  0.38820  0.35220  0.68870  1.0000
  O   O227      1.0  0.88820  0.14780  0.18870  1.0000
  O   O228      1.0  0.61180  0.64780  0.31130  1.0000
  O   O229      1.0  0.20910  0.83850  0.79840  1.0000
  O   O230      1.0  0.29090  0.33850  0.70160  1.0000
  O   O231      1.0  0.79090  0.16150  0.20160  1.0000
  O   O232      1.0  0.70910  0.66150  0.29840  1.0000
  S   S121      1.0  0.15170  0.82740  0.78660  1.0000
  S   S122      1.0  0.34830  0.32740  0.71340  1.0000
  S   S123      1.0  0.84830  0.17260  0.21340  1.0000
  S   S124      1.0  0.65170  0.67260  0.28660  1.0000
  C   C601      1.0  0.38800  0.86000  0.25300  1.0000
  C   C602      1.0  0.11200  0.36000  0.24700  1.0000
  C   C603      1.0  0.61200  0.14000  0.74700  1.0000
  C   C604      1.0  0.88800  0.64000  0.75300  1.0000
  H   H913      1.0  0.42350  0.86360  0.23620  1.0000
  H   H914      1.0  0.07650  0.36360  0.26380  1.0000
  H   H915      1.0  0.57650  0.13640  0.76380  1.0000
  H   H916      1.0  0.92350  0.63640  0.73620  1.0000
  H   H917      1.0  0.40400  0.84690  0.27610  1.0000
  H   H918      1.0  0.09600  0.34690  0.22390  1.0000
  H   H919      1.0  0.59600  0.15310  0.72390  1.0000
  H   H920      1.0  0.90400  0.65310  0.77610  1.0000
  H   H921      1.0  0.37090  0.88750  0.25910  1.0000
  H   H922      1.0  0.12910  0.38750  0.24090  1.0000
  H   H923      1.0  0.62910  0.11250  0.74090  1.0000
  H   H924      1.0  0.87090  0.61250  0.75910  1.0000
