data_image0
_chemical_formula_structural       Ga2Fe2O24C12H12
_chemical_formula_sum              "Ga2 Fe2 O24 C12 H12"
_cell_length_a       8.242
_cell_length_b       8.242
_cell_length_c       13.674
_cell_angle_alpha    90
_cell_angle_beta     90
_cell_angle_gamma    120

_space_group_name_H-M_alt    "P 1"
_space_group_IT_number       1

loop_
  _space_group_symop_operation_xyz
  'x, y, z'

loop_
  _atom_site_type_symbol
  _atom_site_label
  _atom_site_symmetry_multiplicity
  _atom_site_fract_x
  _atom_site_fract_y
  _atom_site_fract_z
  _atom_site_occupancy
  Ga  Ga1       1.0  0.00000  0.00000  0.00000  1.0000
  Ga  Ga2       1.0  0.00000  0.00000  0.50000  1.0000
  Fe  Fe1       1.0  0.66670  0.33330  0.25000  1.0000
  Fe  Fe2       1.0  0.33330  0.66670  0.75000  1.0000
  O   O1        1.0  0.45400  0.11490  0.16566  1.0000
  O   O2        1.0  0.88510  0.33910  0.16566  1.0000
  O   O3        1.0  0.66090  0.54600  0.16566  1.0000
  O   O4        1.0  0.88510  0.54600  0.33434  1.0000
  O   O5        1.0  0.45400  0.33910  0.33434  1.0000
  O   O6        1.0  0.66090  0.11490  0.33434  1.0000
  O   O7        1.0  0.54600  0.88510  0.83434  1.0000
  O   O8        1.0  0.11490  0.66090  0.83434  1.0000
  O   O9        1.0  0.33910  0.45400  0.83434  1.0000
  O   O10       1.0  0.11490  0.45400  0.66566  1.0000
  O   O11       1.0  0.54600  0.66090  0.66566  1.0000
  O   O12       1.0  0.33910  0.88510  0.66566  1.0000
  O   O13       1.0  0.19020  0.98620  0.08144  1.0000
  O   O14       1.0  0.01380  0.20400  0.08144  1.0000
  O   O15       1.0  0.79600  0.80980  0.08144  1.0000
  O   O16       1.0  0.01380  0.80980  0.41856  1.0000
  O   O17       1.0  0.19020  0.20400  0.41856  1.0000
  O   O18       1.0  0.79600  0.98620  0.41856  1.0000
  O   O19       1.0  0.80980  0.01380  0.91856  1.0000
  O   O20       1.0  0.98620  0.79600  0.91856  1.0000
  O   O21       1.0  0.20400  0.19020  0.91856  1.0000
  O   O22       1.0  0.98620  0.19020  0.58144  1.0000
  O   O23       1.0  0.80980  0.79600  0.58144  1.0000
  O   O24       1.0  0.20400  0.01380  0.58144  1.0000
  C   C1        1.0  0.33310  0.12480  0.11724  1.0000
  C   C2        1.0  0.87520  0.20830  0.11724  1.0000
  C   C3        1.0  0.79170  0.66690  0.11724  1.0000
  C   C4        1.0  0.87520  0.66690  0.38276  1.0000
  C   C5        1.0  0.33310  0.20830  0.38276  1.0000
  C   C6        1.0  0.79170  0.12480  0.38276  1.0000
  C   C7        1.0  0.66690  0.87520  0.88276  1.0000
  C   C8        1.0  0.12480  0.79170  0.88276  1.0000
  C   C9        1.0  0.20830  0.33310  0.88276  1.0000
  C   C10       1.0  0.12480  0.33310  0.61724  1.0000
  C   C11       1.0  0.66690  0.79170  0.61724  1.0000
  C   C12       1.0  0.20830  0.87520  0.61724  1.0000
  H   H1        1.0  0.34850  0.24300  0.10640  1.0000
  H   H2        1.0  0.75700  0.10550  0.10640  1.0000
  H   H3        1.0  0.89450  0.65150  0.10640  1.0000
  H   H4        1.0  0.75700  0.65150  0.39360  1.0000
  H   H5        1.0  0.34850  0.10550  0.39360  1.0000
  H   H6        1.0  0.89450  0.24300  0.39360  1.0000
  H   H7        1.0  0.65150  0.75700  0.89360  1.0000
  H   H8        1.0  0.24300  0.89450  0.89360  1.0000
  H   H9        1.0  0.10550  0.34850  0.89360  1.0000
  H   H10       1.0  0.24300  0.34850  0.60640  1.0000
  H   H11       1.0  0.65150  0.89450  0.60640  1.0000
  H   H12       1.0  0.10550  0.75700  0.60640  1.0000
