data_image0
_chemical_formula_structural       Zn112O288N192O96N96O96N384O96C288H96C192H96C192H96C192H96C192H96C384H192C96H192C288H96C96H96C192H96C96H96C96H96C96H96C96H96
_chemical_formula_sum              "Zn112 O576 N672 C2496 H1536"
_cell_length_a       51.4591
_cell_length_b       51.4591
_cell_length_c       51.4591
_cell_angle_alpha    90
_cell_angle_beta     90
_cell_angle_gamma    90

_space_group_name_H-M_alt    "P 1"
_space_group_IT_number       1

loop_
  _space_group_symop_operation_xyz
  'x, y, z'

loop_
  _atom_site_type_symbol
  _atom_site_label
  _atom_site_symmetry_multiplicity
  _atom_site_fract_x
  _atom_site_fract_y
  _atom_site_fract_z
  _atom_site_occupancy
  Zn  Zn1       1.0  0.86294  0.57651  0.49857  1.0000
  Zn  Zn2       1.0  0.38706  0.67349  0.49857  1.0000
  Zn  Zn3       1.0  0.38706  0.57651  0.75143  1.0000
  Zn  Zn4       1.0  0.86294  0.67349  0.75143  1.0000
  Zn  Zn5       1.0  0.49857  0.86294  0.57651  1.0000
  Zn  Zn6       1.0  0.49857  0.38706  0.67349  1.0000
  Zn  Zn7       1.0  0.75143  0.38706  0.57651  1.0000
  Zn  Zn8       1.0  0.75143  0.86294  0.67349  1.0000
  Zn  Zn9       1.0  0.57651  0.49857  0.86294  1.0000
  Zn  Zn10      1.0  0.67349  0.49857  0.38706  1.0000
  Zn  Zn11      1.0  0.57651  0.75143  0.38706  1.0000
  Zn  Zn12      1.0  0.67349  0.75143  0.86294  1.0000
  Zn  Zn13      1.0  0.86294  0.07651  0.99857  1.0000
  Zn  Zn14      1.0  0.38706  0.17349  0.99857  1.0000
  Zn  Zn15      1.0  0.38706  0.07651  0.25143  1.0000
  Zn  Zn16      1.0  0.86294  0.17349  0.25143  1.0000
  Zn  Zn17      1.0  0.49857  0.36294  0.07651  1.0000
  Zn  Zn18      1.0  0.49857  0.88706  0.17349  1.0000
  Zn  Zn19      1.0  0.75143  0.88706  0.07651  1.0000
  Zn  Zn20      1.0  0.75143  0.36294  0.17349  1.0000
  Zn  Zn21      1.0  0.57651  0.99857  0.36294  1.0000
  Zn  Zn22      1.0  0.67349  0.99857  0.88706  1.0000
  Zn  Zn23      1.0  0.57651  0.25143  0.88706  1.0000
  Zn  Zn24      1.0  0.67349  0.25143  0.36294  1.0000
  Zn  Zn25      1.0  0.36294  0.57651  0.99857  1.0000
  Zn  Zn26      1.0  0.88706  0.67349  0.99857  1.0000
  Zn  Zn27      1.0  0.88706  0.57651  0.25143  1.0000
  Zn  Zn28      1.0  0.36294  0.67349  0.25143  1.0000
  Zn  Zn29      1.0  0.99857  0.86294  0.07651  1.0000
  Zn  Zn30      1.0  0.99857  0.38706  0.17349  1.0000
  Zn  Zn31      1.0  0.25143  0.38706  0.07651  1.0000
  Zn  Zn32      1.0  0.25143  0.86294  0.17349  1.0000
  Zn  Zn33      1.0  0.07651  0.49857  0.36294  1.0000
  Zn  Zn34      1.0  0.17349  0.49857  0.88706  1.0000
  Zn  Zn35      1.0  0.07651  0.75143  0.88706  1.0000
  Zn  Zn36      1.0  0.17349  0.75143  0.36294  1.0000
  Zn  Zn37      1.0  0.36294  0.07651  0.49857  1.0000
  Zn  Zn38      1.0  0.88706  0.17349  0.49857  1.0000
  Zn  Zn39      1.0  0.88706  0.07651  0.75143  1.0000
  Zn  Zn40      1.0  0.36294  0.17349  0.75143  1.0000
  Zn  Zn41      1.0  0.99857  0.36294  0.57651  1.0000
  Zn  Zn42      1.0  0.99857  0.88706  0.67349  1.0000
  Zn  Zn43      1.0  0.25143  0.88706  0.57651  1.0000
  Zn  Zn44      1.0  0.25143  0.36294  0.67349  1.0000
  Zn  Zn45      1.0  0.07651  0.99857  0.86294  1.0000
  Zn  Zn46      1.0  0.17349  0.99857  0.38706  1.0000
  Zn  Zn47      1.0  0.07651  0.25143  0.38706  1.0000
  Zn  Zn48      1.0  0.17349  0.25143  0.86294  1.0000
  Zn  Zn49      1.0  0.13706  0.42349  0.50143  1.0000
  Zn  Zn50      1.0  0.61294  0.32651  0.50143  1.0000
  Zn  Zn51      1.0  0.61294  0.42349  0.24857  1.0000
  Zn  Zn52      1.0  0.13706  0.32651  0.24857  1.0000
  Zn  Zn53      1.0  0.50143  0.13706  0.42349  1.0000
  Zn  Zn54      1.0  0.50143  0.61294  0.32651  1.0000
  Zn  Zn55      1.0  0.24857  0.61294  0.42349  1.0000
  Zn  Zn56      1.0  0.24857  0.13706  0.32651  1.0000
  Zn  Zn57      1.0  0.42349  0.50143  0.13706  1.0000
  Zn  Zn58      1.0  0.32651  0.50143  0.61294  1.0000
  Zn  Zn59      1.0  0.42349  0.24857  0.61294  1.0000
  Zn  Zn60      1.0  0.32651  0.24857  0.13706  1.0000
  Zn  Zn61      1.0  0.13706  0.92349  0.00143  1.0000
  Zn  Zn62      1.0  0.61294  0.82651  0.00143  1.0000
  Zn  Zn63      1.0  0.61294  0.92349  0.74857  1.0000
  Zn  Zn64      1.0  0.13706  0.82651  0.74857  1.0000
  Zn  Zn65      1.0  0.50143  0.63706  0.92349  1.0000
  Zn  Zn66      1.0  0.50143  0.11294  0.82651  1.0000
  Zn  Zn67      1.0  0.24857  0.11294  0.92349  1.0000
  Zn  Zn68      1.0  0.24857  0.63706  0.82651  1.0000
  Zn  Zn69      1.0  0.42349  0.00143  0.63706  1.0000
  Zn  Zn70      1.0  0.32651  0.00143  0.11294  1.0000
  Zn  Zn71      1.0  0.42349  0.74857  0.11294  1.0000
  Zn  Zn72      1.0  0.32651  0.74857  0.63706  1.0000
  Zn  Zn73      1.0  0.63706  0.42349  0.00143  1.0000
  Zn  Zn74      1.0  0.11294  0.32651  0.00143  1.0000
  Zn  Zn75      1.0  0.11294  0.42349  0.74857  1.0000
  Zn  Zn76      1.0  0.63706  0.32651  0.74857  1.0000
  Zn  Zn77      1.0  0.00143  0.13706  0.92349  1.0000
  Zn  Zn78      1.0  0.00143  0.61294  0.82651  1.0000
  Zn  Zn79      1.0  0.74857  0.61294  0.92349  1.0000
  Zn  Zn80      1.0  0.74857  0.13706  0.82651  1.0000
  Zn  Zn81      1.0  0.92349  0.50143  0.63706  1.0000
  Zn  Zn82      1.0  0.82651  0.50143  0.11294  1.0000
  Zn  Zn83      1.0  0.92349  0.24857  0.11294  1.0000
  Zn  Zn84      1.0  0.82651  0.24857  0.63706  1.0000
  Zn  Zn85      1.0  0.63706  0.92349  0.50143  1.0000
  Zn  Zn86      1.0  0.11294  0.82651  0.50143  1.0000
  Zn  Zn87      1.0  0.11294  0.92349  0.24857  1.0000
  Zn  Zn88      1.0  0.63706  0.82651  0.24857  1.0000
  Zn  Zn89      1.0  0.00143  0.63706  0.42349  1.0000
  Zn  Zn90      1.0  0.00143  0.11294  0.32651  1.0000
  Zn  Zn91      1.0  0.74857  0.11294  0.42349  1.0000
  Zn  Zn92      1.0  0.74857  0.63706  0.32651  1.0000
  Zn  Zn93      1.0  0.92349  0.00143  0.13706  1.0000
  Zn  Zn94      1.0  0.82651  0.00143  0.61294  1.0000
  Zn  Zn95      1.0  0.92349  0.74857  0.61294  1.0000
  Zn  Zn96      1.0  0.82651  0.74857  0.13706  1.0000
  Zn  Zn97      1.0  0.75000  0.50000  0.25000  1.0000
  Zn  Zn98      1.0  0.50000  0.75000  0.25000  1.0000
  Zn  Zn99      1.0  0.50000  0.50000  0.00000  1.0000
  Zn  Zn100     1.0  0.75000  0.75000  0.00000  1.0000
  Zn  Zn101     1.0  0.25000  0.75000  0.50000  1.0000
  Zn  Zn102     1.0  0.25000  0.50000  0.75000  1.0000
  Zn  Zn103     1.0  0.00000  0.50000  0.50000  1.0000
  Zn  Zn104     1.0  0.00000  0.75000  0.75000  1.0000
  Zn  Zn105     1.0  0.50000  0.25000  0.75000  1.0000
  Zn  Zn106     1.0  0.75000  0.25000  0.50000  1.0000
  Zn  Zn107     1.0  0.50000  0.00000  0.50000  1.0000
  Zn  Zn108     1.0  0.75000  0.00000  0.75000  1.0000
  Zn  Zn109     1.0  0.25000  0.25000  0.00000  1.0000
  Zn  Zn110     1.0  0.25000  0.00000  0.25000  1.0000
  Zn  Zn111     1.0  0.00000  0.00000  0.00000  1.0000
  Zn  Zn112     1.0  0.00000  0.25000  0.25000  1.0000
  O   O1        1.0  0.83344  0.56643  0.47793  1.0000
  O   O2        1.0  0.41656  0.68357  0.47793  1.0000
  O   O3        1.0  0.41656  0.56643  0.77207  1.0000
  O   O4        1.0  0.83344  0.68357  0.77207  1.0000
  O   O5        1.0  0.47793  0.83344  0.56643  1.0000
  O   O6        1.0  0.47793  0.41656  0.68357  1.0000
  O   O7        1.0  0.77207  0.41656  0.56643  1.0000
  O   O8        1.0  0.77207  0.83344  0.68357  1.0000
  O   O9        1.0  0.56643  0.47793  0.83344  1.0000
  O   O10       1.0  0.68357  0.47793  0.41656  1.0000
  O   O11       1.0  0.56643  0.77207  0.41656  1.0000
  O   O12       1.0  0.68357  0.77207  0.83344  1.0000
  O   O13       1.0  0.83344  0.06643  0.97793  1.0000
  O   O14       1.0  0.41656  0.18357  0.97793  1.0000
  O   O15       1.0  0.41656  0.06643  0.27207  1.0000
  O   O16       1.0  0.83344  0.18357  0.27207  1.0000
  O   O17       1.0  0.47793  0.33344  0.06643  1.0000
  O   O18       1.0  0.47793  0.91656  0.18357  1.0000
  O   O19       1.0  0.77207  0.91656  0.06643  1.0000
  O   O20       1.0  0.77207  0.33344  0.18357  1.0000
  O   O21       1.0  0.56643  0.97793  0.33344  1.0000
  O   O22       1.0  0.68357  0.97793  0.91656  1.0000
  O   O23       1.0  0.56643  0.27207  0.91656  1.0000
  O   O24       1.0  0.68357  0.27207  0.33344  1.0000
  O   O25       1.0  0.33344  0.56643  0.97793  1.0000
  O   O26       1.0  0.91656  0.68357  0.97793  1.0000
  O   O27       1.0  0.91656  0.56643  0.27207  1.0000
  O   O28       1.0  0.33344  0.68357  0.27207  1.0000
  O   O29       1.0  0.97793  0.83344  0.06643  1.0000
  O   O30       1.0  0.97793  0.41656  0.18357  1.0000
  O   O31       1.0  0.27207  0.41656  0.06643  1.0000
  O   O32       1.0  0.27207  0.83344  0.18357  1.0000
  O   O33       1.0  0.06643  0.47793  0.33344  1.0000
  O   O34       1.0  0.18357  0.47793  0.91656  1.0000
  O   O35       1.0  0.06643  0.77207  0.91656  1.0000
  O   O36       1.0  0.18357  0.77207  0.33344  1.0000
  O   O37       1.0  0.33344  0.06643  0.47793  1.0000
  O   O38       1.0  0.91656  0.18357  0.47793  1.0000
  O   O39       1.0  0.91656  0.06643  0.77207  1.0000
  O   O40       1.0  0.33344  0.18357  0.77207  1.0000
  O   O41       1.0  0.97793  0.33344  0.56643  1.0000
  O   O42       1.0  0.97793  0.91656  0.68357  1.0000
  O   O43       1.0  0.27207  0.91656  0.56643  1.0000
  O   O44       1.0  0.27207  0.33344  0.68357  1.0000
  O   O45       1.0  0.06643  0.97793  0.83344  1.0000
  O   O46       1.0  0.18357  0.97793  0.41656  1.0000
  O   O47       1.0  0.06643  0.27207  0.41656  1.0000
  O   O48       1.0  0.18357  0.27207  0.83344  1.0000
  O   O49       1.0  0.16656  0.43357  0.52207  1.0000
  O   O50       1.0  0.58344  0.31643  0.52207  1.0000
  O   O51       1.0  0.58344  0.43357  0.22793  1.0000
  O   O52       1.0  0.16656  0.31643  0.22793  1.0000
  O   O53       1.0  0.52207  0.16656  0.43357  1.0000
  O   O54       1.0  0.52207  0.58344  0.31643  1.0000
  O   O55       1.0  0.22793  0.58344  0.43357  1.0000
  O   O56       1.0  0.22793  0.16656  0.31643  1.0000
  O   O57       1.0  0.43357  0.52207  0.16656  1.0000
  O   O58       1.0  0.31643  0.52207  0.58344  1.0000
  O   O59       1.0  0.43357  0.22793  0.58344  1.0000
  O   O60       1.0  0.31643  0.22793  0.16656  1.0000
  O   O61       1.0  0.16656  0.93357  0.02207  1.0000
  O   O62       1.0  0.58344  0.81643  0.02207  1.0000
  O   O63       1.0  0.58344  0.93357  0.72793  1.0000
  O   O64       1.0  0.16656  0.81643  0.72793  1.0000
  O   O65       1.0  0.52207  0.66656  0.93357  1.0000
  O   O66       1.0  0.52207  0.08344  0.81643  1.0000
  O   O67       1.0  0.22793  0.08344  0.93357  1.0000
  O   O68       1.0  0.22793  0.66656  0.81643  1.0000
  O   O69       1.0  0.43357  0.02207  0.66656  1.0000
  O   O70       1.0  0.31643  0.02207  0.08344  1.0000
  O   O71       1.0  0.43357  0.72793  0.08344  1.0000
  O   O72       1.0  0.31643  0.72793  0.66656  1.0000
  O   O73       1.0  0.66656  0.43357  0.02207  1.0000
  O   O74       1.0  0.08344  0.31643  0.02207  1.0000
  O   O75       1.0  0.08344  0.43357  0.72793  1.0000
  O   O76       1.0  0.66656  0.31643  0.72793  1.0000
  O   O77       1.0  0.02207  0.16656  0.93357  1.0000
  O   O78       1.0  0.02207  0.58344  0.81643  1.0000
  O   O79       1.0  0.72793  0.58344  0.93357  1.0000
  O   O80       1.0  0.72793  0.16656  0.81643  1.0000
  O   O81       1.0  0.93357  0.52207  0.66656  1.0000
  O   O82       1.0  0.81643  0.52207  0.08344  1.0000
  O   O83       1.0  0.93357  0.22793  0.08344  1.0000
  O   O84       1.0  0.81643  0.22793  0.66656  1.0000
  O   O85       1.0  0.66656  0.93357  0.52207  1.0000
  O   O86       1.0  0.08344  0.81643  0.52207  1.0000
  O   O87       1.0  0.08344  0.93357  0.22793  1.0000
  O   O88       1.0  0.66656  0.81643  0.22793  1.0000
  O   O89       1.0  0.02207  0.66656  0.43357  1.0000
  O   O90       1.0  0.02207  0.08344  0.31643  1.0000
  O   O91       1.0  0.72793  0.08344  0.43357  1.0000
  O   O92       1.0  0.72793  0.66656  0.31643  1.0000
  O   O93       1.0  0.93357  0.02207  0.16656  1.0000
  O   O94       1.0  0.81643  0.02207  0.58344  1.0000
  O   O95       1.0  0.93357  0.72793  0.58344  1.0000
  O   O96       1.0  0.81643  0.72793  0.16656  1.0000
  O   O97       1.0  0.60086  0.35114  0.47564  1.0000
  O   O98       1.0  0.64914  0.89886  0.47564  1.0000
  O   O99       1.0  0.64914  0.35114  0.77436  1.0000
  O   O100      1.0  0.60086  0.89886  0.77436  1.0000
  O   O101      1.0  0.47564  0.60086  0.35114  1.0000
  O   O102      1.0  0.47564  0.64914  0.89886  1.0000
  O   O103      1.0  0.77436  0.64914  0.35114  1.0000
  O   O104      1.0  0.77436  0.60086  0.89886  1.0000
  O   O105      1.0  0.35114  0.47564  0.60086  1.0000
  O   O106      1.0  0.89886  0.47564  0.64914  1.0000
  O   O107      1.0  0.35114  0.77436  0.64914  1.0000
  O   O108      1.0  0.89886  0.77436  0.60086  1.0000
  O   O109      1.0  0.60086  0.85114  0.97564  1.0000
  O   O110      1.0  0.64914  0.39886  0.97564  1.0000
  O   O111      1.0  0.64914  0.85114  0.27436  1.0000
  O   O112      1.0  0.60086  0.39886  0.27436  1.0000
  O   O113      1.0  0.47564  0.10086  0.85114  1.0000
  O   O114      1.0  0.47564  0.14914  0.39886  1.0000
  O   O115      1.0  0.77436  0.14914  0.85114  1.0000
  O   O116      1.0  0.77436  0.10086  0.39886  1.0000
  O   O117      1.0  0.35114  0.97564  0.10086  1.0000
  O   O118      1.0  0.89886  0.97564  0.14914  1.0000
  O   O119      1.0  0.35114  0.27436  0.14914  1.0000
  O   O120      1.0  0.89886  0.27436  0.10086  1.0000
  O   O121      1.0  0.10086  0.35114  0.97564  1.0000
  O   O122      1.0  0.14914  0.89886  0.97564  1.0000
  O   O123      1.0  0.14914  0.35114  0.27436  1.0000
  O   O124      1.0  0.10086  0.89886  0.27436  1.0000
  O   O125      1.0  0.97564  0.60086  0.85114  1.0000
  O   O126      1.0  0.97564  0.64914  0.39886  1.0000
  O   O127      1.0  0.27436  0.64914  0.85114  1.0000
  O   O128      1.0  0.27436  0.60086  0.39886  1.0000
  O   O129      1.0  0.85114  0.47564  0.10086  1.0000
  O   O130      1.0  0.39886  0.47564  0.14914  1.0000
  O   O131      1.0  0.85114  0.77436  0.14914  1.0000
  O   O132      1.0  0.39886  0.77436  0.10086  1.0000
  O   O133      1.0  0.10086  0.85114  0.47564  1.0000
  O   O134      1.0  0.14914  0.39886  0.47564  1.0000
  O   O135      1.0  0.14914  0.85114  0.77436  1.0000
  O   O136      1.0  0.10086  0.39886  0.77436  1.0000
  O   O137      1.0  0.97564  0.10086  0.35114  1.0000
  O   O138      1.0  0.97564  0.14914  0.89886  1.0000
  O   O139      1.0  0.27436  0.14914  0.35114  1.0000
  O   O140      1.0  0.27436  0.10086  0.89886  1.0000
  O   O141      1.0  0.85114  0.97564  0.60086  1.0000
  O   O142      1.0  0.39886  0.97564  0.64914  1.0000
  O   O143      1.0  0.85114  0.27436  0.64914  1.0000
  O   O144      1.0  0.39886  0.27436  0.60086  1.0000
  O   O145      1.0  0.39914  0.64886  0.52436  1.0000
  O   O146      1.0  0.35086  0.10114  0.52436  1.0000
  O   O147      1.0  0.35086  0.64886  0.22564  1.0000
  O   O148      1.0  0.39914  0.10114  0.22564  1.0000
  O   O149      1.0  0.52436  0.39914  0.64886  1.0000
  O   O150      1.0  0.52436  0.35086  0.10114  1.0000
  O   O151      1.0  0.22564  0.35086  0.64886  1.0000
  O   O152      1.0  0.22564  0.39914  0.10114  1.0000
  O   O153      1.0  0.64886  0.52436  0.39914  1.0000
  O   O154      1.0  0.10114  0.52436  0.35086  1.0000
  O   O155      1.0  0.64886  0.22564  0.35086  1.0000
  O   O156      1.0  0.10114  0.22564  0.39914  1.0000
  O   O157      1.0  0.39914  0.14886  0.02436  1.0000
  O   O158      1.0  0.35086  0.60114  0.02436  1.0000
  O   O159      1.0  0.35086  0.14886  0.72564  1.0000
  O   O160      1.0  0.39914  0.60114  0.72564  1.0000
  O   O161      1.0  0.52436  0.89914  0.14886  1.0000
  O   O162      1.0  0.52436  0.85086  0.60114  1.0000
  O   O163      1.0  0.22564  0.85086  0.14886  1.0000
  O   O164      1.0  0.22564  0.89914  0.60114  1.0000
  O   O165      1.0  0.64886  0.02436  0.89914  1.0000
  O   O166      1.0  0.10114  0.02436  0.85086  1.0000
  O   O167      1.0  0.64886  0.72564  0.85086  1.0000
  O   O168      1.0  0.10114  0.72564  0.89914  1.0000
  O   O169      1.0  0.89914  0.64886  0.02436  1.0000
  O   O170      1.0  0.85086  0.10114  0.02436  1.0000
  O   O171      1.0  0.85086  0.64886  0.72564  1.0000
  O   O172      1.0  0.89914  0.10114  0.72564  1.0000
  O   O173      1.0  0.02436  0.39914  0.14886  1.0000
  O   O174      1.0  0.02436  0.35086  0.60114  1.0000
  O   O175      1.0  0.72564  0.35086  0.14886  1.0000
  O   O176      1.0  0.72564  0.39914  0.60114  1.0000
  O   O177      1.0  0.14886  0.52436  0.89914  1.0000
  O   O178      1.0  0.60114  0.52436  0.85086  1.0000
  O   O179      1.0  0.14886  0.22564  0.85086  1.0000
  O   O180      1.0  0.60114  0.22564  0.89914  1.0000
  O   O181      1.0  0.89914  0.14886  0.52436  1.0000
  O   O182      1.0  0.85086  0.60114  0.52436  1.0000
  O   O183      1.0  0.85086  0.14886  0.22564  1.0000
  O   O184      1.0  0.89914  0.60114  0.22564  1.0000
  O   O185      1.0  0.02436  0.89914  0.64886  1.0000
  O   O186      1.0  0.02436  0.85086  0.10114  1.0000
  O   O187      1.0  0.72564  0.85086  0.64886  1.0000
  O   O188      1.0  0.72564  0.89914  0.10114  1.0000
  O   O189      1.0  0.14886  0.02436  0.39914  1.0000
  O   O190      1.0  0.60114  0.02436  0.35086  1.0000
  O   O191      1.0  0.14886  0.72564  0.35086  1.0000
  O   O192      1.0  0.60114  0.72564  0.39914  1.0000
  O   O193      1.0  0.64150  0.34578  0.46106  1.0000
  O   O194      1.0  0.60850  0.90422  0.46106  1.0000
  O   O195      1.0  0.60850  0.34578  0.78894  1.0000
  O   O196      1.0  0.64150  0.90422  0.78894  1.0000
  O   O197      1.0  0.46106  0.64150  0.34578  1.0000
  O   O198      1.0  0.46106  0.60850  0.90422  1.0000
  O   O199      1.0  0.78894  0.60850  0.34578  1.0000
  O   O200      1.0  0.78894  0.64150  0.90422  1.0000
  O   O201      1.0  0.34578  0.46106  0.64150  1.0000
  O   O202      1.0  0.90422  0.46106  0.60850  1.0000
  O   O203      1.0  0.34578  0.78894  0.60850  1.0000
  O   O204      1.0  0.90422  0.78894  0.64150  1.0000
  O   O205      1.0  0.64150  0.84578  0.96106  1.0000
  O   O206      1.0  0.60850  0.40422  0.96106  1.0000
  O   O207      1.0  0.60850  0.84578  0.28894  1.0000
  O   O208      1.0  0.64150  0.40422  0.28894  1.0000
  O   O209      1.0  0.46106  0.14150  0.84578  1.0000
  O   O210      1.0  0.46106  0.10850  0.40422  1.0000
  O   O211      1.0  0.78894  0.10850  0.84578  1.0000
  O   O212      1.0  0.78894  0.14150  0.40422  1.0000
  O   O213      1.0  0.34578  0.96106  0.14150  1.0000
  O   O214      1.0  0.90422  0.96106  0.10850  1.0000
  O   O215      1.0  0.34578  0.28894  0.10850  1.0000
  O   O216      1.0  0.90422  0.28894  0.14150  1.0000
  O   O217      1.0  0.14150  0.34578  0.96106  1.0000
  O   O218      1.0  0.10850  0.90422  0.96106  1.0000
  O   O219      1.0  0.10850  0.34578  0.28894  1.0000
  O   O220      1.0  0.14150  0.90422  0.28894  1.0000
  O   O221      1.0  0.96106  0.64150  0.84578  1.0000
  O   O222      1.0  0.96106  0.60850  0.40422  1.0000
  O   O223      1.0  0.28894  0.60850  0.84578  1.0000
  O   O224      1.0  0.28894  0.64150  0.40422  1.0000
  O   O225      1.0  0.84578  0.46106  0.14150  1.0000
  O   O226      1.0  0.40422  0.46106  0.10850  1.0000
  O   O227      1.0  0.84578  0.78894  0.10850  1.0000
  O   O228      1.0  0.40422  0.78894  0.14150  1.0000
  O   O229      1.0  0.14150  0.84578  0.46106  1.0000
  O   O230      1.0  0.10850  0.40422  0.46106  1.0000
  O   O231      1.0  0.10850  0.84578  0.78894  1.0000
  O   O232      1.0  0.14150  0.40422  0.78894  1.0000
  O   O233      1.0  0.96106  0.14150  0.34578  1.0000
  O   O234      1.0  0.96106  0.10850  0.90422  1.0000
  O   O235      1.0  0.28894  0.10850  0.34578  1.0000
  O   O236      1.0  0.28894  0.14150  0.90422  1.0000
  O   O237      1.0  0.84578  0.96106  0.64150  1.0000
  O   O238      1.0  0.40422  0.96106  0.60850  1.0000
  O   O239      1.0  0.84578  0.28894  0.60850  1.0000
  O   O240      1.0  0.40422  0.28894  0.64150  1.0000
  O   O241      1.0  0.35850  0.65422  0.53894  1.0000
  O   O242      1.0  0.39150  0.09578  0.53894  1.0000
  O   O243      1.0  0.39150  0.65422  0.21106  1.0000
  O   O244      1.0  0.35850  0.09578  0.21106  1.0000
  O   O245      1.0  0.53894  0.35850  0.65422  1.0000
  O   O246      1.0  0.53894  0.39150  0.09578  1.0000
  O   O247      1.0  0.21106  0.39150  0.65422  1.0000
  O   O248      1.0  0.21106  0.35850  0.09578  1.0000
  O   O249      1.0  0.65422  0.53894  0.35850  1.0000
  O   O250      1.0  0.09578  0.53894  0.39150  1.0000
  O   O251      1.0  0.65422  0.21106  0.39150  1.0000
  O   O252      1.0  0.09578  0.21106  0.35850  1.0000
  O   O253      1.0  0.35850  0.15422  0.03894  1.0000
  O   O254      1.0  0.39150  0.59578  0.03894  1.0000
  O   O255      1.0  0.39150  0.15422  0.71106  1.0000
  O   O256      1.0  0.35850  0.59578  0.71106  1.0000
  O   O257      1.0  0.53894  0.85850  0.15422  1.0000
  O   O258      1.0  0.53894  0.89150  0.59578  1.0000
  O   O259      1.0  0.21106  0.89150  0.15422  1.0000
  O   O260      1.0  0.21106  0.85850  0.59578  1.0000
  O   O261      1.0  0.65422  0.03894  0.85850  1.0000
  O   O262      1.0  0.09578  0.03894  0.89150  1.0000
  O   O263      1.0  0.65422  0.71106  0.89150  1.0000
  O   O264      1.0  0.09578  0.71106  0.85850  1.0000
  O   O265      1.0  0.85850  0.65422  0.03894  1.0000
  O   O266      1.0  0.89150  0.09578  0.03894  1.0000
  O   O267      1.0  0.89150  0.65422  0.71106  1.0000
  O   O268      1.0  0.85850  0.09578  0.71106  1.0000
  O   O269      1.0  0.03894  0.35850  0.15422  1.0000
  O   O270      1.0  0.03894  0.39150  0.59578  1.0000
  O   O271      1.0  0.71106  0.39150  0.15422  1.0000
  O   O272      1.0  0.71106  0.35850  0.59578  1.0000
  O   O273      1.0  0.15422  0.53894  0.85850  1.0000
  O   O274      1.0  0.59578  0.53894  0.89150  1.0000
  O   O275      1.0  0.15422  0.21106  0.89150  1.0000
  O   O276      1.0  0.59578  0.21106  0.85850  1.0000
  O   O277      1.0  0.85850  0.15422  0.53894  1.0000
  O   O278      1.0  0.89150  0.59578  0.53894  1.0000
  O   O279      1.0  0.89150  0.15422  0.21106  1.0000
  O   O280      1.0  0.85850  0.59578  0.21106  1.0000
  O   O281      1.0  0.03894  0.85850  0.65422  1.0000
  O   O282      1.0  0.03894  0.89150  0.09578  1.0000
  O   O283      1.0  0.71106  0.89150  0.65422  1.0000
  O   O284      1.0  0.71106  0.85850  0.09578  1.0000
  O   O285      1.0  0.15422  0.03894  0.35850  1.0000
  O   O286      1.0  0.59578  0.03894  0.39150  1.0000
  O   O287      1.0  0.15422  0.71106  0.39150  1.0000
  O   O288      1.0  0.59578  0.71106  0.35850  1.0000
  N   N1        1.0  0.61920  0.43853  0.36358  1.0000
  N   N2        1.0  0.63080  0.81147  0.36358  1.0000
  N   N3        1.0  0.63080  0.43853  0.88642  1.0000
  N   N4        1.0  0.61920  0.81147  0.88642  1.0000
  N   N5        1.0  0.36358  0.61920  0.43853  1.0000
  N   N6        1.0  0.36358  0.63080  0.81147  1.0000
  N   N7        1.0  0.88642  0.63080  0.43853  1.0000
  N   N8        1.0  0.88642  0.61920  0.81147  1.0000
  N   N9        1.0  0.43853  0.36358  0.61920  1.0000
  N   N10       1.0  0.81147  0.36358  0.63080  1.0000
  N   N11       1.0  0.43853  0.88642  0.63080  1.0000
  N   N12       1.0  0.81147  0.88642  0.61920  1.0000
  N   N13       1.0  0.61920  0.93853  0.86358  1.0000
  N   N14       1.0  0.63080  0.31147  0.86358  1.0000
  N   N15       1.0  0.63080  0.93853  0.38642  1.0000
  N   N16       1.0  0.61920  0.31147  0.38642  1.0000
  N   N17       1.0  0.36358  0.11920  0.93853  1.0000
  N   N18       1.0  0.36358  0.13080  0.31147  1.0000
  N   N19       1.0  0.88642  0.13080  0.93853  1.0000
  N   N20       1.0  0.88642  0.11920  0.31147  1.0000
  N   N21       1.0  0.43853  0.86358  0.11920  1.0000
  N   N22       1.0  0.81147  0.86358  0.13080  1.0000
  N   N23       1.0  0.43853  0.38642  0.13080  1.0000
  N   N24       1.0  0.81147  0.38642  0.11920  1.0000
  N   N25       1.0  0.11920  0.43853  0.86358  1.0000
  N   N26       1.0  0.13080  0.81147  0.86358  1.0000
  N   N27       1.0  0.13080  0.43853  0.38642  1.0000
  N   N28       1.0  0.11920  0.81147  0.38642  1.0000
  N   N29       1.0  0.86358  0.61920  0.93853  1.0000
  N   N30       1.0  0.86358  0.63080  0.31147  1.0000
  N   N31       1.0  0.38642  0.63080  0.93853  1.0000
  N   N32       1.0  0.38642  0.61920  0.31147  1.0000
  N   N33       1.0  0.93853  0.36358  0.11920  1.0000
  N   N34       1.0  0.31147  0.36358  0.13080  1.0000
  N   N35       1.0  0.93853  0.88642  0.13080  1.0000
  N   N36       1.0  0.31147  0.88642  0.11920  1.0000
  N   N37       1.0  0.11920  0.93853  0.36358  1.0000
  N   N38       1.0  0.13080  0.31147  0.36358  1.0000
  N   N39       1.0  0.13080  0.93853  0.88642  1.0000
  N   N40       1.0  0.11920  0.31147  0.88642  1.0000
  N   N41       1.0  0.86358  0.11920  0.43853  1.0000
  N   N42       1.0  0.86358  0.13080  0.81147  1.0000
  N   N43       1.0  0.38642  0.13080  0.43853  1.0000
  N   N44       1.0  0.38642  0.11920  0.81147  1.0000
  N   N45       1.0  0.93853  0.86358  0.61920  1.0000
  N   N46       1.0  0.31147  0.86358  0.63080  1.0000
  N   N47       1.0  0.93853  0.38642  0.63080  1.0000
  N   N48       1.0  0.31147  0.38642  0.61920  1.0000
  N   N49       1.0  0.38080  0.56147  0.63642  1.0000
  N   N50       1.0  0.36920  0.18853  0.63642  1.0000
  N   N51       1.0  0.36920  0.56147  0.11358  1.0000
  N   N52       1.0  0.38080  0.18853  0.11358  1.0000
  N   N53       1.0  0.63642  0.38080  0.56147  1.0000
  N   N54       1.0  0.63642  0.36920  0.18853  1.0000
  N   N55       1.0  0.11358  0.36920  0.56147  1.0000
  N   N56       1.0  0.11358  0.38080  0.18853  1.0000
  N   N57       1.0  0.56147  0.63642  0.38080  1.0000
  N   N58       1.0  0.18853  0.63642  0.36920  1.0000
  N   N59       1.0  0.56147  0.11358  0.36920  1.0000
  N   N60       1.0  0.18853  0.11358  0.38080  1.0000
  N   N61       1.0  0.38080  0.06147  0.13642  1.0000
  N   N62       1.0  0.36920  0.68853  0.13642  1.0000
  N   N63       1.0  0.36920  0.06147  0.61358  1.0000
  N   N64       1.0  0.38080  0.68853  0.61358  1.0000
  N   N65       1.0  0.63642  0.88080  0.06147  1.0000
  N   N66       1.0  0.63642  0.86920  0.68853  1.0000
  N   N67       1.0  0.11358  0.86920  0.06147  1.0000
  N   N68       1.0  0.11358  0.88080  0.68853  1.0000
  N   N69       1.0  0.56147  0.13642  0.88080  1.0000
  N   N70       1.0  0.18853  0.13642  0.86920  1.0000
  N   N71       1.0  0.56147  0.61358  0.86920  1.0000
  N   N72       1.0  0.18853  0.61358  0.88080  1.0000
  N   N73       1.0  0.88080  0.56147  0.13642  1.0000
  N   N74       1.0  0.86920  0.18853  0.13642  1.0000
  N   N75       1.0  0.86920  0.56147  0.61358  1.0000
  N   N76       1.0  0.88080  0.18853  0.61358  1.0000
  N   N77       1.0  0.13642  0.38080  0.06147  1.0000
  N   N78       1.0  0.13642  0.36920  0.68853  1.0000
  N   N79       1.0  0.61358  0.36920  0.06147  1.0000
  N   N80       1.0  0.61358  0.38080  0.68853  1.0000
  N   N81       1.0  0.06147  0.63642  0.88080  1.0000
  N   N82       1.0  0.68853  0.63642  0.86920  1.0000
  N   N83       1.0  0.06147  0.11358  0.86920  1.0000
  N   N84       1.0  0.68853  0.11358  0.88080  1.0000
  N   N85       1.0  0.88080  0.06147  0.63642  1.0000
  N   N86       1.0  0.86920  0.68853  0.63642  1.0000
  N   N87       1.0  0.86920  0.06147  0.11358  1.0000
  N   N88       1.0  0.88080  0.68853  0.11358  1.0000
  N   N89       1.0  0.13642  0.88080  0.56147  1.0000
  N   N90       1.0  0.13642  0.86920  0.18853  1.0000
  N   N91       1.0  0.61358  0.86920  0.56147  1.0000
  N   N92       1.0  0.61358  0.88080  0.18853  1.0000
  N   N93       1.0  0.06147  0.13642  0.38080  1.0000
  N   N94       1.0  0.68853  0.13642  0.36920  1.0000
  N   N95       1.0  0.06147  0.61358  0.36920  1.0000
  N   N96       1.0  0.68853  0.61358  0.38080  1.0000
  N   N97       1.0  0.73586  0.55234  0.37658  1.0000
  N   N98       1.0  0.51414  0.69766  0.37658  1.0000
  N   N99       1.0  0.51414  0.55234  0.87342  1.0000
  N   N100      1.0  0.73586  0.69766  0.87342  1.0000
  N   N101      1.0  0.37658  0.73586  0.55234  1.0000
  N   N102      1.0  0.37658  0.51414  0.69766  1.0000
  N   N103      1.0  0.87342  0.51414  0.55234  1.0000
  N   N104      1.0  0.87342  0.73586  0.69766  1.0000
  N   N105      1.0  0.55234  0.37658  0.73586  1.0000
  N   N106      1.0  0.69766  0.37658  0.51414  1.0000
  N   N107      1.0  0.55234  0.87342  0.51414  1.0000
  N   N108      1.0  0.69766  0.87342  0.73586  1.0000
  N   N109      1.0  0.73586  0.05234  0.87658  1.0000
  N   N110      1.0  0.51414  0.19766  0.87658  1.0000
  N   N111      1.0  0.51414  0.05234  0.37342  1.0000
  N   N112      1.0  0.73586  0.19766  0.37342  1.0000
  N   N113      1.0  0.37658  0.23586  0.05234  1.0000
  N   N114      1.0  0.37658  0.01414  0.19766  1.0000
  N   N115      1.0  0.87342  0.01414  0.05234  1.0000
  N   N116      1.0  0.87342  0.23586  0.19766  1.0000
  N   N117      1.0  0.55234  0.87658  0.23586  1.0000
  N   N118      1.0  0.69766  0.87658  0.01414  1.0000
  N   N119      1.0  0.55234  0.37342  0.01414  1.0000
  N   N120      1.0  0.69766  0.37342  0.23586  1.0000
  N   N121      1.0  0.23586  0.55234  0.87658  1.0000
  N   N122      1.0  0.01414  0.69766  0.87658  1.0000
  N   N123      1.0  0.01414  0.55234  0.37342  1.0000
  N   N124      1.0  0.23586  0.69766  0.37342  1.0000
  N   N125      1.0  0.87658  0.73586  0.05234  1.0000
  N   N126      1.0  0.87658  0.51414  0.19766  1.0000
  N   N127      1.0  0.37342  0.51414  0.05234  1.0000
  N   N128      1.0  0.37342  0.73586  0.19766  1.0000
  N   N129      1.0  0.05234  0.37658  0.23586  1.0000
  N   N130      1.0  0.19766  0.37658  0.01414  1.0000
  N   N131      1.0  0.05234  0.87342  0.01414  1.0000
  N   N132      1.0  0.19766  0.87342  0.23586  1.0000
  N   N133      1.0  0.23586  0.05234  0.37658  1.0000
  N   N134      1.0  0.01414  0.19766  0.37658  1.0000
  N   N135      1.0  0.01414  0.05234  0.87342  1.0000
  N   N136      1.0  0.23586  0.19766  0.87342  1.0000
  N   N137      1.0  0.87658  0.23586  0.55234  1.0000
  N   N138      1.0  0.87658  0.01414  0.69766  1.0000
  N   N139      1.0  0.37342  0.01414  0.55234  1.0000
  N   N140      1.0  0.37342  0.23586  0.69766  1.0000
  N   N141      1.0  0.05234  0.87658  0.73586  1.0000
  N   N142      1.0  0.19766  0.87658  0.51414  1.0000
  N   N143      1.0  0.05234  0.37342  0.51414  1.0000
  N   N144      1.0  0.19766  0.37342  0.73586  1.0000
  N   N145      1.0  0.26414  0.44766  0.62342  1.0000
  N   N146      1.0  0.48586  0.30234  0.62342  1.0000
  N   N147      1.0  0.48586  0.44766  0.12658  1.0000
  N   N148      1.0  0.26414  0.30234  0.12658  1.0000
  N   N149      1.0  0.62342  0.26414  0.44766  1.0000
  N   N150      1.0  0.62342  0.48586  0.30234  1.0000
  N   N151      1.0  0.12658  0.48586  0.44766  1.0000
  N   N152      1.0  0.12658  0.26414  0.30234  1.0000
  N   N153      1.0  0.44766  0.62342  0.26414  1.0000
  N   N154      1.0  0.30234  0.62342  0.48586  1.0000
  N   N155      1.0  0.44766  0.12658  0.48586  1.0000
  N   N156      1.0  0.30234  0.12658  0.26414  1.0000
  N   N157      1.0  0.26414  0.94766  0.12342  1.0000
  N   N158      1.0  0.48586  0.80234  0.12342  1.0000
  N   N159      1.0  0.48586  0.94766  0.62658  1.0000
  N   N160      1.0  0.26414  0.80234  0.62658  1.0000
  N   N161      1.0  0.62342  0.76414  0.94766  1.0000
  N   N162      1.0  0.62342  0.98586  0.80234  1.0000
  N   N163      1.0  0.12658  0.98586  0.94766  1.0000
  N   N164      1.0  0.12658  0.76414  0.80234  1.0000
  N   N165      1.0  0.44766  0.12342  0.76414  1.0000
  N   N166      1.0  0.30234  0.12342  0.98586  1.0000
  N   N167      1.0  0.44766  0.62658  0.98586  1.0000
  N   N168      1.0  0.30234  0.62658  0.76414  1.0000
  N   N169      1.0  0.76414  0.44766  0.12342  1.0000
  N   N170      1.0  0.98586  0.30234  0.12342  1.0000
  N   N171      1.0  0.98586  0.44766  0.62658  1.0000
  N   N172      1.0  0.76414  0.30234  0.62658  1.0000
  N   N173      1.0  0.12342  0.26414  0.94766  1.0000
  N   N174      1.0  0.12342  0.48586  0.80234  1.0000
  N   N175      1.0  0.62658  0.48586  0.94766  1.0000
  N   N176      1.0  0.62658  0.26414  0.80234  1.0000
  N   N177      1.0  0.94766  0.62342  0.76414  1.0000
  N   N178      1.0  0.80234  0.62342  0.98586  1.0000
  N   N179      1.0  0.94766  0.12658  0.98586  1.0000
  N   N180      1.0  0.80234  0.12658  0.76414  1.0000
  N   N181      1.0  0.76414  0.94766  0.62342  1.0000
  N   N182      1.0  0.98586  0.80234  0.62342  1.0000
  N   N183      1.0  0.98586  0.94766  0.12658  1.0000
  N   N184      1.0  0.76414  0.80234  0.12658  1.0000
  N   N185      1.0  0.12342  0.76414  0.44766  1.0000
  N   N186      1.0  0.12342  0.98586  0.30234  1.0000
  N   N187      1.0  0.62658  0.98586  0.44766  1.0000
  N   N188      1.0  0.62658  0.76414  0.30234  1.0000
  N   N189      1.0  0.94766  0.12342  0.26414  1.0000
  N   N190      1.0  0.80234  0.12342  0.48586  1.0000
  N   N191      1.0  0.94766  0.62658  0.48586  1.0000
  N   N192      1.0  0.80234  0.62658  0.26414  1.0000
  O   O289      1.0  0.72448  0.42897  0.28426  1.0000
  O   O290      1.0  0.52552  0.82103  0.28426  1.0000
  O   O291      1.0  0.52552  0.42897  0.96574  1.0000
  O   O292      1.0  0.72448  0.82103  0.96574  1.0000
  O   O293      1.0  0.28426  0.72448  0.42897  1.0000
  O   O294      1.0  0.28426  0.52552  0.82103  1.0000
  O   O295      1.0  0.96574  0.52552  0.42897  1.0000
  O   O296      1.0  0.96574  0.72448  0.82103  1.0000
  O   O297      1.0  0.42897  0.28426  0.72448  1.0000
  O   O298      1.0  0.82103  0.28426  0.52552  1.0000
  O   O299      1.0  0.42897  0.96574  0.52552  1.0000
  O   O300      1.0  0.82103  0.96574  0.72448  1.0000
  O   O301      1.0  0.72448  0.92897  0.78426  1.0000
  O   O302      1.0  0.52552  0.32103  0.78426  1.0000
  O   O303      1.0  0.52552  0.92897  0.46574  1.0000
  O   O304      1.0  0.72448  0.32103  0.46574  1.0000
  O   O305      1.0  0.28426  0.22448  0.92897  1.0000
  O   O306      1.0  0.28426  0.02552  0.32103  1.0000
  O   O307      1.0  0.96574  0.02552  0.92897  1.0000
  O   O308      1.0  0.96574  0.22448  0.32103  1.0000
  O   O309      1.0  0.42897  0.78426  0.22448  1.0000
  O   O310      1.0  0.82103  0.78426  0.02552  1.0000
  O   O311      1.0  0.42897  0.46574  0.02552  1.0000
  O   O312      1.0  0.82103  0.46574  0.22448  1.0000
  O   O313      1.0  0.22448  0.42897  0.78426  1.0000
  O   O314      1.0  0.02552  0.82103  0.78426  1.0000
  O   O315      1.0  0.02552  0.42897  0.46574  1.0000
  O   O316      1.0  0.22448  0.82103  0.46574  1.0000
  O   O317      1.0  0.78426  0.72448  0.92897  1.0000
  O   O318      1.0  0.78426  0.52552  0.32103  1.0000
  O   O319      1.0  0.46574  0.52552  0.92897  1.0000
  O   O320      1.0  0.46574  0.72448  0.32103  1.0000
  O   O321      1.0  0.92897  0.28426  0.22448  1.0000
  O   O322      1.0  0.32103  0.28426  0.02552  1.0000
  O   O323      1.0  0.92897  0.96574  0.02552  1.0000
  O   O324      1.0  0.32103  0.96574  0.22448  1.0000
  O   O325      1.0  0.22448  0.92897  0.28426  1.0000
  O   O326      1.0  0.02552  0.32103  0.28426  1.0000
  O   O327      1.0  0.02552  0.92897  0.96574  1.0000
  O   O328      1.0  0.22448  0.32103  0.96574  1.0000
  O   O329      1.0  0.78426  0.22448  0.42897  1.0000
  O   O330      1.0  0.78426  0.02552  0.82103  1.0000
  O   O331      1.0  0.46574  0.02552  0.42897  1.0000
  O   O332      1.0  0.46574  0.22448  0.82103  1.0000
  O   O333      1.0  0.92897  0.78426  0.72448  1.0000
  O   O334      1.0  0.32103  0.78426  0.52552  1.0000
  O   O335      1.0  0.92897  0.46574  0.52552  1.0000
  O   O336      1.0  0.32103  0.46574  0.72448  1.0000
  O   O337      1.0  0.27552  0.57103  0.71574  1.0000
  O   O338      1.0  0.47448  0.17897  0.71574  1.0000
  O   O339      1.0  0.47448  0.57103  0.03426  1.0000
  O   O340      1.0  0.27552  0.17897  0.03426  1.0000
  O   O341      1.0  0.71574  0.27552  0.57103  1.0000
  O   O342      1.0  0.71574  0.47448  0.17897  1.0000
  O   O343      1.0  0.03426  0.47448  0.57103  1.0000
  O   O344      1.0  0.03426  0.27552  0.17897  1.0000
  O   O345      1.0  0.57103  0.71574  0.27552  1.0000
  O   O346      1.0  0.17897  0.71574  0.47448  1.0000
  O   O347      1.0  0.57103  0.03426  0.47448  1.0000
  O   O348      1.0  0.17897  0.03426  0.27552  1.0000
  O   O349      1.0  0.27552  0.07103  0.21574  1.0000
  O   O350      1.0  0.47448  0.67897  0.21574  1.0000
  O   O351      1.0  0.47448  0.07103  0.53426  1.0000
  O   O352      1.0  0.27552  0.67897  0.53426  1.0000
  O   O353      1.0  0.71574  0.77552  0.07103  1.0000
  O   O354      1.0  0.71574  0.97448  0.67897  1.0000
  O   O355      1.0  0.03426  0.97448  0.07103  1.0000
  O   O356      1.0  0.03426  0.77552  0.67897  1.0000
  O   O357      1.0  0.57103  0.21574  0.77552  1.0000
  O   O358      1.0  0.17897  0.21574  0.97448  1.0000
  O   O359      1.0  0.57103  0.53426  0.97448  1.0000
  O   O360      1.0  0.17897  0.53426  0.77552  1.0000
  O   O361      1.0  0.77552  0.57103  0.21574  1.0000
  O   O362      1.0  0.97448  0.17897  0.21574  1.0000
  O   O363      1.0  0.97448  0.57103  0.53426  1.0000
  O   O364      1.0  0.77552  0.17897  0.53426  1.0000
  O   O365      1.0  0.21574  0.27552  0.07103  1.0000
  O   O366      1.0  0.21574  0.47448  0.67897  1.0000
  O   O367      1.0  0.53426  0.47448  0.07103  1.0000
  O   O368      1.0  0.53426  0.27552  0.67897  1.0000
  O   O369      1.0  0.07103  0.71574  0.77552  1.0000
  O   O370      1.0  0.67897  0.71574  0.97448  1.0000
  O   O371      1.0  0.07103  0.03426  0.97448  1.0000
  O   O372      1.0  0.67897  0.03426  0.77552  1.0000
  O   O373      1.0  0.77552  0.07103  0.71574  1.0000
  O   O374      1.0  0.97448  0.67897  0.71574  1.0000
  O   O375      1.0  0.97448  0.07103  0.03426  1.0000
  O   O376      1.0  0.77552  0.67897  0.03426  1.0000
  O   O377      1.0  0.21574  0.77552  0.57103  1.0000
  O   O378      1.0  0.21574  0.97448  0.17897  1.0000
  O   O379      1.0  0.53426  0.97448  0.57103  1.0000
  O   O380      1.0  0.53426  0.77552  0.17897  1.0000
  O   O381      1.0  0.07103  0.21574  0.27552  1.0000
  O   O382      1.0  0.67897  0.21574  0.47448  1.0000
  O   O383      1.0  0.07103  0.53426  0.47448  1.0000
  O   O384      1.0  0.67897  0.53426  0.27552  1.0000
  N   N193      1.0  0.70680  0.52338  0.38115  1.0000
  N   N194      1.0  0.54320  0.72662  0.38115  1.0000
  N   N195      1.0  0.54320  0.52338  0.86885  1.0000
  N   N196      1.0  0.70680  0.72662  0.86885  1.0000
  N   N197      1.0  0.38115  0.70680  0.52338  1.0000
  N   N198      1.0  0.38115  0.54320  0.72662  1.0000
  N   N199      1.0  0.86885  0.54320  0.52338  1.0000
  N   N200      1.0  0.86885  0.70680  0.72662  1.0000
  N   N201      1.0  0.52338  0.38115  0.70680  1.0000
  N   N202      1.0  0.72662  0.38115  0.54320  1.0000
  N   N203      1.0  0.52338  0.86885  0.54320  1.0000
  N   N204      1.0  0.72662  0.86885  0.70680  1.0000
  N   N205      1.0  0.70680  0.02338  0.88115  1.0000
  N   N206      1.0  0.54320  0.22662  0.88115  1.0000
  N   N207      1.0  0.54320  0.02338  0.36885  1.0000
  N   N208      1.0  0.70680  0.22662  0.36885  1.0000
  N   N209      1.0  0.38115  0.20680  0.02338  1.0000
  N   N210      1.0  0.38115  0.04320  0.22662  1.0000
  N   N211      1.0  0.86885  0.04320  0.02338  1.0000
  N   N212      1.0  0.86885  0.20680  0.22662  1.0000
  N   N213      1.0  0.52338  0.88115  0.20680  1.0000
  N   N214      1.0  0.72662  0.88115  0.04320  1.0000
  N   N215      1.0  0.52338  0.36885  0.04320  1.0000
  N   N216      1.0  0.72662  0.36885  0.20680  1.0000
  N   N217      1.0  0.20680  0.52338  0.88115  1.0000
  N   N218      1.0  0.04320  0.72662  0.88115  1.0000
  N   N219      1.0  0.04320  0.52338  0.36885  1.0000
  N   N220      1.0  0.20680  0.72662  0.36885  1.0000
  N   N221      1.0  0.88115  0.70680  0.02338  1.0000
  N   N222      1.0  0.88115  0.54320  0.22662  1.0000
  N   N223      1.0  0.36885  0.54320  0.02338  1.0000
  N   N224      1.0  0.36885  0.70680  0.22662  1.0000
  N   N225      1.0  0.02338  0.38115  0.20680  1.0000
  N   N226      1.0  0.22662  0.38115  0.04320  1.0000
  N   N227      1.0  0.02338  0.86885  0.04320  1.0000
  N   N228      1.0  0.22662  0.86885  0.20680  1.0000
  N   N229      1.0  0.20680  0.02338  0.38115  1.0000
  N   N230      1.0  0.04320  0.22662  0.38115  1.0000
  N   N231      1.0  0.04320  0.02338  0.86885  1.0000
  N   N232      1.0  0.20680  0.22662  0.86885  1.0000
  N   N233      1.0  0.88115  0.20680  0.52338  1.0000
  N   N234      1.0  0.88115  0.04320  0.72662  1.0000
  N   N235      1.0  0.36885  0.04320  0.52338  1.0000
  N   N236      1.0  0.36885  0.20680  0.72662  1.0000
  N   N237      1.0  0.02338  0.88115  0.70680  1.0000
  N   N238      1.0  0.22662  0.88115  0.54320  1.0000
  N   N239      1.0  0.02338  0.36885  0.54320  1.0000
  N   N240      1.0  0.22662  0.36885  0.70680  1.0000
  N   N241      1.0  0.29320  0.47662  0.61885  1.0000
  N   N242      1.0  0.45680  0.27338  0.61885  1.0000
  N   N243      1.0  0.45680  0.47662  0.13115  1.0000
  N   N244      1.0  0.29320  0.27338  0.13115  1.0000
  N   N245      1.0  0.61885  0.29320  0.47662  1.0000
  N   N246      1.0  0.61885  0.45680  0.27338  1.0000
  N   N247      1.0  0.13115  0.45680  0.47662  1.0000
  N   N248      1.0  0.13115  0.29320  0.27338  1.0000
  N   N249      1.0  0.47662  0.61885  0.29320  1.0000
  N   N250      1.0  0.27338  0.61885  0.45680  1.0000
  N   N251      1.0  0.47662  0.13115  0.45680  1.0000
  N   N252      1.0  0.27338  0.13115  0.29320  1.0000
  N   N253      1.0  0.29320  0.97662  0.11885  1.0000
  N   N254      1.0  0.45680  0.77338  0.11885  1.0000
  N   N255      1.0  0.45680  0.97662  0.63115  1.0000
  N   N256      1.0  0.29320  0.77338  0.63115  1.0000
  N   N257      1.0  0.61885  0.79320  0.97662  1.0000
  N   N258      1.0  0.61885  0.95680  0.77338  1.0000
  N   N259      1.0  0.13115  0.95680  0.97662  1.0000
  N   N260      1.0  0.13115  0.79320  0.77338  1.0000
  N   N261      1.0  0.47662  0.11885  0.79320  1.0000
  N   N262      1.0  0.27338  0.11885  0.95680  1.0000
  N   N263      1.0  0.47662  0.63115  0.95680  1.0000
  N   N264      1.0  0.27338  0.63115  0.79320  1.0000
  N   N265      1.0  0.79320  0.47662  0.11885  1.0000
  N   N266      1.0  0.95680  0.27338  0.11885  1.0000
  N   N267      1.0  0.95680  0.47662  0.63115  1.0000
  N   N268      1.0  0.79320  0.27338  0.63115  1.0000
  N   N269      1.0  0.11885  0.29320  0.97662  1.0000
  N   N270      1.0  0.11885  0.45680  0.77338  1.0000
  N   N271      1.0  0.63115  0.45680  0.97662  1.0000
  N   N272      1.0  0.63115  0.29320  0.77338  1.0000
  N   N273      1.0  0.97662  0.61885  0.79320  1.0000
  N   N274      1.0  0.77338  0.61885  0.95680  1.0000
  N   N275      1.0  0.97662  0.13115  0.95680  1.0000
  N   N276      1.0  0.77338  0.13115  0.79320  1.0000
  N   N277      1.0  0.79320  0.97662  0.61885  1.0000
  N   N278      1.0  0.95680  0.77338  0.61885  1.0000
  N   N279      1.0  0.95680  0.97662  0.13115  1.0000
  N   N280      1.0  0.79320  0.77338  0.13115  1.0000
  N   N281      1.0  0.11885  0.79320  0.47662  1.0000
  N   N282      1.0  0.11885  0.95680  0.27338  1.0000
  N   N283      1.0  0.63115  0.95680  0.47662  1.0000
  N   N284      1.0  0.63115  0.79320  0.27338  1.0000
  N   N285      1.0  0.97662  0.11885  0.29320  1.0000
  N   N286      1.0  0.77338  0.11885  0.45680  1.0000
  N   N287      1.0  0.97662  0.63115  0.45680  1.0000
  N   N288      1.0  0.77338  0.63115  0.29320  1.0000
  O   O385      1.0  0.85716  0.54880  0.44607  1.0000
  O   O386      1.0  0.39284  0.70120  0.44607  1.0000
  O   O387      1.0  0.39284  0.54880  0.80393  1.0000
  O   O388      1.0  0.85716  0.70120  0.80393  1.0000
  O   O389      1.0  0.44607  0.85716  0.54880  1.0000
  O   O390      1.0  0.44607  0.39284  0.70120  1.0000
  O   O391      1.0  0.80393  0.39284  0.54880  1.0000
  O   O392      1.0  0.80393  0.85716  0.70120  1.0000
  O   O393      1.0  0.54880  0.44607  0.85716  1.0000
  O   O394      1.0  0.70120  0.44607  0.39284  1.0000
  O   O395      1.0  0.54880  0.80393  0.39284  1.0000
  O   O396      1.0  0.70120  0.80393  0.85716  1.0000
  O   O397      1.0  0.85716  0.04880  0.94607  1.0000
  O   O398      1.0  0.39284  0.20120  0.94607  1.0000
  O   O399      1.0  0.39284  0.04880  0.30393  1.0000
  O   O400      1.0  0.85716  0.20120  0.30393  1.0000
  O   O401      1.0  0.44607  0.35716  0.04880  1.0000
  O   O402      1.0  0.44607  0.89284  0.20120  1.0000
  O   O403      1.0  0.80393  0.89284  0.04880  1.0000
  O   O404      1.0  0.80393  0.35716  0.20120  1.0000
  O   O405      1.0  0.54880  0.94607  0.35716  1.0000
  O   O406      1.0  0.70120  0.94607  0.89284  1.0000
  O   O407      1.0  0.54880  0.30393  0.89284  1.0000
  O   O408      1.0  0.70120  0.30393  0.35716  1.0000
  O   O409      1.0  0.35716  0.54880  0.94607  1.0000
  O   O410      1.0  0.89284  0.70120  0.94607  1.0000
  O   O411      1.0  0.89284  0.54880  0.30393  1.0000
  O   O412      1.0  0.35716  0.70120  0.30393  1.0000
  O   O413      1.0  0.94607  0.85716  0.04880  1.0000
  O   O414      1.0  0.94607  0.39284  0.20120  1.0000
  O   O415      1.0  0.30393  0.39284  0.04880  1.0000
  O   O416      1.0  0.30393  0.85716  0.20120  1.0000
  O   O417      1.0  0.04880  0.44607  0.35716  1.0000
  O   O418      1.0  0.20120  0.44607  0.89284  1.0000
  O   O419      1.0  0.04880  0.80393  0.89284  1.0000
  O   O420      1.0  0.20120  0.80393  0.35716  1.0000
  O   O421      1.0  0.35716  0.04880  0.44607  1.0000
  O   O422      1.0  0.89284  0.20120  0.44607  1.0000
  O   O423      1.0  0.89284  0.04880  0.80393  1.0000
  O   O424      1.0  0.35716  0.20120  0.80393  1.0000
  O   O425      1.0  0.94607  0.35716  0.54880  1.0000
  O   O426      1.0  0.94607  0.89284  0.70120  1.0000
  O   O427      1.0  0.30393  0.89284  0.54880  1.0000
  O   O428      1.0  0.30393  0.35716  0.70120  1.0000
  O   O429      1.0  0.04880  0.94607  0.85716  1.0000
  O   O430      1.0  0.20120  0.94607  0.39284  1.0000
  O   O431      1.0  0.04880  0.30393  0.39284  1.0000
  O   O432      1.0  0.20120  0.30393  0.85716  1.0000
  O   O433      1.0  0.14284  0.45120  0.55393  1.0000
  O   O434      1.0  0.60716  0.29880  0.55393  1.0000
  O   O435      1.0  0.60716  0.45120  0.19607  1.0000
  O   O436      1.0  0.14284  0.29880  0.19607  1.0000
  O   O437      1.0  0.55393  0.14284  0.45120  1.0000
  O   O438      1.0  0.55393  0.60716  0.29880  1.0000
  O   O439      1.0  0.19607  0.60716  0.45120  1.0000
  O   O440      1.0  0.19607  0.14284  0.29880  1.0000
  O   O441      1.0  0.45120  0.55393  0.14284  1.0000
  O   O442      1.0  0.29880  0.55393  0.60716  1.0000
  O   O443      1.0  0.45120  0.19607  0.60716  1.0000
  O   O444      1.0  0.29880  0.19607  0.14284  1.0000
  O   O445      1.0  0.14284  0.95120  0.05393  1.0000
  O   O446      1.0  0.60716  0.79880  0.05393  1.0000
  O   O447      1.0  0.60716  0.95120  0.69607  1.0000
  O   O448      1.0  0.14284  0.79880  0.69607  1.0000
  O   O449      1.0  0.55393  0.64284  0.95120  1.0000
  O   O450      1.0  0.55393  0.10716  0.79880  1.0000
  O   O451      1.0  0.19607  0.10716  0.95120  1.0000
  O   O452      1.0  0.19607  0.64284  0.79880  1.0000
  O   O453      1.0  0.45120  0.05393  0.64284  1.0000
  O   O454      1.0  0.29880  0.05393  0.10716  1.0000
  O   O455      1.0  0.45120  0.69607  0.10716  1.0000
  O   O456      1.0  0.29880  0.69607  0.64284  1.0000
  O   O457      1.0  0.64284  0.45120  0.05393  1.0000
  O   O458      1.0  0.10716  0.29880  0.05393  1.0000
  O   O459      1.0  0.10716  0.45120  0.69607  1.0000
  O   O460      1.0  0.64284  0.29880  0.69607  1.0000
  O   O461      1.0  0.05393  0.14284  0.95120  1.0000
  O   O462      1.0  0.05393  0.60716  0.79880  1.0000
  O   O463      1.0  0.69607  0.60716  0.95120  1.0000
  O   O464      1.0  0.69607  0.14284  0.79880  1.0000
  O   O465      1.0  0.95120  0.55393  0.64284  1.0000
  O   O466      1.0  0.79880  0.55393  0.10716  1.0000
  O   O467      1.0  0.95120  0.19607  0.10716  1.0000
  O   O468      1.0  0.79880  0.19607  0.64284  1.0000
  O   O469      1.0  0.64284  0.95120  0.55393  1.0000
  O   O470      1.0  0.10716  0.79880  0.55393  1.0000
  O   O471      1.0  0.10716  0.95120  0.19607  1.0000
  O   O472      1.0  0.64284  0.79880  0.19607  1.0000
  O   O473      1.0  0.05393  0.64284  0.45120  1.0000
  O   O474      1.0  0.05393  0.10716  0.29880  1.0000
  O   O475      1.0  0.69607  0.10716  0.45120  1.0000
  O   O476      1.0  0.69607  0.64284  0.29880  1.0000
  O   O477      1.0  0.95120  0.05393  0.14284  1.0000
  O   O478      1.0  0.79880  0.05393  0.60716  1.0000
  O   O479      1.0  0.95120  0.69607  0.60716  1.0000
  O   O480      1.0  0.79880  0.69607  0.14284  1.0000
  N   N289      1.0  0.68842  0.48598  0.35162  1.0000
  N   N290      1.0  0.56158  0.76402  0.35162  1.0000
  N   N291      1.0  0.56158  0.48598  0.89838  1.0000
  N   N292      1.0  0.68842  0.76402  0.89838  1.0000
  N   N293      1.0  0.35162  0.68842  0.48598  1.0000
  N   N294      1.0  0.35162  0.56158  0.76402  1.0000
  N   N295      1.0  0.89838  0.56158  0.48598  1.0000
  N   N296      1.0  0.89838  0.68842  0.76402  1.0000
  N   N297      1.0  0.48598  0.35162  0.68842  1.0000
  N   N298      1.0  0.76402  0.35162  0.56158  1.0000
  N   N299      1.0  0.48598  0.89838  0.56158  1.0000
  N   N300      1.0  0.76402  0.89838  0.68842  1.0000
  N   N301      1.0  0.68842  0.98598  0.85162  1.0000
  N   N302      1.0  0.56158  0.26402  0.85162  1.0000
  N   N303      1.0  0.56158  0.98598  0.39838  1.0000
  N   N304      1.0  0.68842  0.26402  0.39838  1.0000
  N   N305      1.0  0.35162  0.18842  0.98598  1.0000
  N   N306      1.0  0.35162  0.06158  0.26402  1.0000
  N   N307      1.0  0.89838  0.06158  0.98598  1.0000
  N   N308      1.0  0.89838  0.18842  0.26402  1.0000
  N   N309      1.0  0.48598  0.85162  0.18842  1.0000
  N   N310      1.0  0.76402  0.85162  0.06158  1.0000
  N   N311      1.0  0.48598  0.39838  0.06158  1.0000
  N   N312      1.0  0.76402  0.39838  0.18842  1.0000
  N   N313      1.0  0.18842  0.48598  0.85162  1.0000
  N   N314      1.0  0.06158  0.76402  0.85162  1.0000
  N   N315      1.0  0.06158  0.48598  0.39838  1.0000
  N   N316      1.0  0.18842  0.76402  0.39838  1.0000
  N   N317      1.0  0.85162  0.68842  0.98598  1.0000
  N   N318      1.0  0.85162  0.56158  0.26402  1.0000
  N   N319      1.0  0.39838  0.56158  0.98598  1.0000
  N   N320      1.0  0.39838  0.68842  0.26402  1.0000
  N   N321      1.0  0.98598  0.35162  0.18842  1.0000
  N   N322      1.0  0.26402  0.35162  0.06158  1.0000
  N   N323      1.0  0.98598  0.89838  0.06158  1.0000
  N   N324      1.0  0.26402  0.89838  0.18842  1.0000
  N   N325      1.0  0.18842  0.98598  0.35162  1.0000
  N   N326      1.0  0.06158  0.26402  0.35162  1.0000
  N   N327      1.0  0.06158  0.98598  0.89838  1.0000
  N   N328      1.0  0.18842  0.26402  0.89838  1.0000
  N   N329      1.0  0.85162  0.18842  0.48598  1.0000
  N   N330      1.0  0.85162  0.06158  0.76402  1.0000
  N   N331      1.0  0.39838  0.06158  0.48598  1.0000
  N   N332      1.0  0.39838  0.18842  0.76402  1.0000
  N   N333      1.0  0.98598  0.85162  0.68842  1.0000
  N   N334      1.0  0.26402  0.85162  0.56158  1.0000
  N   N335      1.0  0.98598  0.39838  0.56158  1.0000
  N   N336      1.0  0.26402  0.39838  0.68842  1.0000
  N   N337      1.0  0.31158  0.51402  0.64838  1.0000
  N   N338      1.0  0.43842  0.23598  0.64838  1.0000
  N   N339      1.0  0.43842  0.51402  0.10162  1.0000
  N   N340      1.0  0.31158  0.23598  0.10162  1.0000
  N   N341      1.0  0.64838  0.31158  0.51402  1.0000
  N   N342      1.0  0.64838  0.43842  0.23598  1.0000
  N   N343      1.0  0.10162  0.43842  0.51402  1.0000
  N   N344      1.0  0.10162  0.31158  0.23598  1.0000
  N   N345      1.0  0.51402  0.64838  0.31158  1.0000
  N   N346      1.0  0.23598  0.64838  0.43842  1.0000
  N   N347      1.0  0.51402  0.10162  0.43842  1.0000
  N   N348      1.0  0.23598  0.10162  0.31158  1.0000
  N   N349      1.0  0.31158  0.01402  0.14838  1.0000
  N   N350      1.0  0.43842  0.73598  0.14838  1.0000
  N   N351      1.0  0.43842  0.01402  0.60162  1.0000
  N   N352      1.0  0.31158  0.73598  0.60162  1.0000
  N   N353      1.0  0.64838  0.81158  0.01402  1.0000
  N   N354      1.0  0.64838  0.93842  0.73598  1.0000
  N   N355      1.0  0.10162  0.93842  0.01402  1.0000
  N   N356      1.0  0.10162  0.81158  0.73598  1.0000
  N   N357      1.0  0.51402  0.14838  0.81158  1.0000
  N   N358      1.0  0.23598  0.14838  0.93842  1.0000
  N   N359      1.0  0.51402  0.60162  0.93842  1.0000
  N   N360      1.0  0.23598  0.60162  0.81158  1.0000
  N   N361      1.0  0.81158  0.51402  0.14838  1.0000
  N   N362      1.0  0.93842  0.23598  0.14838  1.0000
  N   N363      1.0  0.93842  0.51402  0.60162  1.0000
  N   N364      1.0  0.81158  0.23598  0.60162  1.0000
  N   N365      1.0  0.14838  0.31158  0.01402  1.0000
  N   N366      1.0  0.14838  0.43842  0.73598  1.0000
  N   N367      1.0  0.60162  0.43842  0.01402  1.0000
  N   N368      1.0  0.60162  0.31158  0.73598  1.0000
  N   N369      1.0  0.01402  0.64838  0.81158  1.0000
  N   N370      1.0  0.73598  0.64838  0.93842  1.0000
  N   N371      1.0  0.01402  0.10162  0.93842  1.0000
  N   N372      1.0  0.73598  0.10162  0.81158  1.0000
  N   N373      1.0  0.81158  0.01402  0.64838  1.0000
  N   N374      1.0  0.93842  0.73598  0.64838  1.0000
  N   N375      1.0  0.93842  0.01402  0.10162  1.0000
  N   N376      1.0  0.81158  0.73598  0.10162  1.0000
  N   N377      1.0  0.14838  0.81158  0.51402  1.0000
  N   N378      1.0  0.14838  0.93842  0.23598  1.0000
  N   N379      1.0  0.60162  0.93842  0.51402  1.0000
  N   N380      1.0  0.60162  0.81158  0.23598  1.0000
  N   N381      1.0  0.01402  0.14838  0.31158  1.0000
  N   N382      1.0  0.73598  0.14838  0.43842  1.0000
  N   N383      1.0  0.01402  0.60162  0.43842  1.0000
  N   N384      1.0  0.73598  0.60162  0.31158  1.0000
  N   N385      1.0  0.71669  0.54395  0.39256  1.0000
  N   N386      1.0  0.53331  0.70605  0.39256  1.0000
  N   N387      1.0  0.53331  0.54395  0.85744  1.0000
  N   N388      1.0  0.71669  0.70605  0.85744  1.0000
  N   N389      1.0  0.39256  0.71669  0.54395  1.0000
  N   N390      1.0  0.39256  0.53331  0.70605  1.0000
  N   N391      1.0  0.85744  0.53331  0.54395  1.0000
  N   N392      1.0  0.85744  0.71669  0.70605  1.0000
  N   N393      1.0  0.54395  0.39256  0.71669  1.0000
  N   N394      1.0  0.70605  0.39256  0.53331  1.0000
  N   N395      1.0  0.54395  0.85744  0.53331  1.0000
  N   N396      1.0  0.70605  0.85744  0.71669  1.0000
  N   N397      1.0  0.71669  0.04395  0.89256  1.0000
  N   N398      1.0  0.53331  0.20605  0.89256  1.0000
  N   N399      1.0  0.53331  0.04395  0.35744  1.0000
  N   N400      1.0  0.71669  0.20605  0.35744  1.0000
  N   N401      1.0  0.39256  0.21669  0.04395  1.0000
  N   N402      1.0  0.39256  0.03331  0.20605  1.0000
  N   N403      1.0  0.85744  0.03331  0.04395  1.0000
  N   N404      1.0  0.85744  0.21669  0.20605  1.0000
  N   N405      1.0  0.54395  0.89256  0.21669  1.0000
  N   N406      1.0  0.70605  0.89256  0.03331  1.0000
  N   N407      1.0  0.54395  0.35744  0.03331  1.0000
  N   N408      1.0  0.70605  0.35744  0.21669  1.0000
  N   N409      1.0  0.21669  0.54395  0.89256  1.0000
  N   N410      1.0  0.03331  0.70605  0.89256  1.0000
  N   N411      1.0  0.03331  0.54395  0.35744  1.0000
  N   N412      1.0  0.21669  0.70605  0.35744  1.0000
  N   N413      1.0  0.89256  0.71669  0.04395  1.0000
  N   N414      1.0  0.89256  0.53331  0.20605  1.0000
  N   N415      1.0  0.35744  0.53331  0.04395  1.0000
  N   N416      1.0  0.35744  0.71669  0.20605  1.0000
  N   N417      1.0  0.04395  0.39256  0.21669  1.0000
  N   N418      1.0  0.20605  0.39256  0.03331  1.0000
  N   N419      1.0  0.04395  0.85744  0.03331  1.0000
  N   N420      1.0  0.20605  0.85744  0.21669  1.0000
  N   N421      1.0  0.21669  0.04395  0.39256  1.0000
  N   N422      1.0  0.03331  0.20605  0.39256  1.0000
  N   N423      1.0  0.03331  0.04395  0.85744  1.0000
  N   N424      1.0  0.21669  0.20605  0.85744  1.0000
  N   N425      1.0  0.89256  0.21669  0.54395  1.0000
  N   N426      1.0  0.89256  0.03331  0.70605  1.0000
  N   N427      1.0  0.35744  0.03331  0.54395  1.0000
  N   N428      1.0  0.35744  0.21669  0.70605  1.0000
  N   N429      1.0  0.04395  0.89256  0.71669  1.0000
  N   N430      1.0  0.20605  0.89256  0.53331  1.0000
  N   N431      1.0  0.04395  0.35744  0.53331  1.0000
  N   N432      1.0  0.20605  0.35744  0.71669  1.0000
  N   N433      1.0  0.28331  0.45605  0.60744  1.0000
  N   N434      1.0  0.46669  0.29395  0.60744  1.0000
  N   N435      1.0  0.46669  0.45605  0.14256  1.0000
  N   N436      1.0  0.28331  0.29395  0.14256  1.0000
  N   N437      1.0  0.60744  0.28331  0.45605  1.0000
  N   N438      1.0  0.60744  0.46669  0.29395  1.0000
  N   N439      1.0  0.14256  0.46669  0.45605  1.0000
  N   N440      1.0  0.14256  0.28331  0.29395  1.0000
  N   N441      1.0  0.45605  0.60744  0.28331  1.0000
  N   N442      1.0  0.29395  0.60744  0.46669  1.0000
  N   N443      1.0  0.45605  0.14256  0.46669  1.0000
  N   N444      1.0  0.29395  0.14256  0.28331  1.0000
  N   N445      1.0  0.28331  0.95605  0.10744  1.0000
  N   N446      1.0  0.46669  0.79395  0.10744  1.0000
  N   N447      1.0  0.46669  0.95605  0.64256  1.0000
  N   N448      1.0  0.28331  0.79395  0.64256  1.0000
  N   N449      1.0  0.60744  0.78331  0.95605  1.0000
  N   N450      1.0  0.60744  0.96669  0.79395  1.0000
  N   N451      1.0  0.14256  0.96669  0.95605  1.0000
  N   N452      1.0  0.14256  0.78331  0.79395  1.0000
  N   N453      1.0  0.45605  0.10744  0.78331  1.0000
  N   N454      1.0  0.29395  0.10744  0.96669  1.0000
  N   N455      1.0  0.45605  0.64256  0.96669  1.0000
  N   N456      1.0  0.29395  0.64256  0.78331  1.0000
  N   N457      1.0  0.78331  0.45605  0.10744  1.0000
  N   N458      1.0  0.96669  0.29395  0.10744  1.0000
  N   N459      1.0  0.96669  0.45605  0.64256  1.0000
  N   N460      1.0  0.78331  0.29395  0.64256  1.0000
  N   N461      1.0  0.10744  0.28331  0.95605  1.0000
  N   N462      1.0  0.10744  0.46669  0.79395  1.0000
  N   N463      1.0  0.64256  0.46669  0.95605  1.0000
  N   N464      1.0  0.64256  0.28331  0.79395  1.0000
  N   N465      1.0  0.95605  0.60744  0.78331  1.0000
  N   N466      1.0  0.79395  0.60744  0.96669  1.0000
  N   N467      1.0  0.95605  0.14256  0.96669  1.0000
  N   N468      1.0  0.79395  0.14256  0.78331  1.0000
  N   N469      1.0  0.78331  0.95605  0.60744  1.0000
  N   N470      1.0  0.96669  0.79395  0.60744  1.0000
  N   N471      1.0  0.96669  0.95605  0.14256  1.0000
  N   N472      1.0  0.78331  0.79395  0.14256  1.0000
  N   N473      1.0  0.10744  0.78331  0.45605  1.0000
  N   N474      1.0  0.10744  0.96669  0.29395  1.0000
  N   N475      1.0  0.64256  0.96669  0.45605  1.0000
  N   N476      1.0  0.64256  0.78331  0.29395  1.0000
  N   N477      1.0  0.95605  0.10744  0.28331  1.0000
  N   N478      1.0  0.79395  0.10744  0.46669  1.0000
  N   N479      1.0  0.95605  0.64256  0.46669  1.0000
  N   N480      1.0  0.79395  0.64256  0.28331  1.0000
  N   N481      1.0  0.64600  0.46888  0.37288  1.0000
  N   N482      1.0  0.60400  0.78112  0.37288  1.0000
  N   N483      1.0  0.60400  0.46888  0.87712  1.0000
  N   N484      1.0  0.64600  0.78112  0.87712  1.0000
  N   N485      1.0  0.37288  0.64600  0.46888  1.0000
  N   N486      1.0  0.37288  0.60400  0.78112  1.0000
  N   N487      1.0  0.87712  0.60400  0.46888  1.0000
  N   N488      1.0  0.87712  0.64600  0.78112  1.0000
  N   N489      1.0  0.46888  0.37288  0.64600  1.0000
  N   N490      1.0  0.78112  0.37288  0.60400  1.0000
  N   N491      1.0  0.46888  0.87712  0.60400  1.0000
  N   N492      1.0  0.78112  0.87712  0.64600  1.0000
  N   N493      1.0  0.64600  0.96888  0.87288  1.0000
  N   N494      1.0  0.60400  0.28112  0.87288  1.0000
  N   N495      1.0  0.60400  0.96888  0.37712  1.0000
  N   N496      1.0  0.64600  0.28112  0.37712  1.0000
  N   N497      1.0  0.37288  0.14600  0.96888  1.0000
  N   N498      1.0  0.37288  0.10400  0.28112  1.0000
  N   N499      1.0  0.87712  0.10400  0.96888  1.0000
  N   N500      1.0  0.87712  0.14600  0.28112  1.0000
  N   N501      1.0  0.46888  0.87288  0.14600  1.0000
  N   N502      1.0  0.78112  0.87288  0.10400  1.0000
  N   N503      1.0  0.46888  0.37712  0.10400  1.0000
  N   N504      1.0  0.78112  0.37712  0.14600  1.0000
  N   N505      1.0  0.14600  0.46888  0.87288  1.0000
  N   N506      1.0  0.10400  0.78112  0.87288  1.0000
  N   N507      1.0  0.10400  0.46888  0.37712  1.0000
  N   N508      1.0  0.14600  0.78112  0.37712  1.0000
  N   N509      1.0  0.87288  0.64600  0.96888  1.0000
  N   N510      1.0  0.87288  0.60400  0.28112  1.0000
  N   N511      1.0  0.37712  0.60400  0.96888  1.0000
  N   N512      1.0  0.37712  0.64600  0.28112  1.0000
  N   N513      1.0  0.96888  0.37288  0.14600  1.0000
  N   N514      1.0  0.28112  0.37288  0.10400  1.0000
  N   N515      1.0  0.96888  0.87712  0.10400  1.0000
  N   N516      1.0  0.28112  0.87712  0.14600  1.0000
  N   N517      1.0  0.14600  0.96888  0.37288  1.0000
  N   N518      1.0  0.10400  0.28112  0.37288  1.0000
  N   N519      1.0  0.10400  0.96888  0.87712  1.0000
  N   N520      1.0  0.14600  0.28112  0.87712  1.0000
  N   N521      1.0  0.87288  0.14600  0.46888  1.0000
  N   N522      1.0  0.87288  0.10400  0.78112  1.0000
  N   N523      1.0  0.37712  0.10400  0.46888  1.0000
  N   N524      1.0  0.37712  0.14600  0.78112  1.0000
  N   N525      1.0  0.96888  0.87288  0.64600  1.0000
  N   N526      1.0  0.28112  0.87288  0.60400  1.0000
  N   N527      1.0  0.96888  0.37712  0.60400  1.0000
  N   N528      1.0  0.28112  0.37712  0.64600  1.0000
  N   N529      1.0  0.35400  0.53112  0.62712  1.0000
  N   N530      1.0  0.39600  0.21888  0.62712  1.0000
  N   N531      1.0  0.39600  0.53112  0.12288  1.0000
  N   N532      1.0  0.35400  0.21888  0.12288  1.0000
  N   N533      1.0  0.62712  0.35400  0.53112  1.0000
  N   N534      1.0  0.62712  0.39600  0.21888  1.0000
  N   N535      1.0  0.12288  0.39600  0.53112  1.0000
  N   N536      1.0  0.12288  0.35400  0.21888  1.0000
  N   N537      1.0  0.53112  0.62712  0.35400  1.0000
  N   N538      1.0  0.21888  0.62712  0.39600  1.0000
  N   N539      1.0  0.53112  0.12288  0.39600  1.0000
  N   N540      1.0  0.21888  0.12288  0.35400  1.0000
  N   N541      1.0  0.35400  0.03112  0.12712  1.0000
  N   N542      1.0  0.39600  0.71888  0.12712  1.0000
  N   N543      1.0  0.39600  0.03112  0.62288  1.0000
  N   N544      1.0  0.35400  0.71888  0.62288  1.0000
  N   N545      1.0  0.62712  0.85400  0.03112  1.0000
  N   N546      1.0  0.62712  0.89600  0.71888  1.0000
  N   N547      1.0  0.12288  0.89600  0.03112  1.0000
  N   N548      1.0  0.12288  0.85400  0.71888  1.0000
  N   N549      1.0  0.53112  0.12712  0.85400  1.0000
  N   N550      1.0  0.21888  0.12712  0.89600  1.0000
  N   N551      1.0  0.53112  0.62288  0.89600  1.0000
  N   N552      1.0  0.21888  0.62288  0.85400  1.0000
  N   N553      1.0  0.85400  0.53112  0.12712  1.0000
  N   N554      1.0  0.89600  0.21888  0.12712  1.0000
  N   N555      1.0  0.89600  0.53112  0.62288  1.0000
  N   N556      1.0  0.85400  0.21888  0.62288  1.0000
  N   N557      1.0  0.12712  0.35400  0.03112  1.0000
  N   N558      1.0  0.12712  0.39600  0.71888  1.0000
  N   N559      1.0  0.62288  0.39600  0.03112  1.0000
  N   N560      1.0  0.62288  0.35400  0.71888  1.0000
  N   N561      1.0  0.03112  0.62712  0.85400  1.0000
  N   N562      1.0  0.71888  0.62712  0.89600  1.0000
  N   N563      1.0  0.03112  0.12288  0.89600  1.0000
  N   N564      1.0  0.71888  0.12288  0.85400  1.0000
  N   N565      1.0  0.85400  0.03112  0.62712  1.0000
  N   N566      1.0  0.89600  0.71888  0.62712  1.0000
  N   N567      1.0  0.89600  0.03112  0.12288  1.0000
  N   N568      1.0  0.85400  0.71888  0.12288  1.0000
  N   N569      1.0  0.12712  0.85400  0.53112  1.0000
  N   N570      1.0  0.12712  0.89600  0.21888  1.0000
  N   N571      1.0  0.62288  0.89600  0.53112  1.0000
  N   N572      1.0  0.62288  0.85400  0.21888  1.0000
  N   N573      1.0  0.03112  0.12712  0.35400  1.0000
  N   N574      1.0  0.71888  0.12712  0.39600  1.0000
  N   N575      1.0  0.03112  0.62288  0.39600  1.0000
  N   N576      1.0  0.71888  0.62288  0.35400  1.0000
  N   N577      1.0  0.62403  0.45815  0.38046  1.0000
  N   N578      1.0  0.62597  0.79185  0.38046  1.0000
  N   N579      1.0  0.62597  0.45815  0.86954  1.0000
  N   N580      1.0  0.62403  0.79185  0.86954  1.0000
  N   N581      1.0  0.38046  0.62403  0.45815  1.0000
  N   N582      1.0  0.38046  0.62597  0.79185  1.0000
  N   N583      1.0  0.86954  0.62597  0.45815  1.0000
  N   N584      1.0  0.86954  0.62403  0.79185  1.0000
  N   N585      1.0  0.45815  0.38046  0.62403  1.0000
  N   N586      1.0  0.79185  0.38046  0.62597  1.0000
  N   N587      1.0  0.45815  0.86954  0.62597  1.0000
  N   N588      1.0  0.79185  0.86954  0.62403  1.0000
  N   N589      1.0  0.62403  0.95815  0.88046  1.0000
  N   N590      1.0  0.62597  0.29185  0.88046  1.0000
  N   N591      1.0  0.62597  0.95815  0.36954  1.0000
  N   N592      1.0  0.62403  0.29185  0.36954  1.0000
  N   N593      1.0  0.38046  0.12403  0.95815  1.0000
  N   N594      1.0  0.38046  0.12597  0.29185  1.0000
  N   N595      1.0  0.86954  0.12597  0.95815  1.0000
  N   N596      1.0  0.86954  0.12403  0.29185  1.0000
  N   N597      1.0  0.45815  0.88046  0.12403  1.0000
  N   N598      1.0  0.79185  0.88046  0.12597  1.0000
  N   N599      1.0  0.45815  0.36954  0.12597  1.0000
  N   N600      1.0  0.79185  0.36954  0.12403  1.0000
  N   N601      1.0  0.12403  0.45815  0.88046  1.0000
  N   N602      1.0  0.12597  0.79185  0.88046  1.0000
  N   N603      1.0  0.12597  0.45815  0.36954  1.0000
  N   N604      1.0  0.12403  0.79185  0.36954  1.0000
  N   N605      1.0  0.88046  0.62403  0.95815  1.0000
  N   N606      1.0  0.88046  0.62597  0.29185  1.0000
  N   N607      1.0  0.36954  0.62597  0.95815  1.0000
  N   N608      1.0  0.36954  0.62403  0.29185  1.0000
  N   N609      1.0  0.95815  0.38046  0.12403  1.0000
  N   N610      1.0  0.29185  0.38046  0.12597  1.0000
  N   N611      1.0  0.95815  0.86954  0.12597  1.0000
  N   N612      1.0  0.29185  0.86954  0.12403  1.0000
  N   N613      1.0  0.12403  0.95815  0.38046  1.0000
  N   N614      1.0  0.12597  0.29185  0.38046  1.0000
  N   N615      1.0  0.12597  0.95815  0.86954  1.0000
  N   N616      1.0  0.12403  0.29185  0.86954  1.0000
  N   N617      1.0  0.88046  0.12403  0.45815  1.0000
  N   N618      1.0  0.88046  0.12597  0.79185  1.0000
  N   N619      1.0  0.36954  0.12597  0.45815  1.0000
  N   N620      1.0  0.36954  0.12403  0.79185  1.0000
  N   N621      1.0  0.95815  0.88046  0.62403  1.0000
  N   N622      1.0  0.29185  0.88046  0.62597  1.0000
  N   N623      1.0  0.95815  0.36954  0.62597  1.0000
  N   N624      1.0  0.29185  0.36954  0.62403  1.0000
  N   N625      1.0  0.37597  0.54185  0.61954  1.0000
  N   N626      1.0  0.37403  0.20815  0.61954  1.0000
  N   N627      1.0  0.37403  0.54185  0.13046  1.0000
  N   N628      1.0  0.37597  0.20815  0.13046  1.0000
  N   N629      1.0  0.61954  0.37597  0.54185  1.0000
  N   N630      1.0  0.61954  0.37403  0.20815  1.0000
  N   N631      1.0  0.13046  0.37403  0.54185  1.0000
  N   N632      1.0  0.13046  0.37597  0.20815  1.0000
  N   N633      1.0  0.54185  0.61954  0.37597  1.0000
  N   N634      1.0  0.20815  0.61954  0.37403  1.0000
  N   N635      1.0  0.54185  0.13046  0.37403  1.0000
  N   N636      1.0  0.20815  0.13046  0.37597  1.0000
  N   N637      1.0  0.37597  0.04185  0.11954  1.0000
  N   N638      1.0  0.37403  0.70815  0.11954  1.0000
  N   N639      1.0  0.37403  0.04185  0.63046  1.0000
  N   N640      1.0  0.37597  0.70815  0.63046  1.0000
  N   N641      1.0  0.61954  0.87597  0.04185  1.0000
  N   N642      1.0  0.61954  0.87403  0.70815  1.0000
  N   N643      1.0  0.13046  0.87403  0.04185  1.0000
  N   N644      1.0  0.13046  0.87597  0.70815  1.0000
  N   N645      1.0  0.54185  0.11954  0.87597  1.0000
  N   N646      1.0  0.20815  0.11954  0.87403  1.0000
  N   N647      1.0  0.54185  0.63046  0.87403  1.0000
  N   N648      1.0  0.20815  0.63046  0.87597  1.0000
  N   N649      1.0  0.87597  0.54185  0.11954  1.0000
  N   N650      1.0  0.87403  0.20815  0.11954  1.0000
  N   N651      1.0  0.87403  0.54185  0.63046  1.0000
  N   N652      1.0  0.87597  0.20815  0.63046  1.0000
  N   N653      1.0  0.11954  0.37597  0.04185  1.0000
  N   N654      1.0  0.11954  0.37403  0.70815  1.0000
  N   N655      1.0  0.63046  0.37403  0.04185  1.0000
  N   N656      1.0  0.63046  0.37597  0.70815  1.0000
  N   N657      1.0  0.04185  0.61954  0.87597  1.0000
  N   N658      1.0  0.70815  0.61954  0.87403  1.0000
  N   N659      1.0  0.04185  0.13046  0.87403  1.0000
  N   N660      1.0  0.70815  0.13046  0.87597  1.0000
  N   N661      1.0  0.87597  0.04185  0.61954  1.0000
  N   N662      1.0  0.87403  0.70815  0.61954  1.0000
  N   N663      1.0  0.87403  0.04185  0.13046  1.0000
  N   N664      1.0  0.87597  0.70815  0.13046  1.0000
  N   N665      1.0  0.11954  0.87597  0.54185  1.0000
  N   N666      1.0  0.11954  0.87403  0.20815  1.0000
  N   N667      1.0  0.63046  0.87403  0.54185  1.0000
  N   N668      1.0  0.63046  0.87597  0.20815  1.0000
  N   N669      1.0  0.04185  0.11954  0.37597  1.0000
  N   N670      1.0  0.70815  0.11954  0.37403  1.0000
  N   N671      1.0  0.04185  0.63046  0.37403  1.0000
  N   N672      1.0  0.70815  0.63046  0.37597  1.0000
  O   O481      1.0  0.73946  0.46654  0.26998  1.0000
  O   O482      1.0  0.51054  0.78346  0.26998  1.0000
  O   O483      1.0  0.51054  0.46654  0.98002  1.0000
  O   O484      1.0  0.73946  0.78346  0.98002  1.0000
  O   O485      1.0  0.26998  0.73946  0.46654  1.0000
  O   O486      1.0  0.26998  0.51054  0.78346  1.0000
  O   O487      1.0  0.98002  0.51054  0.46654  1.0000
  O   O488      1.0  0.98002  0.73946  0.78346  1.0000
  O   O489      1.0  0.46654  0.26998  0.73946  1.0000
  O   O490      1.0  0.78346  0.26998  0.51054  1.0000
  O   O491      1.0  0.46654  0.98002  0.51054  1.0000
  O   O492      1.0  0.78346  0.98002  0.73946  1.0000
  O   O493      1.0  0.73946  0.96654  0.76998  1.0000
  O   O494      1.0  0.51054  0.28346  0.76998  1.0000
  O   O495      1.0  0.51054  0.96654  0.48002  1.0000
  O   O496      1.0  0.73946  0.28346  0.48002  1.0000
  O   O497      1.0  0.26998  0.23946  0.96654  1.0000
  O   O498      1.0  0.26998  0.01054  0.28346  1.0000
  O   O499      1.0  0.98002  0.01054  0.96654  1.0000
  O   O500      1.0  0.98002  0.23946  0.28346  1.0000
  O   O501      1.0  0.46654  0.76998  0.23946  1.0000
  O   O502      1.0  0.78346  0.76998  0.01054  1.0000
  O   O503      1.0  0.46654  0.48002  0.01054  1.0000
  O   O504      1.0  0.78346  0.48002  0.23946  1.0000
  O   O505      1.0  0.23946  0.46654  0.76998  1.0000
  O   O506      1.0  0.01054  0.78346  0.76998  1.0000
  O   O507      1.0  0.01054  0.46654  0.48002  1.0000
  O   O508      1.0  0.23946  0.78346  0.48002  1.0000
  O   O509      1.0  0.76998  0.73946  0.96654  1.0000
  O   O510      1.0  0.76998  0.51054  0.28346  1.0000
  O   O511      1.0  0.48002  0.51054  0.96654  1.0000
  O   O512      1.0  0.48002  0.73946  0.28346  1.0000
  O   O513      1.0  0.96654  0.26998  0.23946  1.0000
  O   O514      1.0  0.28346  0.26998  0.01054  1.0000
  O   O515      1.0  0.96654  0.98002  0.01054  1.0000
  O   O516      1.0  0.28346  0.98002  0.23946  1.0000
  O   O517      1.0  0.23946  0.96654  0.26998  1.0000
  O   O518      1.0  0.01054  0.28346  0.26998  1.0000
  O   O519      1.0  0.01054  0.96654  0.98002  1.0000
  O   O520      1.0  0.23946  0.28346  0.98002  1.0000
  O   O521      1.0  0.76998  0.23946  0.46654  1.0000
  O   O522      1.0  0.76998  0.01054  0.78346  1.0000
  O   O523      1.0  0.48002  0.01054  0.46654  1.0000
  O   O524      1.0  0.48002  0.23946  0.78346  1.0000
  O   O525      1.0  0.96654  0.76998  0.73946  1.0000
  O   O526      1.0  0.28346  0.76998  0.51054  1.0000
  O   O527      1.0  0.96654  0.48002  0.51054  1.0000
  O   O528      1.0  0.28346  0.48002  0.73946  1.0000
  O   O529      1.0  0.26054  0.53346  0.73002  1.0000
  O   O530      1.0  0.48946  0.21654  0.73002  1.0000
  O   O531      1.0  0.48946  0.53346  0.01998  1.0000
  O   O532      1.0  0.26054  0.21654  0.01998  1.0000
  O   O533      1.0  0.73002  0.26054  0.53346  1.0000
  O   O534      1.0  0.73002  0.48946  0.21654  1.0000
  O   O535      1.0  0.01998  0.48946  0.53346  1.0000
  O   O536      1.0  0.01998  0.26054  0.21654  1.0000
  O   O537      1.0  0.53346  0.73002  0.26054  1.0000
  O   O538      1.0  0.21654  0.73002  0.48946  1.0000
  O   O539      1.0  0.53346  0.01998  0.48946  1.0000
  O   O540      1.0  0.21654  0.01998  0.26054  1.0000
  O   O541      1.0  0.26054  0.03346  0.23002  1.0000
  O   O542      1.0  0.48946  0.71654  0.23002  1.0000
  O   O543      1.0  0.48946  0.03346  0.51998  1.0000
  O   O544      1.0  0.26054  0.71654  0.51998  1.0000
  O   O545      1.0  0.73002  0.76054  0.03346  1.0000
  O   O546      1.0  0.73002  0.98946  0.71654  1.0000
  O   O547      1.0  0.01998  0.98946  0.03346  1.0000
  O   O548      1.0  0.01998  0.76054  0.71654  1.0000
  O   O549      1.0  0.53346  0.23002  0.76054  1.0000
  O   O550      1.0  0.21654  0.23002  0.98946  1.0000
  O   O551      1.0  0.53346  0.51998  0.98946  1.0000
  O   O552      1.0  0.21654  0.51998  0.76054  1.0000
  O   O553      1.0  0.76054  0.53346  0.23002  1.0000
  O   O554      1.0  0.98946  0.21654  0.23002  1.0000
  O   O555      1.0  0.98946  0.53346  0.51998  1.0000
  O   O556      1.0  0.76054  0.21654  0.51998  1.0000
  O   O557      1.0  0.23002  0.26054  0.03346  1.0000
  O   O558      1.0  0.23002  0.48946  0.71654  1.0000
  O   O559      1.0  0.51998  0.48946  0.03346  1.0000
  O   O560      1.0  0.51998  0.26054  0.71654  1.0000
  O   O561      1.0  0.03346  0.73002  0.76054  1.0000
  O   O562      1.0  0.71654  0.73002  0.98946  1.0000
  O   O563      1.0  0.03346  0.01998  0.98946  1.0000
  O   O564      1.0  0.71654  0.01998  0.76054  1.0000
  O   O565      1.0  0.76054  0.03346  0.73002  1.0000
  O   O566      1.0  0.98946  0.71654  0.73002  1.0000
  O   O567      1.0  0.98946  0.03346  0.01998  1.0000
  O   O568      1.0  0.76054  0.71654  0.01998  1.0000
  O   O569      1.0  0.23002  0.76054  0.53346  1.0000
  O   O570      1.0  0.23002  0.98946  0.21654  1.0000
  O   O571      1.0  0.51998  0.98946  0.53346  1.0000
  O   O572      1.0  0.51998  0.76054  0.21654  1.0000
  O   O573      1.0  0.03346  0.23002  0.26054  1.0000
  O   O574      1.0  0.71654  0.23002  0.48946  1.0000
  O   O575      1.0  0.03346  0.51998  0.48946  1.0000
  O   O576      1.0  0.71654  0.51998  0.26054  1.0000
  C   C1        1.0  0.71940  0.51892  0.35873  1.0000
  C   C2        1.0  0.53060  0.73108  0.35873  1.0000
  C   C3        1.0  0.53060  0.51892  0.89127  1.0000
  C   C4        1.0  0.71940  0.73108  0.89127  1.0000
  C   C5        1.0  0.35873  0.71940  0.51892  1.0000
  C   C6        1.0  0.35873  0.53060  0.73108  1.0000
  C   C7        1.0  0.89127  0.53060  0.51892  1.0000
  C   C8        1.0  0.89127  0.71940  0.73108  1.0000
  C   C9        1.0  0.51892  0.35873  0.71940  1.0000
  C   C10       1.0  0.73108  0.35873  0.53060  1.0000
  C   C11       1.0  0.51892  0.89127  0.53060  1.0000
  C   C12       1.0  0.73108  0.89127  0.71940  1.0000
  C   C13       1.0  0.71940  0.01892  0.85873  1.0000
  C   C14       1.0  0.53060  0.23108  0.85873  1.0000
  C   C15       1.0  0.53060  0.01892  0.39127  1.0000
  C   C16       1.0  0.71940  0.23108  0.39127  1.0000
  C   C17       1.0  0.35873  0.21940  0.01892  1.0000
  C   C18       1.0  0.35873  0.03060  0.23108  1.0000
  C   C19       1.0  0.89127  0.03060  0.01892  1.0000
  C   C20       1.0  0.89127  0.21940  0.23108  1.0000
  C   C21       1.0  0.51892  0.85873  0.21940  1.0000
  C   C22       1.0  0.73108  0.85873  0.03060  1.0000
  C   C23       1.0  0.51892  0.39127  0.03060  1.0000
  C   C24       1.0  0.73108  0.39127  0.21940  1.0000
  C   C25       1.0  0.21940  0.51892  0.85873  1.0000
  C   C26       1.0  0.03060  0.73108  0.85873  1.0000
  C   C27       1.0  0.03060  0.51892  0.39127  1.0000
  C   C28       1.0  0.21940  0.73108  0.39127  1.0000
  C   C29       1.0  0.85873  0.71940  0.01892  1.0000
  C   C30       1.0  0.85873  0.53060  0.23108  1.0000
  C   C31       1.0  0.39127  0.53060  0.01892  1.0000
  C   C32       1.0  0.39127  0.71940  0.23108  1.0000
  C   C33       1.0  0.01892  0.35873  0.21940  1.0000
  C   C34       1.0  0.23108  0.35873  0.03060  1.0000
  C   C35       1.0  0.01892  0.89127  0.03060  1.0000
  C   C36       1.0  0.23108  0.89127  0.21940  1.0000
  C   C37       1.0  0.21940  0.01892  0.35873  1.0000
  C   C38       1.0  0.03060  0.23108  0.35873  1.0000
  C   C39       1.0  0.03060  0.01892  0.89127  1.0000
  C   C40       1.0  0.21940  0.23108  0.89127  1.0000
  C   C41       1.0  0.85873  0.21940  0.51892  1.0000
  C   C42       1.0  0.85873  0.03060  0.73108  1.0000
  C   C43       1.0  0.39127  0.03060  0.51892  1.0000
  C   C44       1.0  0.39127  0.21940  0.73108  1.0000
  C   C45       1.0  0.01892  0.85873  0.71940  1.0000
  C   C46       1.0  0.23108  0.85873  0.53060  1.0000
  C   C47       1.0  0.01892  0.39127  0.53060  1.0000
  C   C48       1.0  0.23108  0.39127  0.71940  1.0000
  C   C49       1.0  0.28060  0.48108  0.64127  1.0000
  C   C50       1.0  0.46940  0.26892  0.64127  1.0000
  C   C51       1.0  0.46940  0.48108  0.10873  1.0000
  C   C52       1.0  0.28060  0.26892  0.10873  1.0000
  C   C53       1.0  0.64127  0.28060  0.48108  1.0000
  C   C54       1.0  0.64127  0.46940  0.26892  1.0000
  C   C55       1.0  0.10873  0.46940  0.48108  1.0000
  C   C56       1.0  0.10873  0.28060  0.26892  1.0000
  C   C57       1.0  0.48108  0.64127  0.28060  1.0000
  C   C58       1.0  0.26892  0.64127  0.46940  1.0000
  C   C59       1.0  0.48108  0.10873  0.46940  1.0000
  C   C60       1.0  0.26892  0.10873  0.28060  1.0000
  C   C61       1.0  0.28060  0.98108  0.14127  1.0000
  C   C62       1.0  0.46940  0.76892  0.14127  1.0000
  C   C63       1.0  0.46940  0.98108  0.60873  1.0000
  C   C64       1.0  0.28060  0.76892  0.60873  1.0000
  C   C65       1.0  0.64127  0.78060  0.98108  1.0000
  C   C66       1.0  0.64127  0.96940  0.76892  1.0000
  C   C67       1.0  0.10873  0.96940  0.98108  1.0000
  C   C68       1.0  0.10873  0.78060  0.76892  1.0000
  C   C69       1.0  0.48108  0.14127  0.78060  1.0000
  C   C70       1.0  0.26892  0.14127  0.96940  1.0000
  C   C71       1.0  0.48108  0.60873  0.96940  1.0000
  C   C72       1.0  0.26892  0.60873  0.78060  1.0000
  C   C73       1.0  0.78060  0.48108  0.14127  1.0000
  C   C74       1.0  0.96940  0.26892  0.14127  1.0000
  C   C75       1.0  0.96940  0.48108  0.60873  1.0000
  C   C76       1.0  0.78060  0.26892  0.60873  1.0000
  C   C77       1.0  0.14127  0.28060  0.98108  1.0000
  C   C78       1.0  0.14127  0.46940  0.76892  1.0000
  C   C79       1.0  0.60873  0.46940  0.98108  1.0000
  C   C80       1.0  0.60873  0.28060  0.76892  1.0000
  C   C81       1.0  0.98108  0.64127  0.78060  1.0000
  C   C82       1.0  0.76892  0.64127  0.96940  1.0000
  C   C83       1.0  0.98108  0.10873  0.96940  1.0000
  C   C84       1.0  0.76892  0.10873  0.78060  1.0000
  C   C85       1.0  0.78060  0.98108  0.64127  1.0000
  C   C86       1.0  0.96940  0.76892  0.64127  1.0000
  C   C87       1.0  0.96940  0.98108  0.10873  1.0000
  C   C88       1.0  0.78060  0.76892  0.10873  1.0000
  C   C89       1.0  0.14127  0.78060  0.48108  1.0000
  C   C90       1.0  0.14127  0.96940  0.26892  1.0000
  C   C91       1.0  0.60873  0.96940  0.48108  1.0000
  C   C92       1.0  0.60873  0.78060  0.26892  1.0000
  C   C93       1.0  0.98108  0.14127  0.28060  1.0000
  C   C94       1.0  0.76892  0.14127  0.46940  1.0000
  C   C95       1.0  0.98108  0.60873  0.46940  1.0000
  C   C96       1.0  0.76892  0.60873  0.28060  1.0000
  C   C97       1.0  0.67830  0.46525  0.33954  1.0000
  C   C98       1.0  0.57170  0.78475  0.33954  1.0000
  C   C99       1.0  0.57170  0.46525  0.91046  1.0000
  C   C100      1.0  0.67830  0.78475  0.91046  1.0000
  C   C101      1.0  0.33954  0.67830  0.46525  1.0000
  C   C102      1.0  0.33954  0.57170  0.78475  1.0000
  C   C103      1.0  0.91046  0.57170  0.46525  1.0000
  C   C104      1.0  0.91046  0.67830  0.78475  1.0000
  C   C105      1.0  0.46525  0.33954  0.67830  1.0000
  C   C106      1.0  0.78475  0.33954  0.57170  1.0000
  C   C107      1.0  0.46525  0.91046  0.57170  1.0000
  C   C108      1.0  0.78475  0.91046  0.67830  1.0000
  C   C109      1.0  0.67830  0.96525  0.83954  1.0000
  C   C110      1.0  0.57170  0.28475  0.83954  1.0000
  C   C111      1.0  0.57170  0.96525  0.41046  1.0000
  C   C112      1.0  0.67830  0.28475  0.41046  1.0000
  C   C113      1.0  0.33954  0.17830  0.96525  1.0000
  C   C114      1.0  0.33954  0.07170  0.28475  1.0000
  C   C115      1.0  0.91046  0.07170  0.96525  1.0000
  C   C116      1.0  0.91046  0.17830  0.28475  1.0000
  C   C117      1.0  0.46525  0.83954  0.17830  1.0000
  C   C118      1.0  0.78475  0.83954  0.07170  1.0000
  C   C119      1.0  0.46525  0.41046  0.07170  1.0000
  C   C120      1.0  0.78475  0.41046  0.17830  1.0000
  C   C121      1.0  0.17830  0.46525  0.83954  1.0000
  C   C122      1.0  0.07170  0.78475  0.83954  1.0000
  C   C123      1.0  0.07170  0.46525  0.41046  1.0000
  C   C124      1.0  0.17830  0.78475  0.41046  1.0000
  C   C125      1.0  0.83954  0.67830  0.96525  1.0000
  C   C126      1.0  0.83954  0.57170  0.28475  1.0000
  C   C127      1.0  0.41046  0.57170  0.96525  1.0000
  C   C128      1.0  0.41046  0.67830  0.28475  1.0000
  C   C129      1.0  0.96525  0.33954  0.17830  1.0000
  C   C130      1.0  0.28475  0.33954  0.07170  1.0000
  C   C131      1.0  0.96525  0.91046  0.07170  1.0000
  C   C132      1.0  0.28475  0.91046  0.17830  1.0000
  C   C133      1.0  0.17830  0.96525  0.33954  1.0000
  C   C134      1.0  0.07170  0.28475  0.33954  1.0000
  C   C135      1.0  0.07170  0.96525  0.91046  1.0000
  C   C136      1.0  0.17830  0.28475  0.91046  1.0000
  C   C137      1.0  0.83954  0.17830  0.46525  1.0000
  C   C138      1.0  0.83954  0.07170  0.78475  1.0000
  C   C139      1.0  0.41046  0.07170  0.46525  1.0000
  C   C140      1.0  0.41046  0.17830  0.78475  1.0000
  C   C141      1.0  0.96525  0.83954  0.67830  1.0000
  C   C142      1.0  0.28475  0.83954  0.57170  1.0000
  C   C143      1.0  0.96525  0.41046  0.57170  1.0000
  C   C144      1.0  0.28475  0.41046  0.67830  1.0000
  C   C145      1.0  0.32170  0.53475  0.66046  1.0000
  C   C146      1.0  0.42830  0.21525  0.66046  1.0000
  C   C147      1.0  0.42830  0.53475  0.08954  1.0000
  C   C148      1.0  0.32170  0.21525  0.08954  1.0000
  C   C149      1.0  0.66046  0.32170  0.53475  1.0000
  C   C150      1.0  0.66046  0.42830  0.21525  1.0000
  C   C151      1.0  0.08954  0.42830  0.53475  1.0000
  C   C152      1.0  0.08954  0.32170  0.21525  1.0000
  C   C153      1.0  0.53475  0.66046  0.32170  1.0000
  C   C154      1.0  0.21525  0.66046  0.42830  1.0000
  C   C155      1.0  0.53475  0.08954  0.42830  1.0000
  C   C156      1.0  0.21525  0.08954  0.32170  1.0000
  C   C157      1.0  0.32170  0.03475  0.16046  1.0000
  C   C158      1.0  0.42830  0.71525  0.16046  1.0000
  C   C159      1.0  0.42830  0.03475  0.58954  1.0000
  C   C160      1.0  0.32170  0.71525  0.58954  1.0000
  C   C161      1.0  0.66046  0.82170  0.03475  1.0000
  C   C162      1.0  0.66046  0.92830  0.71525  1.0000
  C   C163      1.0  0.08954  0.92830  0.03475  1.0000
  C   C164      1.0  0.08954  0.82170  0.71525  1.0000
  C   C165      1.0  0.53475  0.16046  0.82170  1.0000
  C   C166      1.0  0.21525  0.16046  0.92830  1.0000
  C   C167      1.0  0.53475  0.58954  0.92830  1.0000
  C   C168      1.0  0.21525  0.58954  0.82170  1.0000
  C   C169      1.0  0.82170  0.53475  0.16046  1.0000
  C   C170      1.0  0.92830  0.21525  0.16046  1.0000
  C   C171      1.0  0.92830  0.53475  0.58954  1.0000
  C   C172      1.0  0.82170  0.21525  0.58954  1.0000
  C   C173      1.0  0.16046  0.32170  0.03475  1.0000
  C   C174      1.0  0.16046  0.42830  0.71525  1.0000
  C   C175      1.0  0.58954  0.42830  0.03475  1.0000
  C   C176      1.0  0.58954  0.32170  0.71525  1.0000
  C   C177      1.0  0.03475  0.66046  0.82170  1.0000
  C   C178      1.0  0.71525  0.66046  0.92830  1.0000
  C   C179      1.0  0.03475  0.08954  0.92830  1.0000
  C   C180      1.0  0.71525  0.08954  0.82170  1.0000
  C   C181      1.0  0.82170  0.03475  0.66046  1.0000
  C   C182      1.0  0.92830  0.71525  0.66046  1.0000
  C   C183      1.0  0.92830  0.03475  0.08954  1.0000
  C   C184      1.0  0.82170  0.71525  0.08954  1.0000
  C   C185      1.0  0.16046  0.82170  0.53475  1.0000
  C   C186      1.0  0.16046  0.92830  0.21525  1.0000
  C   C187      1.0  0.58954  0.92830  0.53475  1.0000
  C   C188      1.0  0.58954  0.82170  0.21525  1.0000
  C   C189      1.0  0.03475  0.16046  0.32170  1.0000
  C   C190      1.0  0.71525  0.16046  0.42830  1.0000
  C   C191      1.0  0.03475  0.58954  0.42830  1.0000
  C   C192      1.0  0.71525  0.58954  0.32170  1.0000
  C   C193      1.0  0.68987  0.45407  0.31771  1.0000
  C   C194      1.0  0.56013  0.79593  0.31771  1.0000
  C   C195      1.0  0.56013  0.45407  0.93229  1.0000
  C   C196      1.0  0.68987  0.79593  0.93229  1.0000
  C   C197      1.0  0.31771  0.68987  0.45407  1.0000
  C   C198      1.0  0.31771  0.56013  0.79593  1.0000
  C   C199      1.0  0.93229  0.56013  0.45407  1.0000
  C   C200      1.0  0.93229  0.68987  0.79593  1.0000
  C   C201      1.0  0.45407  0.31771  0.68987  1.0000
  C   C202      1.0  0.79593  0.31771  0.56013  1.0000
  C   C203      1.0  0.45407  0.93229  0.56013  1.0000
  C   C204      1.0  0.79593  0.93229  0.68987  1.0000
  C   C205      1.0  0.68987  0.95407  0.81771  1.0000
  C   C206      1.0  0.56013  0.29593  0.81771  1.0000
  C   C207      1.0  0.56013  0.95407  0.43229  1.0000
  C   C208      1.0  0.68987  0.29593  0.43229  1.0000
  C   C209      1.0  0.31771  0.18987  0.95407  1.0000
  C   C210      1.0  0.31771  0.06013  0.29593  1.0000
  C   C211      1.0  0.93229  0.06013  0.95407  1.0000
  C   C212      1.0  0.93229  0.18987  0.29593  1.0000
  C   C213      1.0  0.45407  0.81771  0.18987  1.0000
  C   C214      1.0  0.79593  0.81771  0.06013  1.0000
  C   C215      1.0  0.45407  0.43229  0.06013  1.0000
  C   C216      1.0  0.79593  0.43229  0.18987  1.0000
  C   C217      1.0  0.18987  0.45407  0.81771  1.0000
  C   C218      1.0  0.06013  0.79593  0.81771  1.0000
  C   C219      1.0  0.06013  0.45407  0.43229  1.0000
  C   C220      1.0  0.18987  0.79593  0.43229  1.0000
  C   C221      1.0  0.81771  0.68987  0.95407  1.0000
  C   C222      1.0  0.81771  0.56013  0.29593  1.0000
  C   C223      1.0  0.43229  0.56013  0.95407  1.0000
  C   C224      1.0  0.43229  0.68987  0.29593  1.0000
  C   C225      1.0  0.95407  0.31771  0.18987  1.0000
  C   C226      1.0  0.29593  0.31771  0.06013  1.0000
  C   C227      1.0  0.95407  0.93229  0.06013  1.0000
  C   C228      1.0  0.29593  0.93229  0.18987  1.0000
  C   C229      1.0  0.18987  0.95407  0.31771  1.0000
  C   C230      1.0  0.06013  0.29593  0.31771  1.0000
  C   C231      1.0  0.06013  0.95407  0.93229  1.0000
  C   C232      1.0  0.18987  0.29593  0.93229  1.0000
  C   C233      1.0  0.81771  0.18987  0.45407  1.0000
  C   C234      1.0  0.81771  0.06013  0.79593  1.0000
  C   C235      1.0  0.43229  0.06013  0.45407  1.0000
  C   C236      1.0  0.43229  0.18987  0.79593  1.0000
  C   C237      1.0  0.95407  0.81771  0.68987  1.0000
  C   C238      1.0  0.29593  0.81771  0.56013  1.0000
  C   C239      1.0  0.95407  0.43229  0.56013  1.0000
  C   C240      1.0  0.29593  0.43229  0.68987  1.0000
  C   C241      1.0  0.31013  0.54593  0.68229  1.0000
  C   C242      1.0  0.43987  0.20407  0.68229  1.0000
  C   C243      1.0  0.43987  0.54593  0.06771  1.0000
  C   C244      1.0  0.31013  0.20407  0.06771  1.0000
  C   C245      1.0  0.68229  0.31013  0.54593  1.0000
  C   C246      1.0  0.68229  0.43987  0.20407  1.0000
  C   C247      1.0  0.06771  0.43987  0.54593  1.0000
  C   C248      1.0  0.06771  0.31013  0.20407  1.0000
  C   C249      1.0  0.54593  0.68229  0.31013  1.0000
  C   C250      1.0  0.20407  0.68229  0.43987  1.0000
  C   C251      1.0  0.54593  0.06771  0.43987  1.0000
  C   C252      1.0  0.20407  0.06771  0.31013  1.0000
  C   C253      1.0  0.31013  0.04593  0.18229  1.0000
  C   C254      1.0  0.43987  0.70407  0.18229  1.0000
  C   C255      1.0  0.43987  0.04593  0.56771  1.0000
  C   C256      1.0  0.31013  0.70407  0.56771  1.0000
  C   C257      1.0  0.68229  0.81013  0.04593  1.0000
  C   C258      1.0  0.68229  0.93987  0.70407  1.0000
  C   C259      1.0  0.06771  0.93987  0.04593  1.0000
  C   C260      1.0  0.06771  0.81013  0.70407  1.0000
  C   C261      1.0  0.54593  0.18229  0.81013  1.0000
  C   C262      1.0  0.20407  0.18229  0.93987  1.0000
  C   C263      1.0  0.54593  0.56771  0.93987  1.0000
  C   C264      1.0  0.20407  0.56771  0.81013  1.0000
  C   C265      1.0  0.81013  0.54593  0.18229  1.0000
  C   C266      1.0  0.93987  0.20407  0.18229  1.0000
  C   C267      1.0  0.93987  0.54593  0.56771  1.0000
  C   C268      1.0  0.81013  0.20407  0.56771  1.0000
  C   C269      1.0  0.18229  0.31013  0.04593  1.0000
  C   C270      1.0  0.18229  0.43987  0.70407  1.0000
  C   C271      1.0  0.56771  0.43987  0.04593  1.0000
  C   C272      1.0  0.56771  0.31013  0.70407  1.0000
  C   C273      1.0  0.04593  0.68229  0.81013  1.0000
  C   C274      1.0  0.70407  0.68229  0.93987  1.0000
  C   C275      1.0  0.04593  0.06771  0.93987  1.0000
  C   C276      1.0  0.70407  0.06771  0.81013  1.0000
  C   C277      1.0  0.81013  0.04593  0.68229  1.0000
  C   C278      1.0  0.93987  0.70407  0.68229  1.0000
  C   C279      1.0  0.93987  0.04593  0.06771  1.0000
  C   C280      1.0  0.81013  0.70407  0.06771  1.0000
  C   C281      1.0  0.18229  0.81013  0.54593  1.0000
  C   C282      1.0  0.18229  0.93987  0.20407  1.0000
  C   C283      1.0  0.56771  0.93987  0.54593  1.0000
  C   C284      1.0  0.56771  0.81013  0.20407  1.0000
  C   C285      1.0  0.04593  0.18229  0.31013  1.0000
  C   C286      1.0  0.70407  0.18229  0.43987  1.0000
  C   C287      1.0  0.04593  0.56771  0.43987  1.0000
  C   C288      1.0  0.70407  0.56771  0.31013  1.0000
  H   H1        1.0  0.68248  0.43910  0.30983  1.0000
  H   H2        1.0  0.56752  0.81090  0.30983  1.0000
  H   H3        1.0  0.56752  0.43910  0.94017  1.0000
  H   H4        1.0  0.68248  0.81090  0.94017  1.0000
  H   H5        1.0  0.30983  0.68248  0.43910  1.0000
  H   H6        1.0  0.30983  0.56752  0.81090  1.0000
  H   H7        1.0  0.94017  0.56752  0.43910  1.0000
  H   H8        1.0  0.94017  0.68248  0.81090  1.0000
  H   H9        1.0  0.43910  0.30983  0.68248  1.0000
  H   H10       1.0  0.81090  0.30983  0.56752  1.0000
  H   H11       1.0  0.43910  0.94017  0.56752  1.0000
  H   H12       1.0  0.81090  0.94017  0.68248  1.0000
  H   H13       1.0  0.68248  0.93910  0.80983  1.0000
  H   H14       1.0  0.56752  0.31090  0.80983  1.0000
  H   H15       1.0  0.56752  0.93910  0.44017  1.0000
  H   H16       1.0  0.68248  0.31090  0.44017  1.0000
  H   H17       1.0  0.30983  0.18248  0.93910  1.0000
  H   H18       1.0  0.30983  0.06752  0.31090  1.0000
  H   H19       1.0  0.94017  0.06752  0.93910  1.0000
  H   H20       1.0  0.94017  0.18248  0.31090  1.0000
  H   H21       1.0  0.43910  0.80983  0.18248  1.0000
  H   H22       1.0  0.81090  0.80983  0.06752  1.0000
  H   H23       1.0  0.43910  0.44017  0.06752  1.0000
  H   H24       1.0  0.81090  0.44017  0.18248  1.0000
  H   H25       1.0  0.18248  0.43910  0.80983  1.0000
  H   H26       1.0  0.06752  0.81090  0.80983  1.0000
  H   H27       1.0  0.06752  0.43910  0.44017  1.0000
  H   H28       1.0  0.18248  0.81090  0.44017  1.0000
  H   H29       1.0  0.80983  0.68248  0.93910  1.0000
  H   H30       1.0  0.80983  0.56752  0.31090  1.0000
  H   H31       1.0  0.44017  0.56752  0.93910  1.0000
  H   H32       1.0  0.44017  0.68248  0.31090  1.0000
  H   H33       1.0  0.93910  0.30983  0.18248  1.0000
  H   H34       1.0  0.31090  0.30983  0.06752  1.0000
  H   H35       1.0  0.93910  0.94017  0.06752  1.0000
  H   H36       1.0  0.31090  0.94017  0.18248  1.0000
  H   H37       1.0  0.18248  0.93910  0.30983  1.0000
  H   H38       1.0  0.06752  0.31090  0.30983  1.0000
  H   H39       1.0  0.06752  0.93910  0.94017  1.0000
  H   H40       1.0  0.18248  0.31090  0.94017  1.0000
  H   H41       1.0  0.80983  0.18248  0.43910  1.0000
  H   H42       1.0  0.80983  0.06752  0.81090  1.0000
  H   H43       1.0  0.44017  0.06752  0.43910  1.0000
  H   H44       1.0  0.44017  0.18248  0.81090  1.0000
  H   H45       1.0  0.93910  0.80983  0.68248  1.0000
  H   H46       1.0  0.31090  0.80983  0.56752  1.0000
  H   H47       1.0  0.93910  0.44017  0.56752  1.0000
  H   H48       1.0  0.31090  0.44017  0.68248  1.0000
  H   H49       1.0  0.31752  0.56090  0.69017  1.0000
  H   H50       1.0  0.43248  0.18910  0.69017  1.0000
  H   H51       1.0  0.43248  0.56090  0.05983  1.0000
  H   H52       1.0  0.31752  0.18910  0.05983  1.0000
  H   H53       1.0  0.69017  0.31752  0.56090  1.0000
  H   H54       1.0  0.69017  0.43248  0.18910  1.0000
  H   H55       1.0  0.05983  0.43248  0.56090  1.0000
  H   H56       1.0  0.05983  0.31752  0.18910  1.0000
  H   H57       1.0  0.56090  0.69017  0.31752  1.0000
  H   H58       1.0  0.18910  0.69017  0.43248  1.0000
  H   H59       1.0  0.56090  0.05983  0.43248  1.0000
  H   H60       1.0  0.18910  0.05983  0.31752  1.0000
  H   H61       1.0  0.31752  0.06090  0.19017  1.0000
  H   H62       1.0  0.43248  0.68910  0.19017  1.0000
  H   H63       1.0  0.43248  0.06090  0.55983  1.0000
  H   H64       1.0  0.31752  0.68910  0.55983  1.0000
  H   H65       1.0  0.69017  0.81752  0.06090  1.0000
  H   H66       1.0  0.69017  0.93248  0.68910  1.0000
  H   H67       1.0  0.05983  0.93248  0.06090  1.0000
  H   H68       1.0  0.05983  0.81752  0.68910  1.0000
  H   H69       1.0  0.56090  0.19017  0.81752  1.0000
  H   H70       1.0  0.18910  0.19017  0.93248  1.0000
  H   H71       1.0  0.56090  0.55983  0.93248  1.0000
  H   H72       1.0  0.18910  0.55983  0.81752  1.0000
  H   H73       1.0  0.81752  0.56090  0.19017  1.0000
  H   H74       1.0  0.93248  0.18910  0.19017  1.0000
  H   H75       1.0  0.93248  0.56090  0.55983  1.0000
  H   H76       1.0  0.81752  0.18910  0.55983  1.0000
  H   H77       1.0  0.19017  0.31752  0.06090  1.0000
  H   H78       1.0  0.19017  0.43248  0.68910  1.0000
  H   H79       1.0  0.55983  0.43248  0.06090  1.0000
  H   H80       1.0  0.55983  0.31752  0.68910  1.0000
  H   H81       1.0  0.06090  0.69017  0.81752  1.0000
  H   H82       1.0  0.68910  0.69017  0.93248  1.0000
  H   H83       1.0  0.06090  0.05983  0.93248  1.0000
  H   H84       1.0  0.68910  0.05983  0.81752  1.0000
  H   H85       1.0  0.81752  0.06090  0.69017  1.0000
  H   H86       1.0  0.93248  0.68910  0.69017  1.0000
  H   H87       1.0  0.93248  0.06090  0.05983  1.0000
  H   H88       1.0  0.81752  0.68910  0.05983  1.0000
  H   H89       1.0  0.19017  0.81752  0.56090  1.0000
  H   H90       1.0  0.19017  0.93248  0.18910  1.0000
  H   H91       1.0  0.55983  0.93248  0.56090  1.0000
  H   H92       1.0  0.55983  0.81752  0.18910  1.0000
  H   H93       1.0  0.06090  0.19017  0.31752  1.0000
  H   H94       1.0  0.68910  0.19017  0.43248  1.0000
  H   H95       1.0  0.06090  0.55983  0.43248  1.0000
  H   H96       1.0  0.68910  0.55983  0.31752  1.0000
  C   C289      1.0  0.60366  0.40444  0.39423  1.0000
  C   C290      1.0  0.64634  0.84556  0.39423  1.0000
  C   C291      1.0  0.64634  0.40444  0.85577  1.0000
  C   C292      1.0  0.60366  0.84556  0.85577  1.0000
  C   C293      1.0  0.39423  0.60366  0.40444  1.0000
  C   C294      1.0  0.39423  0.64634  0.84556  1.0000
  C   C295      1.0  0.85577  0.64634  0.40444  1.0000
  C   C296      1.0  0.85577  0.60366  0.84556  1.0000
  C   C297      1.0  0.40444  0.39423  0.60366  1.0000
  C   C298      1.0  0.84556  0.39423  0.64634  1.0000
  C   C299      1.0  0.40444  0.85577  0.64634  1.0000
  C   C300      1.0  0.84556  0.85577  0.60366  1.0000
  C   C301      1.0  0.60366  0.90444  0.89423  1.0000
  C   C302      1.0  0.64634  0.34556  0.89423  1.0000
  C   C303      1.0  0.64634  0.90444  0.35577  1.0000
  C   C304      1.0  0.60366  0.34556  0.35577  1.0000
  C   C305      1.0  0.39423  0.10366  0.90444  1.0000
  C   C306      1.0  0.39423  0.14634  0.34556  1.0000
  C   C307      1.0  0.85577  0.14634  0.90444  1.0000
  C   C308      1.0  0.85577  0.10366  0.34556  1.0000
  C   C309      1.0  0.40444  0.89423  0.10366  1.0000
  C   C310      1.0  0.84556  0.89423  0.14634  1.0000
  C   C311      1.0  0.40444  0.35577  0.14634  1.0000
  C   C312      1.0  0.84556  0.35577  0.10366  1.0000
  C   C313      1.0  0.10366  0.40444  0.89423  1.0000
  C   C314      1.0  0.14634  0.84556  0.89423  1.0000
  C   C315      1.0  0.14634  0.40444  0.35577  1.0000
  C   C316      1.0  0.10366  0.84556  0.35577  1.0000
  C   C317      1.0  0.89423  0.60366  0.90444  1.0000
  C   C318      1.0  0.89423  0.64634  0.34556  1.0000
  C   C319      1.0  0.35577  0.64634  0.90444  1.0000
  C   C320      1.0  0.35577  0.60366  0.34556  1.0000
  C   C321      1.0  0.90444  0.39423  0.10366  1.0000
  C   C322      1.0  0.34556  0.39423  0.14634  1.0000
  C   C323      1.0  0.90444  0.85577  0.14634  1.0000
  C   C324      1.0  0.34556  0.85577  0.10366  1.0000
  C   C325      1.0  0.10366  0.90444  0.39423  1.0000
  C   C326      1.0  0.14634  0.34556  0.39423  1.0000
  C   C327      1.0  0.14634  0.90444  0.85577  1.0000
  C   C328      1.0  0.10366  0.34556  0.85577  1.0000
  C   C329      1.0  0.89423  0.10366  0.40444  1.0000
  C   C330      1.0  0.89423  0.14634  0.84556  1.0000
  C   C331      1.0  0.35577  0.14634  0.40444  1.0000
  C   C332      1.0  0.35577  0.10366  0.84556  1.0000
  C   C333      1.0  0.90444  0.89423  0.60366  1.0000
  C   C334      1.0  0.34556  0.89423  0.64634  1.0000
  C   C335      1.0  0.90444  0.35577  0.64634  1.0000
  C   C336      1.0  0.34556  0.35577  0.60366  1.0000
  C   C337      1.0  0.39634  0.59556  0.60577  1.0000
  C   C338      1.0  0.35366  0.15444  0.60577  1.0000
  C   C339      1.0  0.35366  0.59556  0.14423  1.0000
  C   C340      1.0  0.39634  0.15444  0.14423  1.0000
  C   C341      1.0  0.60577  0.39634  0.59556  1.0000
  C   C342      1.0  0.60577  0.35366  0.15444  1.0000
  C   C343      1.0  0.14423  0.35366  0.59556  1.0000
  C   C344      1.0  0.14423  0.39634  0.15444  1.0000
  C   C345      1.0  0.59556  0.60577  0.39634  1.0000
  C   C346      1.0  0.15444  0.60577  0.35366  1.0000
  C   C347      1.0  0.59556  0.14423  0.35366  1.0000
  C   C348      1.0  0.15444  0.14423  0.39634  1.0000
  C   C349      1.0  0.39634  0.09556  0.10577  1.0000
  C   C350      1.0  0.35366  0.65444  0.10577  1.0000
  C   C351      1.0  0.35366  0.09556  0.64423  1.0000
  C   C352      1.0  0.39634  0.65444  0.64423  1.0000
  C   C353      1.0  0.60577  0.89634  0.09556  1.0000
  C   C354      1.0  0.60577  0.85366  0.65444  1.0000
  C   C355      1.0  0.14423  0.85366  0.09556  1.0000
  C   C356      1.0  0.14423  0.89634  0.65444  1.0000
  C   C357      1.0  0.59556  0.10577  0.89634  1.0000
  C   C358      1.0  0.15444  0.10577  0.85366  1.0000
  C   C359      1.0  0.59556  0.64423  0.85366  1.0000
  C   C360      1.0  0.15444  0.64423  0.89634  1.0000
  C   C361      1.0  0.89634  0.59556  0.10577  1.0000
  C   C362      1.0  0.85366  0.15444  0.10577  1.0000
  C   C363      1.0  0.85366  0.59556  0.64423  1.0000
  C   C364      1.0  0.89634  0.15444  0.64423  1.0000
  C   C365      1.0  0.10577  0.39634  0.09556  1.0000
  C   C366      1.0  0.10577  0.35366  0.65444  1.0000
  C   C367      1.0  0.64423  0.35366  0.09556  1.0000
  C   C368      1.0  0.64423  0.39634  0.65444  1.0000
  C   C369      1.0  0.09556  0.60577  0.89634  1.0000
  C   C370      1.0  0.65444  0.60577  0.85366  1.0000
  C   C371      1.0  0.09556  0.14423  0.85366  1.0000
  C   C372      1.0  0.65444  0.14423  0.89634  1.0000
  C   C373      1.0  0.89634  0.09556  0.60577  1.0000
  C   C374      1.0  0.85366  0.65444  0.60577  1.0000
  C   C375      1.0  0.85366  0.09556  0.14423  1.0000
  C   C376      1.0  0.89634  0.65444  0.14423  1.0000
  C   C377      1.0  0.10577  0.89634  0.59556  1.0000
  C   C378      1.0  0.10577  0.85366  0.15444  1.0000
  C   C379      1.0  0.64423  0.85366  0.59556  1.0000
  C   C380      1.0  0.64423  0.89634  0.15444  1.0000
  C   C381      1.0  0.09556  0.10577  0.39634  1.0000
  C   C382      1.0  0.65444  0.10577  0.35366  1.0000
  C   C383      1.0  0.09556  0.64423  0.35366  1.0000
  C   C384      1.0  0.65444  0.64423  0.39634  1.0000
  C   C385      1.0  0.63770  0.43589  0.34552  1.0000
  C   C386      1.0  0.61230  0.81411  0.34552  1.0000
  C   C387      1.0  0.61230  0.43589  0.90448  1.0000
  C   C388      1.0  0.63770  0.81411  0.90448  1.0000
  C   C389      1.0  0.34552  0.63770  0.43589  1.0000
  C   C390      1.0  0.34552  0.61230  0.81411  1.0000
  C   C391      1.0  0.90448  0.61230  0.43589  1.0000
  C   C392      1.0  0.90448  0.63770  0.81411  1.0000
  C   C393      1.0  0.43589  0.34552  0.63770  1.0000
  C   C394      1.0  0.81411  0.34552  0.61230  1.0000
  C   C395      1.0  0.43589  0.90448  0.61230  1.0000
  C   C396      1.0  0.81411  0.90448  0.63770  1.0000
  C   C397      1.0  0.63770  0.93589  0.84552  1.0000
  C   C398      1.0  0.61230  0.31411  0.84552  1.0000
  C   C399      1.0  0.61230  0.93589  0.40448  1.0000
  C   C400      1.0  0.63770  0.31411  0.40448  1.0000
  C   C401      1.0  0.34552  0.13770  0.93589  1.0000
  C   C402      1.0  0.34552  0.11230  0.31411  1.0000
  C   C403      1.0  0.90448  0.11230  0.93589  1.0000
  C   C404      1.0  0.90448  0.13770  0.31411  1.0000
  C   C405      1.0  0.43589  0.84552  0.13770  1.0000
  C   C406      1.0  0.81411  0.84552  0.11230  1.0000
  C   C407      1.0  0.43589  0.40448  0.11230  1.0000
  C   C408      1.0  0.81411  0.40448  0.13770  1.0000
  C   C409      1.0  0.13770  0.43589  0.84552  1.0000
  C   C410      1.0  0.11230  0.81411  0.84552  1.0000
  C   C411      1.0  0.11230  0.43589  0.40448  1.0000
  C   C412      1.0  0.13770  0.81411  0.40448  1.0000
  C   C413      1.0  0.84552  0.63770  0.93589  1.0000
  C   C414      1.0  0.84552  0.61230  0.31411  1.0000
  C   C415      1.0  0.40448  0.61230  0.93589  1.0000
  C   C416      1.0  0.40448  0.63770  0.31411  1.0000
  C   C417      1.0  0.93589  0.34552  0.13770  1.0000
  C   C418      1.0  0.31411  0.34552  0.11230  1.0000
  C   C419      1.0  0.93589  0.90448  0.11230  1.0000
  C   C420      1.0  0.31411  0.90448  0.13770  1.0000
  C   C421      1.0  0.13770  0.93589  0.34552  1.0000
  C   C422      1.0  0.11230  0.31411  0.34552  1.0000
  C   C423      1.0  0.11230  0.93589  0.90448  1.0000
  C   C424      1.0  0.13770  0.31411  0.90448  1.0000
  C   C425      1.0  0.84552  0.13770  0.43589  1.0000
  C   C426      1.0  0.84552  0.11230  0.81411  1.0000
  C   C427      1.0  0.40448  0.11230  0.43589  1.0000
  C   C428      1.0  0.40448  0.13770  0.81411  1.0000
  C   C429      1.0  0.93589  0.84552  0.63770  1.0000
  C   C430      1.0  0.31411  0.84552  0.61230  1.0000
  C   C431      1.0  0.93589  0.40448  0.61230  1.0000
  C   C432      1.0  0.31411  0.40448  0.63770  1.0000
  C   C433      1.0  0.36230  0.56411  0.65448  1.0000
  C   C434      1.0  0.38770  0.18589  0.65448  1.0000
  C   C435      1.0  0.38770  0.56411  0.09552  1.0000
  C   C436      1.0  0.36230  0.18589  0.09552  1.0000
  C   C437      1.0  0.65448  0.36230  0.56411  1.0000
  C   C438      1.0  0.65448  0.38770  0.18589  1.0000
  C   C439      1.0  0.09552  0.38770  0.56411  1.0000
  C   C440      1.0  0.09552  0.36230  0.18589  1.0000
  C   C441      1.0  0.56411  0.65448  0.36230  1.0000
  C   C442      1.0  0.18589  0.65448  0.38770  1.0000
  C   C443      1.0  0.56411  0.09552  0.38770  1.0000
  C   C444      1.0  0.18589  0.09552  0.36230  1.0000
  C   C445      1.0  0.36230  0.06411  0.15448  1.0000
  C   C446      1.0  0.38770  0.68589  0.15448  1.0000
  C   C447      1.0  0.38770  0.06411  0.59552  1.0000
  C   C448      1.0  0.36230  0.68589  0.59552  1.0000
  C   C449      1.0  0.65448  0.86230  0.06411  1.0000
  C   C450      1.0  0.65448  0.88770  0.68589  1.0000
  C   C451      1.0  0.09552  0.88770  0.06411  1.0000
  C   C452      1.0  0.09552  0.86230  0.68589  1.0000
  C   C453      1.0  0.56411  0.15448  0.86230  1.0000
  C   C454      1.0  0.18589  0.15448  0.88770  1.0000
  C   C455      1.0  0.56411  0.59552  0.88770  1.0000
  C   C456      1.0  0.18589  0.59552  0.86230  1.0000
  C   C457      1.0  0.86230  0.56411  0.15448  1.0000
  C   C458      1.0  0.88770  0.18589  0.15448  1.0000
  C   C459      1.0  0.88770  0.56411  0.59552  1.0000
  C   C460      1.0  0.86230  0.18589  0.59552  1.0000
  C   C461      1.0  0.15448  0.36230  0.06411  1.0000
  C   C462      1.0  0.15448  0.38770  0.68589  1.0000
  C   C463      1.0  0.59552  0.38770  0.06411  1.0000
  C   C464      1.0  0.59552  0.36230  0.68589  1.0000
  C   C465      1.0  0.06411  0.65448  0.86230  1.0000
  C   C466      1.0  0.68589  0.65448  0.88770  1.0000
  C   C467      1.0  0.06411  0.09552  0.88770  1.0000
  C   C468      1.0  0.68589  0.09552  0.86230  1.0000
  C   C469      1.0  0.86230  0.06411  0.65448  1.0000
  C   C470      1.0  0.88770  0.68589  0.65448  1.0000
  C   C471      1.0  0.88770  0.06411  0.09552  1.0000
  C   C472      1.0  0.86230  0.68589  0.09552  1.0000
  C   C473      1.0  0.15448  0.86230  0.56411  1.0000
  C   C474      1.0  0.15448  0.88770  0.18589  1.0000
  C   C475      1.0  0.59552  0.88770  0.56411  1.0000
  C   C476      1.0  0.59552  0.86230  0.18589  1.0000
  C   C477      1.0  0.06411  0.15448  0.36230  1.0000
  C   C478      1.0  0.68589  0.15448  0.38770  1.0000
  C   C479      1.0  0.06411  0.59552  0.38770  1.0000
  C   C480      1.0  0.68589  0.59552  0.36230  1.0000
  H   H97       1.0  0.63905  0.42335  0.33203  1.0000
  H   H98       1.0  0.61095  0.82665  0.33203  1.0000
  H   H99       1.0  0.61095  0.42335  0.91797  1.0000
  H   H100      1.0  0.63905  0.82665  0.91797  1.0000
  H   H101      1.0  0.33203  0.63905  0.42335  1.0000
  H   H102      1.0  0.33203  0.61095  0.82665  1.0000
  H   H103      1.0  0.91797  0.61095  0.42335  1.0000
  H   H104      1.0  0.91797  0.63905  0.82665  1.0000
  H   H105      1.0  0.42335  0.33203  0.63905  1.0000
  H   H106      1.0  0.82665  0.33203  0.61095  1.0000
  H   H107      1.0  0.42335  0.91797  0.61095  1.0000
  H   H108      1.0  0.82665  0.91797  0.63905  1.0000
  H   H109      1.0  0.63905  0.92335  0.83203  1.0000
  H   H110      1.0  0.61095  0.32665  0.83203  1.0000
  H   H111      1.0  0.61095  0.92335  0.41797  1.0000
  H   H112      1.0  0.63905  0.32665  0.41797  1.0000
  H   H113      1.0  0.33203  0.13905  0.92335  1.0000
  H   H114      1.0  0.33203  0.11095  0.32665  1.0000
  H   H115      1.0  0.91797  0.11095  0.92335  1.0000
  H   H116      1.0  0.91797  0.13905  0.32665  1.0000
  H   H117      1.0  0.42335  0.83203  0.13905  1.0000
  H   H118      1.0  0.82665  0.83203  0.11095  1.0000
  H   H119      1.0  0.42335  0.41797  0.11095  1.0000
  H   H120      1.0  0.82665  0.41797  0.13905  1.0000
  H   H121      1.0  0.13905  0.42335  0.83203  1.0000
  H   H122      1.0  0.11095  0.82665  0.83203  1.0000
  H   H123      1.0  0.11095  0.42335  0.41797  1.0000
  H   H124      1.0  0.13905  0.82665  0.41797  1.0000
  H   H125      1.0  0.83203  0.63905  0.92335  1.0000
  H   H126      1.0  0.83203  0.61095  0.32665  1.0000
  H   H127      1.0  0.41797  0.61095  0.92335  1.0000
  H   H128      1.0  0.41797  0.63905  0.32665  1.0000
  H   H129      1.0  0.92335  0.33203  0.13905  1.0000
  H   H130      1.0  0.32665  0.33203  0.11095  1.0000
  H   H131      1.0  0.92335  0.91797  0.11095  1.0000
  H   H132      1.0  0.32665  0.91797  0.13905  1.0000
  H   H133      1.0  0.13905  0.92335  0.33203  1.0000
  H   H134      1.0  0.11095  0.32665  0.33203  1.0000
  H   H135      1.0  0.11095  0.92335  0.91797  1.0000
  H   H136      1.0  0.13905  0.32665  0.91797  1.0000
  H   H137      1.0  0.83203  0.13905  0.42335  1.0000
  H   H138      1.0  0.83203  0.11095  0.82665  1.0000
  H   H139      1.0  0.41797  0.11095  0.42335  1.0000
  H   H140      1.0  0.41797  0.13905  0.82665  1.0000
  H   H141      1.0  0.92335  0.83203  0.63905  1.0000
  H   H142      1.0  0.32665  0.83203  0.61095  1.0000
  H   H143      1.0  0.92335  0.41797  0.61095  1.0000
  H   H144      1.0  0.32665  0.41797  0.63905  1.0000
  H   H145      1.0  0.36095  0.57665  0.66797  1.0000
  H   H146      1.0  0.38905  0.17335  0.66797  1.0000
  H   H147      1.0  0.38905  0.57665  0.08203  1.0000
  H   H148      1.0  0.36095  0.17335  0.08203  1.0000
  H   H149      1.0  0.66797  0.36095  0.57665  1.0000
  H   H150      1.0  0.66797  0.38905  0.17335  1.0000
  H   H151      1.0  0.08203  0.38905  0.57665  1.0000
  H   H152      1.0  0.08203  0.36095  0.17335  1.0000
  H   H153      1.0  0.57665  0.66797  0.36095  1.0000
  H   H154      1.0  0.17335  0.66797  0.38905  1.0000
  H   H155      1.0  0.57665  0.08203  0.38905  1.0000
  H   H156      1.0  0.17335  0.08203  0.36095  1.0000
  H   H157      1.0  0.36095  0.07665  0.16797  1.0000
  H   H158      1.0  0.38905  0.67335  0.16797  1.0000
  H   H159      1.0  0.38905  0.07665  0.58203  1.0000
  H   H160      1.0  0.36095  0.67335  0.58203  1.0000
  H   H161      1.0  0.66797  0.86095  0.07665  1.0000
  H   H162      1.0  0.66797  0.88905  0.67335  1.0000
  H   H163      1.0  0.08203  0.88905  0.07665  1.0000
  H   H164      1.0  0.08203  0.86095  0.67335  1.0000
  H   H165      1.0  0.57665  0.16797  0.86095  1.0000
  H   H166      1.0  0.17335  0.16797  0.88905  1.0000
  H   H167      1.0  0.57665  0.58203  0.88905  1.0000
  H   H168      1.0  0.17335  0.58203  0.86095  1.0000
  H   H169      1.0  0.86095  0.57665  0.16797  1.0000
  H   H170      1.0  0.88905  0.17335  0.16797  1.0000
  H   H171      1.0  0.88905  0.57665  0.58203  1.0000
  H   H172      1.0  0.86095  0.17335  0.58203  1.0000
  H   H173      1.0  0.16797  0.36095  0.07665  1.0000
  H   H174      1.0  0.16797  0.38905  0.67335  1.0000
  H   H175      1.0  0.58203  0.38905  0.07665  1.0000
  H   H176      1.0  0.58203  0.36095  0.67335  1.0000
  H   H177      1.0  0.07665  0.66797  0.86095  1.0000
  H   H178      1.0  0.67335  0.66797  0.88905  1.0000
  H   H179      1.0  0.07665  0.08203  0.88905  1.0000
  H   H180      1.0  0.67335  0.08203  0.86095  1.0000
  H   H181      1.0  0.86095  0.07665  0.66797  1.0000
  H   H182      1.0  0.88905  0.67335  0.66797  1.0000
  H   H183      1.0  0.88905  0.07665  0.08203  1.0000
  H   H184      1.0  0.86095  0.67335  0.08203  1.0000
  H   H185      1.0  0.16797  0.86095  0.57665  1.0000
  H   H186      1.0  0.16797  0.88905  0.17335  1.0000
  H   H187      1.0  0.58203  0.88905  0.57665  1.0000
  H   H188      1.0  0.58203  0.86095  0.17335  1.0000
  H   H189      1.0  0.07665  0.16797  0.36095  1.0000
  H   H190      1.0  0.67335  0.16797  0.38905  1.0000
  H   H191      1.0  0.07665  0.58203  0.38905  1.0000
  H   H192      1.0  0.67335  0.58203  0.36095  1.0000
  C   C481      1.0  0.71235  0.46514  0.30766  1.0000
  C   C482      1.0  0.53765  0.78486  0.30766  1.0000
  C   C483      1.0  0.53765  0.46514  0.94234  1.0000
  C   C484      1.0  0.71235  0.78486  0.94234  1.0000
  C   C485      1.0  0.30766  0.71235  0.46514  1.0000
  C   C486      1.0  0.30766  0.53765  0.78486  1.0000
  C   C487      1.0  0.94234  0.53765  0.46514  1.0000
  C   C488      1.0  0.94234  0.71235  0.78486  1.0000
  C   C489      1.0  0.46514  0.30766  0.71235  1.0000
  C   C490      1.0  0.78486  0.30766  0.53765  1.0000
  C   C491      1.0  0.46514  0.94234  0.53765  1.0000
  C   C492      1.0  0.78486  0.94234  0.71235  1.0000
  C   C493      1.0  0.71235  0.96514  0.80766  1.0000
  C   C494      1.0  0.53765  0.28486  0.80766  1.0000
  C   C495      1.0  0.53765  0.96514  0.44234  1.0000
  C   C496      1.0  0.71235  0.28486  0.44234  1.0000
  C   C497      1.0  0.30766  0.21235  0.96514  1.0000
  C   C498      1.0  0.30766  0.03765  0.28486  1.0000
  C   C499      1.0  0.94234  0.03765  0.96514  1.0000
  C   C500      1.0  0.94234  0.21235  0.28486  1.0000
  C   C501      1.0  0.46514  0.80766  0.21235  1.0000
  C   C502      1.0  0.78486  0.80766  0.03765  1.0000
  C   C503      1.0  0.46514  0.44234  0.03765  1.0000
  C   C504      1.0  0.78486  0.44234  0.21235  1.0000
  C   C505      1.0  0.21235  0.46514  0.80766  1.0000
  C   C506      1.0  0.03765  0.78486  0.80766  1.0000
  C   C507      1.0  0.03765  0.46514  0.44234  1.0000
  C   C508      1.0  0.21235  0.78486  0.44234  1.0000
  C   C509      1.0  0.80766  0.71235  0.96514  1.0000
  C   C510      1.0  0.80766  0.53765  0.28486  1.0000
  C   C511      1.0  0.44234  0.53765  0.96514  1.0000
  C   C512      1.0  0.44234  0.71235  0.28486  1.0000
  C   C513      1.0  0.96514  0.30766  0.21235  1.0000
  C   C514      1.0  0.28486  0.30766  0.03765  1.0000
  C   C515      1.0  0.96514  0.94234  0.03765  1.0000
  C   C516      1.0  0.28486  0.94234  0.21235  1.0000
  C   C517      1.0  0.21235  0.96514  0.30766  1.0000
  C   C518      1.0  0.03765  0.28486  0.30766  1.0000
  C   C519      1.0  0.03765  0.96514  0.94234  1.0000
  C   C520      1.0  0.21235  0.28486  0.94234  1.0000
  C   C521      1.0  0.80766  0.21235  0.46514  1.0000
  C   C522      1.0  0.80766  0.03765  0.78486  1.0000
  C   C523      1.0  0.44234  0.03765  0.46514  1.0000
  C   C524      1.0  0.44234  0.21235  0.78486  1.0000
  C   C525      1.0  0.96514  0.80766  0.71235  1.0000
  C   C526      1.0  0.28486  0.80766  0.53765  1.0000
  C   C527      1.0  0.96514  0.44234  0.53765  1.0000
  C   C528      1.0  0.28486  0.44234  0.71235  1.0000
  C   C529      1.0  0.28765  0.53486  0.69234  1.0000
  C   C530      1.0  0.46235  0.21514  0.69234  1.0000
  C   C531      1.0  0.46235  0.53486  0.05766  1.0000
  C   C532      1.0  0.28765  0.21514  0.05766  1.0000
  C   C533      1.0  0.69234  0.28765  0.53486  1.0000
  C   C534      1.0  0.69234  0.46235  0.21514  1.0000
  C   C535      1.0  0.05766  0.46235  0.53486  1.0000
  C   C536      1.0  0.05766  0.28765  0.21514  1.0000
  C   C537      1.0  0.53486  0.69234  0.28765  1.0000
  C   C538      1.0  0.21514  0.69234  0.46235  1.0000
  C   C539      1.0  0.53486  0.05766  0.46235  1.0000
  C   C540      1.0  0.21514  0.05766  0.28765  1.0000
  C   C541      1.0  0.28765  0.03486  0.19234  1.0000
  C   C542      1.0  0.46235  0.71514  0.19234  1.0000
  C   C543      1.0  0.46235  0.03486  0.55766  1.0000
  C   C544      1.0  0.28765  0.71514  0.55766  1.0000
  C   C545      1.0  0.69234  0.78765  0.03486  1.0000
  C   C546      1.0  0.69234  0.96235  0.71514  1.0000
  C   C547      1.0  0.05766  0.96235  0.03486  1.0000
  C   C548      1.0  0.05766  0.78765  0.71514  1.0000
  C   C549      1.0  0.53486  0.19234  0.78765  1.0000
  C   C550      1.0  0.21514  0.19234  0.96235  1.0000
  C   C551      1.0  0.53486  0.55766  0.96235  1.0000
  C   C552      1.0  0.21514  0.55766  0.78765  1.0000
  C   C553      1.0  0.78765  0.53486  0.19234  1.0000
  C   C554      1.0  0.96235  0.21514  0.19234  1.0000
  C   C555      1.0  0.96235  0.53486  0.55766  1.0000
  C   C556      1.0  0.78765  0.21514  0.55766  1.0000
  C   C557      1.0  0.19234  0.28765  0.03486  1.0000
  C   C558      1.0  0.19234  0.46235  0.71514  1.0000
  C   C559      1.0  0.55766  0.46235  0.03486  1.0000
  C   C560      1.0  0.55766  0.28765  0.71514  1.0000
  C   C561      1.0  0.03486  0.69234  0.78765  1.0000
  C   C562      1.0  0.71514  0.69234  0.96235  1.0000
  C   C563      1.0  0.03486  0.05766  0.96235  1.0000
  C   C564      1.0  0.71514  0.05766  0.78765  1.0000
  C   C565      1.0  0.78765  0.03486  0.69234  1.0000
  C   C566      1.0  0.96235  0.71514  0.69234  1.0000
  C   C567      1.0  0.96235  0.03486  0.05766  1.0000
  C   C568      1.0  0.78765  0.71514  0.05766  1.0000
  C   C569      1.0  0.19234  0.78765  0.53486  1.0000
  C   C570      1.0  0.19234  0.96235  0.21514  1.0000
  C   C571      1.0  0.55766  0.96235  0.53486  1.0000
  C   C572      1.0  0.55766  0.78765  0.21514  1.0000
  C   C573      1.0  0.03486  0.19234  0.28765  1.0000
  C   C574      1.0  0.71514  0.19234  0.46235  1.0000
  C   C575      1.0  0.03486  0.55766  0.46235  1.0000
  C   C576      1.0  0.71514  0.55766  0.28765  1.0000
  C   C577      1.0  0.73870  0.53779  0.35541  1.0000
  C   C578      1.0  0.51130  0.71221  0.35541  1.0000
  C   C579      1.0  0.51130  0.53779  0.89459  1.0000
  C   C580      1.0  0.73870  0.71221  0.89459  1.0000
  C   C581      1.0  0.35541  0.73870  0.53779  1.0000
  C   C582      1.0  0.35541  0.51130  0.71221  1.0000
  C   C583      1.0  0.89459  0.51130  0.53779  1.0000
  C   C584      1.0  0.89459  0.73870  0.71221  1.0000
  C   C585      1.0  0.53779  0.35541  0.73870  1.0000
  C   C586      1.0  0.71221  0.35541  0.51130  1.0000
  C   C587      1.0  0.53779  0.89459  0.51130  1.0000
  C   C588      1.0  0.71221  0.89459  0.73870  1.0000
  C   C589      1.0  0.73870  0.03779  0.85541  1.0000
  C   C590      1.0  0.51130  0.21221  0.85541  1.0000
  C   C591      1.0  0.51130  0.03779  0.39459  1.0000
  C   C592      1.0  0.73870  0.21221  0.39459  1.0000
  C   C593      1.0  0.35541  0.23870  0.03779  1.0000
  C   C594      1.0  0.35541  0.01130  0.21221  1.0000
  C   C595      1.0  0.89459  0.01130  0.03779  1.0000
  C   C596      1.0  0.89459  0.23870  0.21221  1.0000
  C   C597      1.0  0.53779  0.85541  0.23870  1.0000
  C   C598      1.0  0.71221  0.85541  0.01130  1.0000
  C   C599      1.0  0.53779  0.39459  0.01130  1.0000
  C   C600      1.0  0.71221  0.39459  0.23870  1.0000
  C   C601      1.0  0.23870  0.53779  0.85541  1.0000
  C   C602      1.0  0.01130  0.71221  0.85541  1.0000
  C   C603      1.0  0.01130  0.53779  0.39459  1.0000
  C   C604      1.0  0.23870  0.71221  0.39459  1.0000
  C   C605      1.0  0.85541  0.73870  0.03779  1.0000
  C   C606      1.0  0.85541  0.51130  0.21221  1.0000
  C   C607      1.0  0.39459  0.51130  0.03779  1.0000
  C   C608      1.0  0.39459  0.73870  0.21221  1.0000
  C   C609      1.0  0.03779  0.35541  0.23870  1.0000
  C   C610      1.0  0.21221  0.35541  0.01130  1.0000
  C   C611      1.0  0.03779  0.89459  0.01130  1.0000
  C   C612      1.0  0.21221  0.89459  0.23870  1.0000
  C   C613      1.0  0.23870  0.03779  0.35541  1.0000
  C   C614      1.0  0.01130  0.21221  0.35541  1.0000
  C   C615      1.0  0.01130  0.03779  0.89459  1.0000
  C   C616      1.0  0.23870  0.21221  0.89459  1.0000
  C   C617      1.0  0.85541  0.23870  0.53779  1.0000
  C   C618      1.0  0.85541  0.01130  0.71221  1.0000
  C   C619      1.0  0.39459  0.01130  0.53779  1.0000
  C   C620      1.0  0.39459  0.23870  0.71221  1.0000
  C   C621      1.0  0.03779  0.85541  0.73870  1.0000
  C   C622      1.0  0.21221  0.85541  0.51130  1.0000
  C   C623      1.0  0.03779  0.39459  0.51130  1.0000
  C   C624      1.0  0.21221  0.39459  0.73870  1.0000
  C   C625      1.0  0.26130  0.46221  0.64459  1.0000
  C   C626      1.0  0.48870  0.28779  0.64459  1.0000
  C   C627      1.0  0.48870  0.46221  0.10541  1.0000
  C   C628      1.0  0.26130  0.28779  0.10541  1.0000
  C   C629      1.0  0.64459  0.26130  0.46221  1.0000
  C   C630      1.0  0.64459  0.48870  0.28779  1.0000
  C   C631      1.0  0.10541  0.48870  0.46221  1.0000
  C   C632      1.0  0.10541  0.26130  0.28779  1.0000
  C   C633      1.0  0.46221  0.64459  0.26130  1.0000
  C   C634      1.0  0.28779  0.64459  0.48870  1.0000
  C   C635      1.0  0.46221  0.10541  0.48870  1.0000
  C   C636      1.0  0.28779  0.10541  0.26130  1.0000
  C   C637      1.0  0.26130  0.96221  0.14459  1.0000
  C   C638      1.0  0.48870  0.78779  0.14459  1.0000
  C   C639      1.0  0.48870  0.96221  0.60541  1.0000
  C   C640      1.0  0.26130  0.78779  0.60541  1.0000
  C   C641      1.0  0.64459  0.76130  0.96221  1.0000
  C   C642      1.0  0.64459  0.98870  0.78779  1.0000
  C   C643      1.0  0.10541  0.98870  0.96221  1.0000
  C   C644      1.0  0.10541  0.76130  0.78779  1.0000
  C   C645      1.0  0.46221  0.14459  0.76130  1.0000
  C   C646      1.0  0.28779  0.14459  0.98870  1.0000
  C   C647      1.0  0.46221  0.60541  0.98870  1.0000
  C   C648      1.0  0.28779  0.60541  0.76130  1.0000
  C   C649      1.0  0.76130  0.46221  0.14459  1.0000
  C   C650      1.0  0.98870  0.28779  0.14459  1.0000
  C   C651      1.0  0.98870  0.46221  0.60541  1.0000
  C   C652      1.0  0.76130  0.28779  0.60541  1.0000
  C   C653      1.0  0.14459  0.26130  0.96221  1.0000
  C   C654      1.0  0.14459  0.48870  0.78779  1.0000
  C   C655      1.0  0.60541  0.48870  0.96221  1.0000
  C   C656      1.0  0.60541  0.26130  0.78779  1.0000
  C   C657      1.0  0.96221  0.64459  0.76130  1.0000
  C   C658      1.0  0.78779  0.64459  0.98870  1.0000
  C   C659      1.0  0.96221  0.10541  0.98870  1.0000
  C   C660      1.0  0.78779  0.10541  0.76130  1.0000
  C   C661      1.0  0.76130  0.96221  0.64459  1.0000
  C   C662      1.0  0.98870  0.78779  0.64459  1.0000
  C   C663      1.0  0.98870  0.96221  0.10541  1.0000
  C   C664      1.0  0.76130  0.78779  0.10541  1.0000
  C   C665      1.0  0.14459  0.76130  0.46221  1.0000
  C   C666      1.0  0.14459  0.98870  0.28779  1.0000
  C   C667      1.0  0.60541  0.98870  0.46221  1.0000
  C   C668      1.0  0.60541  0.76130  0.28779  1.0000
  C   C669      1.0  0.96221  0.14459  0.26130  1.0000
  C   C670      1.0  0.78779  0.14459  0.48870  1.0000
  C   C671      1.0  0.96221  0.60541  0.48870  1.0000
  C   C672      1.0  0.78779  0.60541  0.26130  1.0000
  H   H193      1.0  0.75076  0.53971  0.34156  1.0000
  H   H194      1.0  0.49924  0.71029  0.34156  1.0000
  H   H195      1.0  0.49924  0.53971  0.90844  1.0000
  H   H196      1.0  0.75076  0.71029  0.90844  1.0000
  H   H197      1.0  0.34156  0.75076  0.53971  1.0000
  H   H198      1.0  0.34156  0.49924  0.71029  1.0000
  H   H199      1.0  0.90844  0.49924  0.53971  1.0000
  H   H200      1.0  0.90844  0.75076  0.71029  1.0000
  H   H201      1.0  0.53971  0.34156  0.75076  1.0000
  H   H202      1.0  0.71029  0.34156  0.49924  1.0000
  H   H203      1.0  0.53971  0.90844  0.49924  1.0000
  H   H204      1.0  0.71029  0.90844  0.75076  1.0000
  H   H205      1.0  0.75076  0.03971  0.84156  1.0000
  H   H206      1.0  0.49924  0.21029  0.84156  1.0000
  H   H207      1.0  0.49924  0.03971  0.40844  1.0000
  H   H208      1.0  0.75076  0.21029  0.40844  1.0000
  H   H209      1.0  0.34156  0.25076  0.03971  1.0000
  H   H210      1.0  0.34156  0.99924  0.21029  1.0000
  H   H211      1.0  0.90844  0.99924  0.03971  1.0000
  H   H212      1.0  0.90844  0.25076  0.21029  1.0000
  H   H213      1.0  0.53971  0.84156  0.25076  1.0000
  H   H214      1.0  0.71029  0.84156  0.99924  1.0000
  H   H215      1.0  0.53971  0.40844  0.99924  1.0000
  H   H216      1.0  0.71029  0.40844  0.25076  1.0000
  H   H217      1.0  0.25076  0.53971  0.84156  1.0000
  H   H218      1.0  0.99924  0.71029  0.84156  1.0000
  H   H219      1.0  0.99924  0.53971  0.40844  1.0000
  H   H220      1.0  0.25076  0.71029  0.40844  1.0000
  H   H221      1.0  0.84156  0.75076  0.03971  1.0000
  H   H222      1.0  0.84156  0.49924  0.21029  1.0000
  H   H223      1.0  0.40844  0.49924  0.03971  1.0000
  H   H224      1.0  0.40844  0.75076  0.21029  1.0000
  H   H225      1.0  0.03971  0.34156  0.25076  1.0000
  H   H226      1.0  0.21029  0.34156  0.99924  1.0000
  H   H227      1.0  0.03971  0.90844  0.99924  1.0000
  H   H228      1.0  0.21029  0.90844  0.25076  1.0000
  H   H229      1.0  0.25076  0.03971  0.34156  1.0000
  H   H230      1.0  0.99924  0.21029  0.34156  1.0000
  H   H231      1.0  0.99924  0.03971  0.90844  1.0000
  H   H232      1.0  0.25076  0.21029  0.90844  1.0000
  H   H233      1.0  0.84156  0.25076  0.53971  1.0000
  H   H234      1.0  0.84156  0.99924  0.71029  1.0000
  H   H235      1.0  0.40844  0.99924  0.53971  1.0000
  H   H236      1.0  0.40844  0.25076  0.71029  1.0000
  H   H237      1.0  0.03971  0.84156  0.75076  1.0000
  H   H238      1.0  0.21029  0.84156  0.49924  1.0000
  H   H239      1.0  0.03971  0.40844  0.49924  1.0000
  H   H240      1.0  0.21029  0.40844  0.75076  1.0000
  H   H241      1.0  0.24924  0.46029  0.65844  1.0000
  H   H242      1.0  0.50076  0.28971  0.65844  1.0000
  H   H243      1.0  0.50076  0.46029  0.09156  1.0000
  H   H244      1.0  0.24924  0.28971  0.09156  1.0000
  H   H245      1.0  0.65844  0.24924  0.46029  1.0000
  H   H246      1.0  0.65844  0.50076  0.28971  1.0000
  H   H247      1.0  0.09156  0.50076  0.46029  1.0000
  H   H248      1.0  0.09156  0.24924  0.28971  1.0000
  H   H249      1.0  0.46029  0.65844  0.24924  1.0000
  H   H250      1.0  0.28971  0.65844  0.50076  1.0000
  H   H251      1.0  0.46029  0.09156  0.50076  1.0000
  H   H252      1.0  0.28971  0.09156  0.24924  1.0000
  H   H253      1.0  0.24924  0.96029  0.15844  1.0000
  H   H254      1.0  0.50076  0.78971  0.15844  1.0000
  H   H255      1.0  0.50076  0.96029  0.59156  1.0000
  H   H256      1.0  0.24924  0.78971  0.59156  1.0000
  H   H257      1.0  0.65844  0.74924  0.96029  1.0000
  H   H258      1.0  0.65844  0.00076  0.78971  1.0000
  H   H259      1.0  0.09156  0.00076  0.96029  1.0000
  H   H260      1.0  0.09156  0.74924  0.78971  1.0000
  H   H261      1.0  0.46029  0.15844  0.74924  1.0000
  H   H262      1.0  0.28971  0.15844  0.00076  1.0000
  H   H263      1.0  0.46029  0.59156  0.00076  1.0000
  H   H264      1.0  0.28971  0.59156  0.74924  1.0000
  H   H265      1.0  0.74924  0.46029  0.15844  1.0000
  H   H266      1.0  0.00076  0.28971  0.15844  1.0000
  H   H267      1.0  0.00076  0.46029  0.59156  1.0000
  H   H268      1.0  0.74924  0.28971  0.59156  1.0000
  H   H269      1.0  0.15844  0.24924  0.96029  1.0000
  H   H270      1.0  0.15844  0.50076  0.78971  1.0000
  H   H271      1.0  0.59156  0.50076  0.96029  1.0000
  H   H272      1.0  0.59156  0.24924  0.78971  1.0000
  H   H273      1.0  0.96029  0.65844  0.74924  1.0000
  H   H274      1.0  0.78971  0.65844  0.00076  1.0000
  H   H275      1.0  0.96029  0.09156  0.00076  1.0000
  H   H276      1.0  0.78971  0.09156  0.74924  1.0000
  H   H277      1.0  0.74924  0.96029  0.65844  1.0000
  H   H278      1.0  0.00076  0.78971  0.65844  1.0000
  H   H279      1.0  0.00076  0.96029  0.09156  1.0000
  H   H280      1.0  0.74924  0.78971  0.09156  1.0000
  H   H281      1.0  0.15844  0.74924  0.46029  1.0000
  H   H282      1.0  0.15844  0.00076  0.28971  1.0000
  H   H283      1.0  0.59156  0.00076  0.46029  1.0000
  H   H284      1.0  0.59156  0.74924  0.28971  1.0000
  H   H285      1.0  0.96029  0.15844  0.24924  1.0000
  H   H286      1.0  0.78971  0.15844  0.50076  1.0000
  H   H287      1.0  0.96029  0.59156  0.50076  1.0000
  H   H288      1.0  0.78971  0.59156  0.24924  1.0000
  C   C673      1.0  0.71080  0.49714  0.34194  1.0000
  C   C674      1.0  0.53920  0.75286  0.34194  1.0000
  C   C675      1.0  0.53920  0.49714  0.90806  1.0000
  C   C676      1.0  0.71080  0.75286  0.90806  1.0000
  C   C677      1.0  0.34194  0.71080  0.49714  1.0000
  C   C678      1.0  0.34194  0.53920  0.75286  1.0000
  C   C679      1.0  0.90806  0.53920  0.49714  1.0000
  C   C680      1.0  0.90806  0.71080  0.75286  1.0000
  C   C681      1.0  0.49714  0.34194  0.71080  1.0000
  C   C682      1.0  0.75286  0.34194  0.53920  1.0000
  C   C683      1.0  0.49714  0.90806  0.53920  1.0000
  C   C684      1.0  0.75286  0.90806  0.71080  1.0000
  C   C685      1.0  0.71080  0.99714  0.84194  1.0000
  C   C686      1.0  0.53920  0.25286  0.84194  1.0000
  C   C687      1.0  0.53920  0.99714  0.40806  1.0000
  C   C688      1.0  0.71080  0.25286  0.40806  1.0000
  C   C689      1.0  0.34194  0.21080  0.99714  1.0000
  C   C690      1.0  0.34194  0.03920  0.25286  1.0000
  C   C691      1.0  0.90806  0.03920  0.99714  1.0000
  C   C692      1.0  0.90806  0.21080  0.25286  1.0000
  C   C693      1.0  0.49714  0.84194  0.21080  1.0000
  C   C694      1.0  0.75286  0.84194  0.03920  1.0000
  C   C695      1.0  0.49714  0.40806  0.03920  1.0000
  C   C696      1.0  0.75286  0.40806  0.21080  1.0000
  C   C697      1.0  0.21080  0.49714  0.84194  1.0000
  C   C698      1.0  0.03920  0.75286  0.84194  1.0000
  C   C699      1.0  0.03920  0.49714  0.40806  1.0000
  C   C700      1.0  0.21080  0.75286  0.40806  1.0000
  C   C701      1.0  0.84194  0.71080  0.99714  1.0000
  C   C702      1.0  0.84194  0.53920  0.25286  1.0000
  C   C703      1.0  0.40806  0.53920  0.99714  1.0000
  C   C704      1.0  0.40806  0.71080  0.25286  1.0000
  C   C705      1.0  0.99714  0.34194  0.21080  1.0000
  C   C706      1.0  0.25286  0.34194  0.03920  1.0000
  C   C707      1.0  0.99714  0.90806  0.03920  1.0000
  C   C708      1.0  0.25286  0.90806  0.21080  1.0000
  C   C709      1.0  0.21080  0.99714  0.34194  1.0000
  C   C710      1.0  0.03920  0.25286  0.34194  1.0000
  C   C711      1.0  0.03920  0.99714  0.90806  1.0000
  C   C712      1.0  0.21080  0.25286  0.90806  1.0000
  C   C713      1.0  0.84194  0.21080  0.49714  1.0000
  C   C714      1.0  0.84194  0.03920  0.75286  1.0000
  C   C715      1.0  0.40806  0.03920  0.49714  1.0000
  C   C716      1.0  0.40806  0.21080  0.75286  1.0000
  C   C717      1.0  0.99714  0.84194  0.71080  1.0000
  C   C718      1.0  0.25286  0.84194  0.53920  1.0000
  C   C719      1.0  0.99714  0.40806  0.53920  1.0000
  C   C720      1.0  0.25286  0.40806  0.71080  1.0000
  C   C721      1.0  0.28920  0.50286  0.65806  1.0000
  C   C722      1.0  0.46080  0.24714  0.65806  1.0000
  C   C723      1.0  0.46080  0.50286  0.09194  1.0000
  C   C724      1.0  0.28920  0.24714  0.09194  1.0000
  C   C725      1.0  0.65806  0.28920  0.50286  1.0000
  C   C726      1.0  0.65806  0.46080  0.24714  1.0000
  C   C727      1.0  0.09194  0.46080  0.50286  1.0000
  C   C728      1.0  0.09194  0.28920  0.24714  1.0000
  C   C729      1.0  0.50286  0.65806  0.28920  1.0000
  C   C730      1.0  0.24714  0.65806  0.46080  1.0000
  C   C731      1.0  0.50286  0.09194  0.46080  1.0000
  C   C732      1.0  0.24714  0.09194  0.28920  1.0000
  C   C733      1.0  0.28920  0.00286  0.15806  1.0000
  C   C734      1.0  0.46080  0.74714  0.15806  1.0000
  C   C735      1.0  0.46080  0.00286  0.59194  1.0000
  C   C736      1.0  0.28920  0.74714  0.59194  1.0000
  C   C737      1.0  0.65806  0.78920  0.00286  1.0000
  C   C738      1.0  0.65806  0.96080  0.74714  1.0000
  C   C739      1.0  0.09194  0.96080  0.00286  1.0000
  C   C740      1.0  0.09194  0.78920  0.74714  1.0000
  C   C741      1.0  0.50286  0.15806  0.78920  1.0000
  C   C742      1.0  0.24714  0.15806  0.96080  1.0000
  C   C743      1.0  0.50286  0.59194  0.96080  1.0000
  C   C744      1.0  0.24714  0.59194  0.78920  1.0000
  C   C745      1.0  0.78920  0.50286  0.15806  1.0000
  C   C746      1.0  0.96080  0.24714  0.15806  1.0000
  C   C747      1.0  0.96080  0.50286  0.59194  1.0000
  C   C748      1.0  0.78920  0.24714  0.59194  1.0000
  C   C749      1.0  0.15806  0.28920  0.00286  1.0000
  C   C750      1.0  0.15806  0.46080  0.74714  1.0000
  C   C751      1.0  0.59194  0.46080  0.00286  1.0000
  C   C752      1.0  0.59194  0.28920  0.74714  1.0000
  C   C753      1.0  0.00286  0.65806  0.78920  1.0000
  C   C754      1.0  0.74714  0.65806  0.96080  1.0000
  C   C755      1.0  0.00286  0.09194  0.96080  1.0000
  C   C756      1.0  0.74714  0.09194  0.78920  1.0000
  C   C757      1.0  0.78920  0.00286  0.65806  1.0000
  C   C758      1.0  0.96080  0.74714  0.65806  1.0000
  C   C759      1.0  0.96080  0.00286  0.09194  1.0000
  C   C760      1.0  0.78920  0.74714  0.09194  1.0000
  C   C761      1.0  0.15806  0.78920  0.50286  1.0000
  C   C762      1.0  0.15806  0.96080  0.24714  1.0000
  C   C763      1.0  0.59194  0.96080  0.50286  1.0000
  C   C764      1.0  0.59194  0.78920  0.24714  1.0000
  C   C765      1.0  0.00286  0.15806  0.28920  1.0000
  C   C766      1.0  0.74714  0.15806  0.46080  1.0000
  C   C767      1.0  0.00286  0.59194  0.46080  1.0000
  C   C768      1.0  0.74714  0.59194  0.28920  1.0000
  C   C769      1.0  0.72265  0.48766  0.31947  1.0000
  C   C770      1.0  0.52735  0.76234  0.31947  1.0000
  C   C771      1.0  0.52735  0.48766  0.93053  1.0000
  C   C772      1.0  0.72265  0.76234  0.93053  1.0000
  C   C773      1.0  0.31947  0.72265  0.48766  1.0000
  C   C774      1.0  0.31947  0.52735  0.76234  1.0000
  C   C775      1.0  0.93053  0.52735  0.48766  1.0000
  C   C776      1.0  0.93053  0.72265  0.76234  1.0000
  C   C777      1.0  0.48766  0.31947  0.72265  1.0000
  C   C778      1.0  0.76234  0.31947  0.52735  1.0000
  C   C779      1.0  0.48766  0.93053  0.52735  1.0000
  C   C780      1.0  0.76234  0.93053  0.72265  1.0000
  C   C781      1.0  0.72265  0.98766  0.81947  1.0000
  C   C782      1.0  0.52735  0.26234  0.81947  1.0000
  C   C783      1.0  0.52735  0.98766  0.43053  1.0000
  C   C784      1.0  0.72265  0.26234  0.43053  1.0000
  C   C785      1.0  0.31947  0.22265  0.98766  1.0000
  C   C786      1.0  0.31947  0.02735  0.26234  1.0000
  C   C787      1.0  0.93053  0.02735  0.98766  1.0000
  C   C788      1.0  0.93053  0.22265  0.26234  1.0000
  C   C789      1.0  0.48766  0.81947  0.22265  1.0000
  C   C790      1.0  0.76234  0.81947  0.02735  1.0000
  C   C791      1.0  0.48766  0.43053  0.02735  1.0000
  C   C792      1.0  0.76234  0.43053  0.22265  1.0000
  C   C793      1.0  0.22265  0.48766  0.81947  1.0000
  C   C794      1.0  0.02735  0.76234  0.81947  1.0000
  C   C795      1.0  0.02735  0.48766  0.43053  1.0000
  C   C796      1.0  0.22265  0.76234  0.43053  1.0000
  C   C797      1.0  0.81947  0.72265  0.98766  1.0000
  C   C798      1.0  0.81947  0.52735  0.26234  1.0000
  C   C799      1.0  0.43053  0.52735  0.98766  1.0000
  C   C800      1.0  0.43053  0.72265  0.26234  1.0000
  C   C801      1.0  0.98766  0.31947  0.22265  1.0000
  C   C802      1.0  0.26234  0.31947  0.02735  1.0000
  C   C803      1.0  0.98766  0.93053  0.02735  1.0000
  C   C804      1.0  0.26234  0.93053  0.22265  1.0000
  C   C805      1.0  0.22265  0.98766  0.31947  1.0000
  C   C806      1.0  0.02735  0.26234  0.31947  1.0000
  C   C807      1.0  0.02735  0.98766  0.93053  1.0000
  C   C808      1.0  0.22265  0.26234  0.93053  1.0000
  C   C809      1.0  0.81947  0.22265  0.48766  1.0000
  C   C810      1.0  0.81947  0.02735  0.76234  1.0000
  C   C811      1.0  0.43053  0.02735  0.48766  1.0000
  C   C812      1.0  0.43053  0.22265  0.76234  1.0000
  C   C813      1.0  0.98766  0.81947  0.72265  1.0000
  C   C814      1.0  0.26234  0.81947  0.52735  1.0000
  C   C815      1.0  0.98766  0.43053  0.52735  1.0000
  C   C816      1.0  0.26234  0.43053  0.72265  1.0000
  C   C817      1.0  0.27735  0.51234  0.68053  1.0000
  C   C818      1.0  0.47265  0.23766  0.68053  1.0000
  C   C819      1.0  0.47265  0.51234  0.06947  1.0000
  C   C820      1.0  0.27735  0.23766  0.06947  1.0000
  C   C821      1.0  0.68053  0.27735  0.51234  1.0000
  C   C822      1.0  0.68053  0.47265  0.23766  1.0000
  C   C823      1.0  0.06947  0.47265  0.51234  1.0000
  C   C824      1.0  0.06947  0.27735  0.23766  1.0000
  C   C825      1.0  0.51234  0.68053  0.27735  1.0000
  C   C826      1.0  0.23766  0.68053  0.47265  1.0000
  C   C827      1.0  0.51234  0.06947  0.47265  1.0000
  C   C828      1.0  0.23766  0.06947  0.27735  1.0000
  C   C829      1.0  0.27735  0.01234  0.18053  1.0000
  C   C830      1.0  0.47265  0.73766  0.18053  1.0000
  C   C831      1.0  0.47265  0.01234  0.56947  1.0000
  C   C832      1.0  0.27735  0.73766  0.56947  1.0000
  C   C833      1.0  0.68053  0.77735  0.01234  1.0000
  C   C834      1.0  0.68053  0.97265  0.73766  1.0000
  C   C835      1.0  0.06947  0.97265  0.01234  1.0000
  C   C836      1.0  0.06947  0.77735  0.73766  1.0000
  C   C837      1.0  0.51234  0.18053  0.77735  1.0000
  C   C838      1.0  0.23766  0.18053  0.97265  1.0000
  C   C839      1.0  0.51234  0.56947  0.97265  1.0000
  C   C840      1.0  0.23766  0.56947  0.77735  1.0000
  C   C841      1.0  0.77735  0.51234  0.18053  1.0000
  C   C842      1.0  0.97265  0.23766  0.18053  1.0000
  C   C843      1.0  0.97265  0.51234  0.56947  1.0000
  C   C844      1.0  0.77735  0.23766  0.56947  1.0000
  C   C845      1.0  0.18053  0.27735  0.01234  1.0000
  C   C846      1.0  0.18053  0.47265  0.73766  1.0000
  C   C847      1.0  0.56947  0.47265  0.01234  1.0000
  C   C848      1.0  0.56947  0.27735  0.73766  1.0000
  C   C849      1.0  0.01234  0.68053  0.77735  1.0000
  C   C850      1.0  0.73766  0.68053  0.97265  1.0000
  C   C851      1.0  0.01234  0.06947  0.97265  1.0000
  C   C852      1.0  0.73766  0.06947  0.77735  1.0000
  C   C853      1.0  0.77735  0.01234  0.68053  1.0000
  C   C854      1.0  0.97265  0.73766  0.68053  1.0000
  C   C855      1.0  0.97265  0.01234  0.06947  1.0000
  C   C856      1.0  0.77735  0.73766  0.06947  1.0000
  C   C857      1.0  0.18053  0.77735  0.51234  1.0000
  C   C858      1.0  0.18053  0.97265  0.23766  1.0000
  C   C859      1.0  0.56947  0.97265  0.51234  1.0000
  C   C860      1.0  0.56947  0.77735  0.23766  1.0000
  C   C861      1.0  0.01234  0.18053  0.27735  1.0000
  C   C862      1.0  0.73766  0.18053  0.47265  1.0000
  C   C863      1.0  0.01234  0.56947  0.47265  1.0000
  C   C864      1.0  0.73766  0.56947  0.27735  1.0000
  H   H289      1.0  0.73735  0.49619  0.31226  1.0000
  H   H290      1.0  0.51265  0.75381  0.31226  1.0000
  H   H291      1.0  0.51265  0.49619  0.93774  1.0000
  H   H292      1.0  0.73735  0.75381  0.93774  1.0000
  H   H293      1.0  0.31226  0.73735  0.49619  1.0000
  H   H294      1.0  0.31226  0.51265  0.75381  1.0000
  H   H295      1.0  0.93774  0.51265  0.49619  1.0000
  H   H296      1.0  0.93774  0.73735  0.75381  1.0000
  H   H297      1.0  0.49619  0.31226  0.73735  1.0000
  H   H298      1.0  0.75381  0.31226  0.51265  1.0000
  H   H299      1.0  0.49619  0.93774  0.51265  1.0000
  H   H300      1.0  0.75381  0.93774  0.73735  1.0000
  H   H301      1.0  0.73735  0.99619  0.81226  1.0000
  H   H302      1.0  0.51265  0.25381  0.81226  1.0000
  H   H303      1.0  0.51265  0.99619  0.43774  1.0000
  H   H304      1.0  0.73735  0.25381  0.43774  1.0000
  H   H305      1.0  0.31226  0.23735  0.99619  1.0000
  H   H306      1.0  0.31226  0.01265  0.25381  1.0000
  H   H307      1.0  0.93774  0.01265  0.99619  1.0000
  H   H308      1.0  0.93774  0.23735  0.25381  1.0000
  H   H309      1.0  0.49619  0.81226  0.23735  1.0000
  H   H310      1.0  0.75381  0.81226  0.01265  1.0000
  H   H311      1.0  0.49619  0.43774  0.01265  1.0000
  H   H312      1.0  0.75381  0.43774  0.23735  1.0000
  H   H313      1.0  0.23735  0.49619  0.81226  1.0000
  H   H314      1.0  0.01265  0.75381  0.81226  1.0000
  H   H315      1.0  0.01265  0.49619  0.43774  1.0000
  H   H316      1.0  0.23735  0.75381  0.43774  1.0000
  H   H317      1.0  0.81226  0.73735  0.99619  1.0000
  H   H318      1.0  0.81226  0.51265  0.25381  1.0000
  H   H319      1.0  0.43774  0.51265  0.99619  1.0000
  H   H320      1.0  0.43774  0.73735  0.25381  1.0000
  H   H321      1.0  0.99619  0.31226  0.23735  1.0000
  H   H322      1.0  0.25381  0.31226  0.01265  1.0000
  H   H323      1.0  0.99619  0.93774  0.01265  1.0000
  H   H324      1.0  0.25381  0.93774  0.23735  1.0000
  H   H325      1.0  0.23735  0.99619  0.31226  1.0000
  H   H326      1.0  0.01265  0.25381  0.31226  1.0000
  H   H327      1.0  0.01265  0.99619  0.93774  1.0000
  H   H328      1.0  0.23735  0.25381  0.93774  1.0000
  H   H329      1.0  0.81226  0.23735  0.49619  1.0000
  H   H330      1.0  0.81226  0.01265  0.75381  1.0000
  H   H331      1.0  0.43774  0.01265  0.49619  1.0000
  H   H332      1.0  0.43774  0.23735  0.75381  1.0000
  H   H333      1.0  0.99619  0.81226  0.73735  1.0000
  H   H334      1.0  0.25381  0.81226  0.51265  1.0000
  H   H335      1.0  0.99619  0.43774  0.51265  1.0000
  H   H336      1.0  0.25381  0.43774  0.73735  1.0000
  H   H337      1.0  0.26265  0.50381  0.68774  1.0000
  H   H338      1.0  0.48735  0.24619  0.68774  1.0000
  H   H339      1.0  0.48735  0.50381  0.06226  1.0000
  H   H340      1.0  0.26265  0.24619  0.06226  1.0000
  H   H341      1.0  0.68774  0.26265  0.50381  1.0000
  H   H342      1.0  0.68774  0.48735  0.24619  1.0000
  H   H343      1.0  0.06226  0.48735  0.50381  1.0000
  H   H344      1.0  0.06226  0.26265  0.24619  1.0000
  H   H345      1.0  0.50381  0.68774  0.26265  1.0000
  H   H346      1.0  0.24619  0.68774  0.48735  1.0000
  H   H347      1.0  0.50381  0.06226  0.48735  1.0000
  H   H348      1.0  0.24619  0.06226  0.26265  1.0000
  H   H349      1.0  0.26265  0.00381  0.18774  1.0000
  H   H350      1.0  0.48735  0.74619  0.18774  1.0000
  H   H351      1.0  0.48735  0.00381  0.56226  1.0000
  H   H352      1.0  0.26265  0.74619  0.56226  1.0000
  H   H353      1.0  0.68774  0.76265  0.00381  1.0000
  H   H354      1.0  0.68774  0.98735  0.74619  1.0000
  H   H355      1.0  0.06226  0.98735  0.00381  1.0000
  H   H356      1.0  0.06226  0.76265  0.74619  1.0000
  H   H357      1.0  0.50381  0.18774  0.76265  1.0000
  H   H358      1.0  0.24619  0.18774  0.98735  1.0000
  H   H359      1.0  0.50381  0.56226  0.98735  1.0000
  H   H360      1.0  0.24619  0.56226  0.76265  1.0000
  H   H361      1.0  0.76265  0.50381  0.18774  1.0000
  H   H362      1.0  0.98735  0.24619  0.18774  1.0000
  H   H363      1.0  0.98735  0.50381  0.56226  1.0000
  H   H364      1.0  0.76265  0.24619  0.56226  1.0000
  H   H365      1.0  0.18774  0.26265  0.00381  1.0000
  H   H366      1.0  0.18774  0.48735  0.74619  1.0000
  H   H367      1.0  0.56226  0.48735  0.00381  1.0000
  H   H368      1.0  0.56226  0.26265  0.74619  1.0000
  H   H369      1.0  0.00381  0.68774  0.76265  1.0000
  H   H370      1.0  0.74619  0.68774  0.98735  1.0000
  H   H371      1.0  0.00381  0.06226  0.98735  1.0000
  H   H372      1.0  0.74619  0.06226  0.76265  1.0000
  H   H373      1.0  0.76265  0.00381  0.68774  1.0000
  H   H374      1.0  0.98735  0.74619  0.68774  1.0000
  H   H375      1.0  0.98735  0.00381  0.06226  1.0000
  H   H376      1.0  0.76265  0.74619  0.06226  1.0000
  H   H377      1.0  0.18774  0.76265  0.50381  1.0000
  H   H378      1.0  0.18774  0.98735  0.24619  1.0000
  H   H379      1.0  0.56226  0.98735  0.50381  1.0000
  H   H380      1.0  0.56226  0.76265  0.24619  1.0000
  H   H381      1.0  0.00381  0.18774  0.26265  1.0000
  H   H382      1.0  0.74619  0.18774  0.48735  1.0000
  H   H383      1.0  0.00381  0.56226  0.48735  1.0000
  H   H384      1.0  0.74619  0.56226  0.26265  1.0000
  C   C865      1.0  0.83612  0.55807  0.45425  1.0000
  C   C866      1.0  0.41388  0.69193  0.45425  1.0000
  C   C867      1.0  0.41388  0.55807  0.79575  1.0000
  C   C868      1.0  0.83612  0.69193  0.79575  1.0000
  C   C869      1.0  0.45425  0.83612  0.55807  1.0000
  C   C870      1.0  0.45425  0.41388  0.69193  1.0000
  C   C871      1.0  0.79575  0.41388  0.55807  1.0000
  C   C872      1.0  0.79575  0.83612  0.69193  1.0000
  C   C873      1.0  0.55807  0.45425  0.83612  1.0000
  C   C874      1.0  0.69193  0.45425  0.41388  1.0000
  C   C875      1.0  0.55807  0.79575  0.41388  1.0000
  C   C876      1.0  0.69193  0.79575  0.83612  1.0000
  C   C877      1.0  0.83612  0.05807  0.95425  1.0000
  C   C878      1.0  0.41388  0.19193  0.95425  1.0000
  C   C879      1.0  0.41388  0.05807  0.29575  1.0000
  C   C880      1.0  0.83612  0.19193  0.29575  1.0000
  C   C881      1.0  0.45425  0.33612  0.05807  1.0000
  C   C882      1.0  0.45425  0.91388  0.19193  1.0000
  C   C883      1.0  0.79575  0.91388  0.05807  1.0000
  C   C884      1.0  0.79575  0.33612  0.19193  1.0000
  C   C885      1.0  0.55807  0.95425  0.33612  1.0000
  C   C886      1.0  0.69193  0.95425  0.91388  1.0000
  C   C887      1.0  0.55807  0.29575  0.91388  1.0000
  C   C888      1.0  0.69193  0.29575  0.33612  1.0000
  C   C889      1.0  0.33612  0.55807  0.95425  1.0000
  C   C890      1.0  0.91388  0.69193  0.95425  1.0000
  C   C891      1.0  0.91388  0.55807  0.29575  1.0000
  C   C892      1.0  0.33612  0.69193  0.29575  1.0000
  C   C893      1.0  0.95425  0.83612  0.05807  1.0000
  C   C894      1.0  0.95425  0.41388  0.19193  1.0000
  C   C895      1.0  0.29575  0.41388  0.05807  1.0000
  C   C896      1.0  0.29575  0.83612  0.19193  1.0000
  C   C897      1.0  0.05807  0.45425  0.33612  1.0000
  C   C898      1.0  0.19193  0.45425  0.91388  1.0000
  C   C899      1.0  0.05807  0.79575  0.91388  1.0000
  C   C900      1.0  0.19193  0.79575  0.33612  1.0000
  C   C901      1.0  0.33612  0.05807  0.45425  1.0000
  C   C902      1.0  0.91388  0.19193  0.45425  1.0000
  C   C903      1.0  0.91388  0.05807  0.79575  1.0000
  C   C904      1.0  0.33612  0.19193  0.79575  1.0000
  C   C905      1.0  0.95425  0.33612  0.55807  1.0000
  C   C906      1.0  0.95425  0.91388  0.69193  1.0000
  C   C907      1.0  0.29575  0.91388  0.55807  1.0000
  C   C908      1.0  0.29575  0.33612  0.69193  1.0000
  C   C909      1.0  0.05807  0.95425  0.83612  1.0000
  C   C910      1.0  0.19193  0.95425  0.41388  1.0000
  C   C911      1.0  0.05807  0.29575  0.41388  1.0000
  C   C912      1.0  0.19193  0.29575  0.83612  1.0000
  C   C913      1.0  0.16388  0.44193  0.54575  1.0000
  C   C914      1.0  0.58612  0.30807  0.54575  1.0000
  C   C915      1.0  0.58612  0.44193  0.20425  1.0000
  C   C916      1.0  0.16388  0.30807  0.20425  1.0000
  C   C917      1.0  0.54575  0.16388  0.44193  1.0000
  C   C918      1.0  0.54575  0.58612  0.30807  1.0000
  C   C919      1.0  0.20425  0.58612  0.44193  1.0000
  C   C920      1.0  0.20425  0.16388  0.30807  1.0000
  C   C921      1.0  0.44193  0.54575  0.16388  1.0000
  C   C922      1.0  0.30807  0.54575  0.58612  1.0000
  C   C923      1.0  0.44193  0.20425  0.58612  1.0000
  C   C924      1.0  0.30807  0.20425  0.16388  1.0000
  C   C925      1.0  0.16388  0.94193  0.04575  1.0000
  C   C926      1.0  0.58612  0.80807  0.04575  1.0000
  C   C927      1.0  0.58612  0.94193  0.70425  1.0000
  C   C928      1.0  0.16388  0.80807  0.70425  1.0000
  C   C929      1.0  0.54575  0.66388  0.94193  1.0000
  C   C930      1.0  0.54575  0.08612  0.80807  1.0000
  C   C931      1.0  0.20425  0.08612  0.94193  1.0000
  C   C932      1.0  0.20425  0.66388  0.80807  1.0000
  C   C933      1.0  0.44193  0.04575  0.66388  1.0000
  C   C934      1.0  0.30807  0.04575  0.08612  1.0000
  C   C935      1.0  0.44193  0.70425  0.08612  1.0000
  C   C936      1.0  0.30807  0.70425  0.66388  1.0000
  C   C937      1.0  0.66388  0.44193  0.04575  1.0000
  C   C938      1.0  0.08612  0.30807  0.04575  1.0000
  C   C939      1.0  0.08612  0.44193  0.70425  1.0000
  C   C940      1.0  0.66388  0.30807  0.70425  1.0000
  C   C941      1.0  0.04575  0.16388  0.94193  1.0000
  C   C942      1.0  0.04575  0.58612  0.80807  1.0000
  C   C943      1.0  0.70425  0.58612  0.94193  1.0000
  C   C944      1.0  0.70425  0.16388  0.80807  1.0000
  C   C945      1.0  0.94193  0.54575  0.66388  1.0000
  C   C946      1.0  0.80807  0.54575  0.08612  1.0000
  C   C947      1.0  0.94193  0.20425  0.08612  1.0000
  C   C948      1.0  0.80807  0.20425  0.66388  1.0000
  C   C949      1.0  0.66388  0.94193  0.54575  1.0000
  C   C950      1.0  0.08612  0.80807  0.54575  1.0000
  C   C951      1.0  0.08612  0.94193  0.20425  1.0000
  C   C952      1.0  0.66388  0.80807  0.20425  1.0000
  C   C953      1.0  0.04575  0.66388  0.44193  1.0000
  C   C954      1.0  0.04575  0.08612  0.30807  1.0000
  C   C955      1.0  0.70425  0.08612  0.44193  1.0000
  C   C956      1.0  0.70425  0.66388  0.30807  1.0000
  C   C957      1.0  0.94193  0.04575  0.16388  1.0000
  C   C958      1.0  0.80807  0.04575  0.58612  1.0000
  C   C959      1.0  0.94193  0.70425  0.58612  1.0000
  C   C960      1.0  0.80807  0.70425  0.16388  1.0000
  C   C961      1.0  0.62859  0.39728  0.39940  1.0000
  C   C962      1.0  0.62141  0.85272  0.39940  1.0000
  C   C963      1.0  0.62141  0.39728  0.85060  1.0000
  C   C964      1.0  0.62859  0.85272  0.85060  1.0000
  C   C965      1.0  0.39940  0.62859  0.39728  1.0000
  C   C966      1.0  0.39940  0.62141  0.85272  1.0000
  C   C967      1.0  0.85060  0.62141  0.39728  1.0000
  C   C968      1.0  0.85060  0.62859  0.85272  1.0000
  C   C969      1.0  0.39728  0.39940  0.62859  1.0000
  C   C970      1.0  0.85272  0.39940  0.62141  1.0000
  C   C971      1.0  0.39728  0.85060  0.62141  1.0000
  C   C972      1.0  0.85272  0.85060  0.62859  1.0000
  C   C973      1.0  0.62859  0.89728  0.89940  1.0000
  C   C974      1.0  0.62141  0.35272  0.89940  1.0000
  C   C975      1.0  0.62141  0.89728  0.35060  1.0000
  C   C976      1.0  0.62859  0.35272  0.35060  1.0000
  C   C977      1.0  0.39940  0.12859  0.89728  1.0000
  C   C978      1.0  0.39940  0.12141  0.35272  1.0000
  C   C979      1.0  0.85060  0.12141  0.89728  1.0000
  C   C980      1.0  0.85060  0.12859  0.35272  1.0000
  C   C981      1.0  0.39728  0.89940  0.12859  1.0000
  C   C982      1.0  0.85272  0.89940  0.12141  1.0000
  C   C983      1.0  0.39728  0.35060  0.12141  1.0000
  C   C984      1.0  0.85272  0.35060  0.12859  1.0000
  C   C985      1.0  0.12859  0.39728  0.89940  1.0000
  C   C986      1.0  0.12141  0.85272  0.89940  1.0000
  C   C987      1.0  0.12141  0.39728  0.35060  1.0000
  C   C988      1.0  0.12859  0.85272  0.35060  1.0000
  C   C989      1.0  0.89940  0.62859  0.89728  1.0000
  C   C990      1.0  0.89940  0.62141  0.35272  1.0000
  C   C991      1.0  0.35060  0.62141  0.89728  1.0000
  C   C992      1.0  0.35060  0.62859  0.35272  1.0000
  C   C993      1.0  0.89728  0.39940  0.12859  1.0000
  C   C994      1.0  0.35272  0.39940  0.12141  1.0000
  C   C995      1.0  0.89728  0.85060  0.12141  1.0000
  C   C996      1.0  0.35272  0.85060  0.12859  1.0000
  C   C997      1.0  0.12859  0.89728  0.39940  1.0000
  C   C998      1.0  0.12141  0.35272  0.39940  1.0000
  C   C999      1.0  0.12141  0.89728  0.85060  1.0000
  C   C1000     1.0  0.12859  0.35272  0.85060  1.0000
  C   C1001     1.0  0.89940  0.12859  0.39728  1.0000
  C   C1002     1.0  0.89940  0.12141  0.85272  1.0000
  C   C1003     1.0  0.35060  0.12141  0.39728  1.0000
  C   C1004     1.0  0.35060  0.12859  0.85272  1.0000
  C   C1005     1.0  0.89728  0.89940  0.62859  1.0000
  C   C1006     1.0  0.35272  0.89940  0.62141  1.0000
  C   C1007     1.0  0.89728  0.35060  0.62141  1.0000
  C   C1008     1.0  0.35272  0.35060  0.62859  1.0000
  C   C1009     1.0  0.37141  0.60272  0.60060  1.0000
  C   C1010     1.0  0.37859  0.14728  0.60060  1.0000
  C   C1011     1.0  0.37859  0.60272  0.14940  1.0000
  C   C1012     1.0  0.37141  0.14728  0.14940  1.0000
  C   C1013     1.0  0.60060  0.37141  0.60272  1.0000
  C   C1014     1.0  0.60060  0.37859  0.14728  1.0000
  C   C1015     1.0  0.14940  0.37859  0.60272  1.0000
  C   C1016     1.0  0.14940  0.37141  0.14728  1.0000
  C   C1017     1.0  0.60272  0.60060  0.37141  1.0000
  C   C1018     1.0  0.14728  0.60060  0.37859  1.0000
  C   C1019     1.0  0.60272  0.14940  0.37859  1.0000
  C   C1020     1.0  0.14728  0.14940  0.37141  1.0000
  C   C1021     1.0  0.37141  0.10272  0.10060  1.0000
  C   C1022     1.0  0.37859  0.64728  0.10060  1.0000
  C   C1023     1.0  0.37859  0.10272  0.64940  1.0000
  C   C1024     1.0  0.37141  0.64728  0.64940  1.0000
  C   C1025     1.0  0.60060  0.87141  0.10272  1.0000
  C   C1026     1.0  0.60060  0.87859  0.64728  1.0000
  C   C1027     1.0  0.14940  0.87859  0.10272  1.0000
  C   C1028     1.0  0.14940  0.87141  0.64728  1.0000
  C   C1029     1.0  0.60272  0.10060  0.87141  1.0000
  C   C1030     1.0  0.14728  0.10060  0.87859  1.0000
  C   C1031     1.0  0.60272  0.64940  0.87859  1.0000
  C   C1032     1.0  0.14728  0.64940  0.87141  1.0000
  C   C1033     1.0  0.87141  0.60272  0.10060  1.0000
  C   C1034     1.0  0.87859  0.14728  0.10060  1.0000
  C   C1035     1.0  0.87859  0.60272  0.64940  1.0000
  C   C1036     1.0  0.87141  0.14728  0.64940  1.0000
  C   C1037     1.0  0.10060  0.37141  0.10272  1.0000
  C   C1038     1.0  0.10060  0.37859  0.64728  1.0000
  C   C1039     1.0  0.64940  0.37859  0.10272  1.0000
  C   C1040     1.0  0.64940  0.37141  0.64728  1.0000
  C   C1041     1.0  0.10272  0.60060  0.87141  1.0000
  C   C1042     1.0  0.64728  0.60060  0.87859  1.0000
  C   C1043     1.0  0.10272  0.14940  0.87859  1.0000
  C   C1044     1.0  0.64728  0.14940  0.87141  1.0000
  C   C1045     1.0  0.87141  0.10272  0.60060  1.0000
  C   C1046     1.0  0.87859  0.64728  0.60060  1.0000
  C   C1047     1.0  0.87859  0.10272  0.14940  1.0000
  C   C1048     1.0  0.87141  0.64728  0.14940  1.0000
  C   C1049     1.0  0.10060  0.87141  0.60272  1.0000
  C   C1050     1.0  0.10060  0.87859  0.14728  1.0000
  C   C1051     1.0  0.64940  0.87859  0.60272  1.0000
  C   C1052     1.0  0.64940  0.87141  0.14728  1.0000
  C   C1053     1.0  0.10272  0.10060  0.37141  1.0000
  C   C1054     1.0  0.64728  0.10060  0.37859  1.0000
  C   C1055     1.0  0.10272  0.64940  0.37859  1.0000
  C   C1056     1.0  0.64728  0.64940  0.37141  1.0000
  H   H385      1.0  0.64236  0.40290  0.38848  1.0000
  H   H386      1.0  0.60764  0.84710  0.38848  1.0000
  H   H387      1.0  0.60764  0.40290  0.86152  1.0000
  H   H388      1.0  0.64236  0.84710  0.86152  1.0000
  H   H389      1.0  0.38848  0.64236  0.40290  1.0000
  H   H390      1.0  0.38848  0.60764  0.84710  1.0000
  H   H391      1.0  0.86152  0.60764  0.40290  1.0000
  H   H392      1.0  0.86152  0.64236  0.84710  1.0000
  H   H393      1.0  0.40290  0.38848  0.64236  1.0000
  H   H394      1.0  0.84710  0.38848  0.60764  1.0000
  H   H395      1.0  0.40290  0.86152  0.60764  1.0000
  H   H396      1.0  0.84710  0.86152  0.64236  1.0000
  H   H397      1.0  0.64236  0.90290  0.88848  1.0000
  H   H398      1.0  0.60764  0.34710  0.88848  1.0000
  H   H399      1.0  0.60764  0.90290  0.36152  1.0000
  H   H400      1.0  0.64236  0.34710  0.36152  1.0000
  H   H401      1.0  0.38848  0.14236  0.90290  1.0000
  H   H402      1.0  0.38848  0.10764  0.34710  1.0000
  H   H403      1.0  0.86152  0.10764  0.90290  1.0000
  H   H404      1.0  0.86152  0.14236  0.34710  1.0000
  H   H405      1.0  0.40290  0.88848  0.14236  1.0000
  H   H406      1.0  0.84710  0.88848  0.10764  1.0000
  H   H407      1.0  0.40290  0.36152  0.10764  1.0000
  H   H408      1.0  0.84710  0.36152  0.14236  1.0000
  H   H409      1.0  0.14236  0.40290  0.88848  1.0000
  H   H410      1.0  0.10764  0.84710  0.88848  1.0000
  H   H411      1.0  0.10764  0.40290  0.36152  1.0000
  H   H412      1.0  0.14236  0.84710  0.36152  1.0000
  H   H413      1.0  0.88848  0.64236  0.90290  1.0000
  H   H414      1.0  0.88848  0.60764  0.34710  1.0000
  H   H415      1.0  0.36152  0.60764  0.90290  1.0000
  H   H416      1.0  0.36152  0.64236  0.34710  1.0000
  H   H417      1.0  0.90290  0.38848  0.14236  1.0000
  H   H418      1.0  0.34710  0.38848  0.10764  1.0000
  H   H419      1.0  0.90290  0.86152  0.10764  1.0000
  H   H420      1.0  0.34710  0.86152  0.14236  1.0000
  H   H421      1.0  0.14236  0.90290  0.38848  1.0000
  H   H422      1.0  0.10764  0.34710  0.38848  1.0000
  H   H423      1.0  0.10764  0.90290  0.86152  1.0000
  H   H424      1.0  0.14236  0.34710  0.86152  1.0000
  H   H425      1.0  0.88848  0.14236  0.40290  1.0000
  H   H426      1.0  0.88848  0.10764  0.84710  1.0000
  H   H427      1.0  0.36152  0.10764  0.40290  1.0000
  H   H428      1.0  0.36152  0.14236  0.84710  1.0000
  H   H429      1.0  0.90290  0.88848  0.64236  1.0000
  H   H430      1.0  0.34710  0.88848  0.60764  1.0000
  H   H431      1.0  0.90290  0.36152  0.60764  1.0000
  H   H432      1.0  0.34710  0.36152  0.64236  1.0000
  H   H433      1.0  0.35764  0.59710  0.61152  1.0000
  H   H434      1.0  0.39236  0.15290  0.61152  1.0000
  H   H435      1.0  0.39236  0.59710  0.13848  1.0000
  H   H436      1.0  0.35764  0.15290  0.13848  1.0000
  H   H437      1.0  0.61152  0.35764  0.59710  1.0000
  H   H438      1.0  0.61152  0.39236  0.15290  1.0000
  H   H439      1.0  0.13848  0.39236  0.59710  1.0000
  H   H440      1.0  0.13848  0.35764  0.15290  1.0000
  H   H441      1.0  0.59710  0.61152  0.35764  1.0000
  H   H442      1.0  0.15290  0.61152  0.39236  1.0000
  H   H443      1.0  0.59710  0.13848  0.39236  1.0000
  H   H444      1.0  0.15290  0.13848  0.35764  1.0000
  H   H445      1.0  0.35764  0.09710  0.11152  1.0000
  H   H446      1.0  0.39236  0.65290  0.11152  1.0000
  H   H447      1.0  0.39236  0.09710  0.63848  1.0000
  H   H448      1.0  0.35764  0.65290  0.63848  1.0000
  H   H449      1.0  0.61152  0.85764  0.09710  1.0000
  H   H450      1.0  0.61152  0.89236  0.65290  1.0000
  H   H451      1.0  0.13848  0.89236  0.09710  1.0000
  H   H452      1.0  0.13848  0.85764  0.65290  1.0000
  H   H453      1.0  0.59710  0.11152  0.85764  1.0000
  H   H454      1.0  0.15290  0.11152  0.89236  1.0000
  H   H455      1.0  0.59710  0.63848  0.89236  1.0000
  H   H456      1.0  0.15290  0.63848  0.85764  1.0000
  H   H457      1.0  0.85764  0.59710  0.11152  1.0000
  H   H458      1.0  0.89236  0.15290  0.11152  1.0000
  H   H459      1.0  0.89236  0.59710  0.63848  1.0000
  H   H460      1.0  0.85764  0.15290  0.63848  1.0000
  H   H461      1.0  0.11152  0.35764  0.09710  1.0000
  H   H462      1.0  0.11152  0.39236  0.65290  1.0000
  H   H463      1.0  0.63848  0.39236  0.09710  1.0000
  H   H464      1.0  0.63848  0.35764  0.65290  1.0000
  H   H465      1.0  0.09710  0.61152  0.85764  1.0000
  H   H466      1.0  0.65290  0.61152  0.89236  1.0000
  H   H467      1.0  0.09710  0.13848  0.89236  1.0000
  H   H468      1.0  0.65290  0.13848  0.85764  1.0000
  H   H469      1.0  0.85764  0.09710  0.61152  1.0000
  H   H470      1.0  0.89236  0.65290  0.61152  1.0000
  H   H471      1.0  0.89236  0.09710  0.13848  1.0000
  H   H472      1.0  0.85764  0.65290  0.13848  1.0000
  H   H473      1.0  0.11152  0.85764  0.59710  1.0000
  H   H474      1.0  0.11152  0.89236  0.15290  1.0000
  H   H475      1.0  0.63848  0.89236  0.59710  1.0000
  H   H476      1.0  0.63848  0.85764  0.15290  1.0000
  H   H477      1.0  0.09710  0.11152  0.35764  1.0000
  H   H478      1.0  0.65290  0.11152  0.39236  1.0000
  H   H479      1.0  0.09710  0.63848  0.39236  1.0000
  H   H480      1.0  0.65290  0.63848  0.35764  1.0000
  C   C1057     1.0  0.65446  0.45618  0.35155  1.0000
  C   C1058     1.0  0.59554  0.79382  0.35155  1.0000
  C   C1059     1.0  0.59554  0.45618  0.89845  1.0000
  C   C1060     1.0  0.65446  0.79382  0.89845  1.0000
  C   C1061     1.0  0.35155  0.65446  0.45618  1.0000
  C   C1062     1.0  0.35155  0.59554  0.79382  1.0000
  C   C1063     1.0  0.89845  0.59554  0.45618  1.0000
  C   C1064     1.0  0.89845  0.65446  0.79382  1.0000
  C   C1065     1.0  0.45618  0.35155  0.65446  1.0000
  C   C1066     1.0  0.79382  0.35155  0.59554  1.0000
  C   C1067     1.0  0.45618  0.89845  0.59554  1.0000
  C   C1068     1.0  0.79382  0.89845  0.65446  1.0000
  C   C1069     1.0  0.65446  0.95618  0.85155  1.0000
  C   C1070     1.0  0.59554  0.29382  0.85155  1.0000
  C   C1071     1.0  0.59554  0.95618  0.39845  1.0000
  C   C1072     1.0  0.65446  0.29382  0.39845  1.0000
  C   C1073     1.0  0.35155  0.15446  0.95618  1.0000
  C   C1074     1.0  0.35155  0.09554  0.29382  1.0000
  C   C1075     1.0  0.89845  0.09554  0.95618  1.0000
  C   C1076     1.0  0.89845  0.15446  0.29382  1.0000
  C   C1077     1.0  0.45618  0.85155  0.15446  1.0000
  C   C1078     1.0  0.79382  0.85155  0.09554  1.0000
  C   C1079     1.0  0.45618  0.39845  0.09554  1.0000
  C   C1080     1.0  0.79382  0.39845  0.15446  1.0000
  C   C1081     1.0  0.15446  0.45618  0.85155  1.0000
  C   C1082     1.0  0.09554  0.79382  0.85155  1.0000
  C   C1083     1.0  0.09554  0.45618  0.39845  1.0000
  C   C1084     1.0  0.15446  0.79382  0.39845  1.0000
  C   C1085     1.0  0.85155  0.65446  0.95618  1.0000
  C   C1086     1.0  0.85155  0.59554  0.29382  1.0000
  C   C1087     1.0  0.39845  0.59554  0.95618  1.0000
  C   C1088     1.0  0.39845  0.65446  0.29382  1.0000
  C   C1089     1.0  0.95618  0.35155  0.15446  1.0000
  C   C1090     1.0  0.29382  0.35155  0.09554  1.0000
  C   C1091     1.0  0.95618  0.89845  0.09554  1.0000
  C   C1092     1.0  0.29382  0.89845  0.15446  1.0000
  C   C1093     1.0  0.15446  0.95618  0.35155  1.0000
  C   C1094     1.0  0.09554  0.29382  0.35155  1.0000
  C   C1095     1.0  0.09554  0.95618  0.89845  1.0000
  C   C1096     1.0  0.15446  0.29382  0.89845  1.0000
  C   C1097     1.0  0.85155  0.15446  0.45618  1.0000
  C   C1098     1.0  0.85155  0.09554  0.79382  1.0000
  C   C1099     1.0  0.39845  0.09554  0.45618  1.0000
  C   C1100     1.0  0.39845  0.15446  0.79382  1.0000
  C   C1101     1.0  0.95618  0.85155  0.65446  1.0000
  C   C1102     1.0  0.29382  0.85155  0.59554  1.0000
  C   C1103     1.0  0.95618  0.39845  0.59554  1.0000
  C   C1104     1.0  0.29382  0.39845  0.65446  1.0000
  C   C1105     1.0  0.34554  0.54382  0.64845  1.0000
  C   C1106     1.0  0.40446  0.20618  0.64845  1.0000
  C   C1107     1.0  0.40446  0.54382  0.10155  1.0000
  C   C1108     1.0  0.34554  0.20618  0.10155  1.0000
  C   C1109     1.0  0.64845  0.34554  0.54382  1.0000
  C   C1110     1.0  0.64845  0.40446  0.20618  1.0000
  C   C1111     1.0  0.10155  0.40446  0.54382  1.0000
  C   C1112     1.0  0.10155  0.34554  0.20618  1.0000
  C   C1113     1.0  0.54382  0.64845  0.34554  1.0000
  C   C1114     1.0  0.20618  0.64845  0.40446  1.0000
  C   C1115     1.0  0.54382  0.10155  0.40446  1.0000
  C   C1116     1.0  0.20618  0.10155  0.34554  1.0000
  C   C1117     1.0  0.34554  0.04382  0.14845  1.0000
  C   C1118     1.0  0.40446  0.70618  0.14845  1.0000
  C   C1119     1.0  0.40446  0.04382  0.60155  1.0000
  C   C1120     1.0  0.34554  0.70618  0.60155  1.0000
  C   C1121     1.0  0.64845  0.84554  0.04382  1.0000
  C   C1122     1.0  0.64845  0.90446  0.70618  1.0000
  C   C1123     1.0  0.10155  0.90446  0.04382  1.0000
  C   C1124     1.0  0.10155  0.84554  0.70618  1.0000
  C   C1125     1.0  0.54382  0.14845  0.84554  1.0000
  C   C1126     1.0  0.20618  0.14845  0.90446  1.0000
  C   C1127     1.0  0.54382  0.60155  0.90446  1.0000
  C   C1128     1.0  0.20618  0.60155  0.84554  1.0000
  C   C1129     1.0  0.84554  0.54382  0.14845  1.0000
  C   C1130     1.0  0.90446  0.20618  0.14845  1.0000
  C   C1131     1.0  0.90446  0.54382  0.60155  1.0000
  C   C1132     1.0  0.84554  0.20618  0.60155  1.0000
  C   C1133     1.0  0.14845  0.34554  0.04382  1.0000
  C   C1134     1.0  0.14845  0.40446  0.70618  1.0000
  C   C1135     1.0  0.60155  0.40446  0.04382  1.0000
  C   C1136     1.0  0.60155  0.34554  0.70618  1.0000
  C   C1137     1.0  0.04382  0.64845  0.84554  1.0000
  C   C1138     1.0  0.70618  0.64845  0.90446  1.0000
  C   C1139     1.0  0.04382  0.10155  0.90446  1.0000
  C   C1140     1.0  0.70618  0.10155  0.84554  1.0000
  C   C1141     1.0  0.84554  0.04382  0.64845  1.0000
  C   C1142     1.0  0.90446  0.70618  0.64845  1.0000
  C   C1143     1.0  0.90446  0.04382  0.10155  1.0000
  C   C1144     1.0  0.84554  0.70618  0.10155  1.0000
  C   C1145     1.0  0.14845  0.84554  0.54382  1.0000
  C   C1146     1.0  0.14845  0.90446  0.20618  1.0000
  C   C1147     1.0  0.60155  0.90446  0.54382  1.0000
  C   C1148     1.0  0.60155  0.84554  0.20618  1.0000
  C   C1149     1.0  0.04382  0.14845  0.34554  1.0000
  C   C1150     1.0  0.70618  0.14845  0.40446  1.0000
  C   C1151     1.0  0.04382  0.60155  0.40446  1.0000
  C   C1152     1.0  0.70618  0.60155  0.34554  1.0000
  C   C1153     1.0  0.61289  0.37327  0.43682  1.0000
  C   C1154     1.0  0.63711  0.87673  0.43682  1.0000
  C   C1155     1.0  0.63711  0.37327  0.81318  1.0000
  C   C1156     1.0  0.61289  0.87673  0.81318  1.0000
  C   C1157     1.0  0.43682  0.61289  0.37327  1.0000
  C   C1158     1.0  0.43682  0.63711  0.87673  1.0000
  C   C1159     1.0  0.81318  0.63711  0.37327  1.0000
  C   C1160     1.0  0.81318  0.61289  0.87673  1.0000
  C   C1161     1.0  0.37327  0.43682  0.61289  1.0000
  C   C1162     1.0  0.87673  0.43682  0.63711  1.0000
  C   C1163     1.0  0.37327  0.81318  0.63711  1.0000
  C   C1164     1.0  0.87673  0.81318  0.61289  1.0000
  C   C1165     1.0  0.61289  0.87327  0.93682  1.0000
  C   C1166     1.0  0.63711  0.37673  0.93682  1.0000
  C   C1167     1.0  0.63711  0.87327  0.31318  1.0000
  C   C1168     1.0  0.61289  0.37673  0.31318  1.0000
  C   C1169     1.0  0.43682  0.11289  0.87327  1.0000
  C   C1170     1.0  0.43682  0.13711  0.37673  1.0000
  C   C1171     1.0  0.81318  0.13711  0.87327  1.0000
  C   C1172     1.0  0.81318  0.11289  0.37673  1.0000
  C   C1173     1.0  0.37327  0.93682  0.11289  1.0000
  C   C1174     1.0  0.87673  0.93682  0.13711  1.0000
  C   C1175     1.0  0.37327  0.31318  0.13711  1.0000
  C   C1176     1.0  0.87673  0.31318  0.11289  1.0000
  C   C1177     1.0  0.11289  0.37327  0.93682  1.0000
  C   C1178     1.0  0.13711  0.87673  0.93682  1.0000
  C   C1179     1.0  0.13711  0.37327  0.31318  1.0000
  C   C1180     1.0  0.11289  0.87673  0.31318  1.0000
  C   C1181     1.0  0.93682  0.61289  0.87327  1.0000
  C   C1182     1.0  0.93682  0.63711  0.37673  1.0000
  C   C1183     1.0  0.31318  0.63711  0.87327  1.0000
  C   C1184     1.0  0.31318  0.61289  0.37673  1.0000
  C   C1185     1.0  0.87327  0.43682  0.11289  1.0000
  C   C1186     1.0  0.37673  0.43682  0.13711  1.0000
  C   C1187     1.0  0.87327  0.81318  0.13711  1.0000
  C   C1188     1.0  0.37673  0.81318  0.11289  1.0000
  C   C1189     1.0  0.11289  0.87327  0.43682  1.0000
  C   C1190     1.0  0.13711  0.37673  0.43682  1.0000
  C   C1191     1.0  0.13711  0.87327  0.81318  1.0000
  C   C1192     1.0  0.11289  0.37673  0.81318  1.0000
  C   C1193     1.0  0.93682  0.11289  0.37327  1.0000
  C   C1194     1.0  0.93682  0.13711  0.87673  1.0000
  C   C1195     1.0  0.31318  0.13711  0.37327  1.0000
  C   C1196     1.0  0.31318  0.11289  0.87673  1.0000
  C   C1197     1.0  0.87327  0.93682  0.61289  1.0000
  C   C1198     1.0  0.37673  0.93682  0.63711  1.0000
  C   C1199     1.0  0.87327  0.31318  0.63711  1.0000
  C   C1200     1.0  0.37673  0.31318  0.61289  1.0000
  C   C1201     1.0  0.38711  0.62673  0.56318  1.0000
  C   C1202     1.0  0.36289  0.12327  0.56318  1.0000
  C   C1203     1.0  0.36289  0.62673  0.18682  1.0000
  C   C1204     1.0  0.38711  0.12327  0.18682  1.0000
  C   C1205     1.0  0.56318  0.38711  0.62673  1.0000
  C   C1206     1.0  0.56318  0.36289  0.12327  1.0000
  C   C1207     1.0  0.18682  0.36289  0.62673  1.0000
  C   C1208     1.0  0.18682  0.38711  0.12327  1.0000
  C   C1209     1.0  0.62673  0.56318  0.38711  1.0000
  C   C1210     1.0  0.12327  0.56318  0.36289  1.0000
  C   C1211     1.0  0.62673  0.18682  0.36289  1.0000
  C   C1212     1.0  0.12327  0.18682  0.38711  1.0000
  C   C1213     1.0  0.38711  0.12673  0.06318  1.0000
  C   C1214     1.0  0.36289  0.62327  0.06318  1.0000
  C   C1215     1.0  0.36289  0.12673  0.68682  1.0000
  C   C1216     1.0  0.38711  0.62327  0.68682  1.0000
  C   C1217     1.0  0.56318  0.88711  0.12673  1.0000
  C   C1218     1.0  0.56318  0.86289  0.62327  1.0000
  C   C1219     1.0  0.18682  0.86289  0.12673  1.0000
  C   C1220     1.0  0.18682  0.88711  0.62327  1.0000
  C   C1221     1.0  0.62673  0.06318  0.88711  1.0000
  C   C1222     1.0  0.12327  0.06318  0.86289  1.0000
  C   C1223     1.0  0.62673  0.68682  0.86289  1.0000
  C   C1224     1.0  0.12327  0.68682  0.88711  1.0000
  C   C1225     1.0  0.88711  0.62673  0.06318  1.0000
  C   C1226     1.0  0.86289  0.12327  0.06318  1.0000
  C   C1227     1.0  0.86289  0.62673  0.68682  1.0000
  C   C1228     1.0  0.88711  0.12327  0.68682  1.0000
  C   C1229     1.0  0.06318  0.38711  0.12673  1.0000
  C   C1230     1.0  0.06318  0.36289  0.62327  1.0000
  C   C1231     1.0  0.68682  0.36289  0.12673  1.0000
  C   C1232     1.0  0.68682  0.38711  0.62327  1.0000
  C   C1233     1.0  0.12673  0.56318  0.88711  1.0000
  C   C1234     1.0  0.62327  0.56318  0.86289  1.0000
  C   C1235     1.0  0.12673  0.18682  0.86289  1.0000
  C   C1236     1.0  0.62327  0.18682  0.88711  1.0000
  C   C1237     1.0  0.88711  0.12673  0.56318  1.0000
  C   C1238     1.0  0.86289  0.62327  0.56318  1.0000
  C   C1239     1.0  0.86289  0.12673  0.18682  1.0000
  C   C1240     1.0  0.88711  0.62327  0.18682  1.0000
  C   C1241     1.0  0.06318  0.88711  0.62673  1.0000
  C   C1242     1.0  0.06318  0.86289  0.12327  1.0000
  C   C1243     1.0  0.68682  0.86289  0.62673  1.0000
  C   C1244     1.0  0.68682  0.88711  0.12327  1.0000
  C   C1245     1.0  0.12673  0.06318  0.38711  1.0000
  C   C1246     1.0  0.62327  0.06318  0.36289  1.0000
  C   C1247     1.0  0.12673  0.68682  0.36289  1.0000
  C   C1248     1.0  0.62327  0.68682  0.38711  1.0000
  C   C1249     1.0  0.61956  0.35566  0.45894  1.0000
  C   C1250     1.0  0.63044  0.89434  0.45894  1.0000
  C   C1251     1.0  0.63044  0.35566  0.79106  1.0000
  C   C1252     1.0  0.61956  0.89434  0.79106  1.0000
  C   C1253     1.0  0.45894  0.61956  0.35566  1.0000
  C   C1254     1.0  0.45894  0.63044  0.89434  1.0000
  C   C1255     1.0  0.79106  0.63044  0.35566  1.0000
  C   C1256     1.0  0.79106  0.61956  0.89434  1.0000
  C   C1257     1.0  0.35566  0.45894  0.61956  1.0000
  C   C1258     1.0  0.89434  0.45894  0.63044  1.0000
  C   C1259     1.0  0.35566  0.79106  0.63044  1.0000
  C   C1260     1.0  0.89434  0.79106  0.61956  1.0000
  C   C1261     1.0  0.61956  0.85566  0.95894  1.0000
  C   C1262     1.0  0.63044  0.39434  0.95894  1.0000
  C   C1263     1.0  0.63044  0.85566  0.29106  1.0000
  C   C1264     1.0  0.61956  0.39434  0.29106  1.0000
  C   C1265     1.0  0.45894  0.11956  0.85566  1.0000
  C   C1266     1.0  0.45894  0.13044  0.39434  1.0000
  C   C1267     1.0  0.79106  0.13044  0.85566  1.0000
  C   C1268     1.0  0.79106  0.11956  0.39434  1.0000
  C   C1269     1.0  0.35566  0.95894  0.11956  1.0000
  C   C1270     1.0  0.89434  0.95894  0.13044  1.0000
  C   C1271     1.0  0.35566  0.29106  0.13044  1.0000
  C   C1272     1.0  0.89434  0.29106  0.11956  1.0000
  C   C1273     1.0  0.11956  0.35566  0.95894  1.0000
  C   C1274     1.0  0.13044  0.89434  0.95894  1.0000
  C   C1275     1.0  0.13044  0.35566  0.29106  1.0000
  C   C1276     1.0  0.11956  0.89434  0.29106  1.0000
  C   C1277     1.0  0.95894  0.61956  0.85566  1.0000
  C   C1278     1.0  0.95894  0.63044  0.39434  1.0000
  C   C1279     1.0  0.29106  0.63044  0.85566  1.0000
  C   C1280     1.0  0.29106  0.61956  0.39434  1.0000
  C   C1281     1.0  0.85566  0.45894  0.11956  1.0000
  C   C1282     1.0  0.39434  0.45894  0.13044  1.0000
  C   C1283     1.0  0.85566  0.79106  0.13044  1.0000
  C   C1284     1.0  0.39434  0.79106  0.11956  1.0000
  C   C1285     1.0  0.11956  0.85566  0.45894  1.0000
  C   C1286     1.0  0.13044  0.39434  0.45894  1.0000
  C   C1287     1.0  0.13044  0.85566  0.79106  1.0000
  C   C1288     1.0  0.11956  0.39434  0.79106  1.0000
  C   C1289     1.0  0.95894  0.11956  0.35566  1.0000
  C   C1290     1.0  0.95894  0.13044  0.89434  1.0000
  C   C1291     1.0  0.29106  0.13044  0.35566  1.0000
  C   C1292     1.0  0.29106  0.11956  0.89434  1.0000
  C   C1293     1.0  0.85566  0.95894  0.61956  1.0000
  C   C1294     1.0  0.39434  0.95894  0.63044  1.0000
  C   C1295     1.0  0.85566  0.29106  0.63044  1.0000
  C   C1296     1.0  0.39434  0.29106  0.61956  1.0000
  C   C1297     1.0  0.38044  0.64434  0.54106  1.0000
  C   C1298     1.0  0.36956  0.10566  0.54106  1.0000
  C   C1299     1.0  0.36956  0.64434  0.20894  1.0000
  C   C1300     1.0  0.38044  0.10566  0.20894  1.0000
  C   C1301     1.0  0.54106  0.38044  0.64434  1.0000
  C   C1302     1.0  0.54106  0.36956  0.10566  1.0000
  C   C1303     1.0  0.20894  0.36956  0.64434  1.0000
  C   C1304     1.0  0.20894  0.38044  0.10566  1.0000
  C   C1305     1.0  0.64434  0.54106  0.38044  1.0000
  C   C1306     1.0  0.10566  0.54106  0.36956  1.0000
  C   C1307     1.0  0.64434  0.20894  0.36956  1.0000
  C   C1308     1.0  0.10566  0.20894  0.38044  1.0000
  C   C1309     1.0  0.38044  0.14434  0.04106  1.0000
  C   C1310     1.0  0.36956  0.60566  0.04106  1.0000
  C   C1311     1.0  0.36956  0.14434  0.70894  1.0000
  C   C1312     1.0  0.38044  0.60566  0.70894  1.0000
  C   C1313     1.0  0.54106  0.88044  0.14434  1.0000
  C   C1314     1.0  0.54106  0.86956  0.60566  1.0000
  C   C1315     1.0  0.20894  0.86956  0.14434  1.0000
  C   C1316     1.0  0.20894  0.88044  0.60566  1.0000
  C   C1317     1.0  0.64434  0.04106  0.88044  1.0000
  C   C1318     1.0  0.10566  0.04106  0.86956  1.0000
  C   C1319     1.0  0.64434  0.70894  0.86956  1.0000
  C   C1320     1.0  0.10566  0.70894  0.88044  1.0000
  C   C1321     1.0  0.88044  0.64434  0.04106  1.0000
  C   C1322     1.0  0.86956  0.10566  0.04106  1.0000
  C   C1323     1.0  0.86956  0.64434  0.70894  1.0000
  C   C1324     1.0  0.88044  0.10566  0.70894  1.0000
  C   C1325     1.0  0.04106  0.38044  0.14434  1.0000
  C   C1326     1.0  0.04106  0.36956  0.60566  1.0000
  C   C1327     1.0  0.70894  0.36956  0.14434  1.0000
  C   C1328     1.0  0.70894  0.38044  0.60566  1.0000
  C   C1329     1.0  0.14434  0.54106  0.88044  1.0000
  C   C1330     1.0  0.60566  0.54106  0.86956  1.0000
  C   C1331     1.0  0.14434  0.20894  0.86956  1.0000
  C   C1332     1.0  0.60566  0.20894  0.88044  1.0000
  C   C1333     1.0  0.88044  0.14434  0.54106  1.0000
  C   C1334     1.0  0.86956  0.60566  0.54106  1.0000
  C   C1335     1.0  0.86956  0.14434  0.20894  1.0000
  C   C1336     1.0  0.88044  0.60566  0.20894  1.0000
  C   C1337     1.0  0.04106  0.88044  0.64434  1.0000
  C   C1338     1.0  0.04106  0.86956  0.10566  1.0000
  C   C1339     1.0  0.70894  0.86956  0.64434  1.0000
  C   C1340     1.0  0.70894  0.88044  0.10566  1.0000
  C   C1341     1.0  0.14434  0.04106  0.38044  1.0000
  C   C1342     1.0  0.60566  0.04106  0.36956  1.0000
  C   C1343     1.0  0.14434  0.70894  0.36956  1.0000
  C   C1344     1.0  0.60566  0.70894  0.38044  1.0000
  C   C1345     1.0  0.75119  0.57529  0.38303  1.0000
  C   C1346     1.0  0.49881  0.67471  0.38303  1.0000
  C   C1347     1.0  0.49881  0.57529  0.86697  1.0000
  C   C1348     1.0  0.75119  0.67471  0.86697  1.0000
  C   C1349     1.0  0.38303  0.75119  0.57529  1.0000
  C   C1350     1.0  0.38303  0.49881  0.67471  1.0000
  C   C1351     1.0  0.86697  0.49881  0.57529  1.0000
  C   C1352     1.0  0.86697  0.75119  0.67471  1.0000
  C   C1353     1.0  0.57529  0.38303  0.75119  1.0000
  C   C1354     1.0  0.67471  0.38303  0.49881  1.0000
  C   C1355     1.0  0.57529  0.86697  0.49881  1.0000
  C   C1356     1.0  0.67471  0.86697  0.75119  1.0000
  C   C1357     1.0  0.75119  0.07529  0.88303  1.0000
  C   C1358     1.0  0.49881  0.17471  0.88303  1.0000
  C   C1359     1.0  0.49881  0.07529  0.36697  1.0000
  C   C1360     1.0  0.75119  0.17471  0.36697  1.0000
  C   C1361     1.0  0.38303  0.25119  0.07529  1.0000
  C   C1362     1.0  0.38303  0.99881  0.17471  1.0000
  C   C1363     1.0  0.86697  0.99881  0.07529  1.0000
  C   C1364     1.0  0.86697  0.25119  0.17471  1.0000
  C   C1365     1.0  0.57529  0.88303  0.25119  1.0000
  C   C1366     1.0  0.67471  0.88303  0.99881  1.0000
  C   C1367     1.0  0.57529  0.36697  0.99881  1.0000
  C   C1368     1.0  0.67471  0.36697  0.25119  1.0000
  C   C1369     1.0  0.25119  0.57529  0.88303  1.0000
  C   C1370     1.0  0.99881  0.67471  0.88303  1.0000
  C   C1371     1.0  0.99881  0.57529  0.36697  1.0000
  C   C1372     1.0  0.25119  0.67471  0.36697  1.0000
  C   C1373     1.0  0.88303  0.75119  0.07529  1.0000
  C   C1374     1.0  0.88303  0.49881  0.17471  1.0000
  C   C1375     1.0  0.36697  0.49881  0.07529  1.0000
  C   C1376     1.0  0.36697  0.75119  0.17471  1.0000
  C   C1377     1.0  0.07529  0.38303  0.25119  1.0000
  C   C1378     1.0  0.17471  0.38303  0.99881  1.0000
  C   C1379     1.0  0.07529  0.86697  0.99881  1.0000
  C   C1380     1.0  0.17471  0.86697  0.25119  1.0000
  C   C1381     1.0  0.25119  0.07529  0.38303  1.0000
  C   C1382     1.0  0.99881  0.17471  0.38303  1.0000
  C   C1383     1.0  0.99881  0.07529  0.86697  1.0000
  C   C1384     1.0  0.25119  0.17471  0.86697  1.0000
  C   C1385     1.0  0.88303  0.25119  0.57529  1.0000
  C   C1386     1.0  0.88303  0.99881  0.67471  1.0000
  C   C1387     1.0  0.36697  0.99881  0.57529  1.0000
  C   C1388     1.0  0.36697  0.25119  0.67471  1.0000
  C   C1389     1.0  0.07529  0.88303  0.75119  1.0000
  C   C1390     1.0  0.17471  0.88303  0.49881  1.0000
  C   C1391     1.0  0.07529  0.36697  0.49881  1.0000
  C   C1392     1.0  0.17471  0.36697  0.75119  1.0000
  C   C1393     1.0  0.24881  0.42471  0.61697  1.0000
  C   C1394     1.0  0.50119  0.32529  0.61697  1.0000
  C   C1395     1.0  0.50119  0.42471  0.13303  1.0000
  C   C1396     1.0  0.24881  0.32529  0.13303  1.0000
  C   C1397     1.0  0.61697  0.24881  0.42471  1.0000
  C   C1398     1.0  0.61697  0.50119  0.32529  1.0000
  C   C1399     1.0  0.13303  0.50119  0.42471  1.0000
  C   C1400     1.0  0.13303  0.24881  0.32529  1.0000
  C   C1401     1.0  0.42471  0.61697  0.24881  1.0000
  C   C1402     1.0  0.32529  0.61697  0.50119  1.0000
  C   C1403     1.0  0.42471  0.13303  0.50119  1.0000
  C   C1404     1.0  0.32529  0.13303  0.24881  1.0000
  C   C1405     1.0  0.24881  0.92471  0.11697  1.0000
  C   C1406     1.0  0.50119  0.82529  0.11697  1.0000
  C   C1407     1.0  0.50119  0.92471  0.63303  1.0000
  C   C1408     1.0  0.24881  0.82529  0.63303  1.0000
  C   C1409     1.0  0.61697  0.74881  0.92471  1.0000
  C   C1410     1.0  0.61697  0.00119  0.82529  1.0000
  C   C1411     1.0  0.13303  0.00119  0.92471  1.0000
  C   C1412     1.0  0.13303  0.74881  0.82529  1.0000
  C   C1413     1.0  0.42471  0.11697  0.74881  1.0000
  C   C1414     1.0  0.32529  0.11697  0.00119  1.0000
  C   C1415     1.0  0.42471  0.63303  0.00119  1.0000
  C   C1416     1.0  0.32529  0.63303  0.74881  1.0000
  C   C1417     1.0  0.74881  0.42471  0.11697  1.0000
  C   C1418     1.0  0.00119  0.32529  0.11697  1.0000
  C   C1419     1.0  0.00119  0.42471  0.63303  1.0000
  C   C1420     1.0  0.74881  0.32529  0.63303  1.0000
  C   C1421     1.0  0.11697  0.24881  0.92471  1.0000
  C   C1422     1.0  0.11697  0.50119  0.82529  1.0000
  C   C1423     1.0  0.63303  0.50119  0.92471  1.0000
  C   C1424     1.0  0.63303  0.24881  0.82529  1.0000
  C   C1425     1.0  0.92471  0.61697  0.74881  1.0000
  C   C1426     1.0  0.82529  0.61697  0.00119  1.0000
  C   C1427     1.0  0.92471  0.13303  0.00119  1.0000
  C   C1428     1.0  0.82529  0.13303  0.74881  1.0000
  C   C1429     1.0  0.74881  0.92471  0.61697  1.0000
  C   C1430     1.0  0.00119  0.82529  0.61697  1.0000
  C   C1431     1.0  0.00119  0.92471  0.13303  1.0000
  C   C1432     1.0  0.74881  0.82529  0.13303  1.0000
  C   C1433     1.0  0.11697  0.74881  0.42471  1.0000
  C   C1434     1.0  0.11697  0.00119  0.32529  1.0000
  C   C1435     1.0  0.63303  0.00119  0.42471  1.0000
  C   C1436     1.0  0.63303  0.74881  0.32529  1.0000
  C   C1437     1.0  0.92471  0.11697  0.24881  1.0000
  C   C1438     1.0  0.82529  0.11697  0.50119  1.0000
  C   C1439     1.0  0.92471  0.63303  0.50119  1.0000
  C   C1440     1.0  0.82529  0.63303  0.24881  1.0000
  H   H481      1.0  0.73953  0.58874  0.39033  1.0000
  H   H482      1.0  0.51047  0.66126  0.39033  1.0000
  H   H483      1.0  0.51047  0.58874  0.85967  1.0000
  H   H484      1.0  0.73953  0.66126  0.85967  1.0000
  H   H485      1.0  0.39033  0.73953  0.58874  1.0000
  H   H486      1.0  0.39033  0.51047  0.66126  1.0000
  H   H487      1.0  0.85967  0.51047  0.58874  1.0000
  H   H488      1.0  0.85967  0.73953  0.66126  1.0000
  H   H489      1.0  0.58874  0.39033  0.73953  1.0000
  H   H490      1.0  0.66126  0.39033  0.51047  1.0000
  H   H491      1.0  0.58874  0.85967  0.51047  1.0000
  H   H492      1.0  0.66126  0.85967  0.73953  1.0000
  H   H493      1.0  0.73953  0.08874  0.89033  1.0000
  H   H494      1.0  0.51047  0.16126  0.89033  1.0000
  H   H495      1.0  0.51047  0.08874  0.35967  1.0000
  H   H496      1.0  0.73953  0.16126  0.35967  1.0000
  H   H497      1.0  0.39033  0.23953  0.08874  1.0000
  H   H498      1.0  0.39033  0.01047  0.16126  1.0000
  H   H499      1.0  0.85967  0.01047  0.08874  1.0000
  H   H500      1.0  0.85967  0.23953  0.16126  1.0000
  H   H501      1.0  0.58874  0.89033  0.23953  1.0000
  H   H502      1.0  0.66126  0.89033  0.01047  1.0000
  H   H503      1.0  0.58874  0.35967  0.01047  1.0000
  H   H504      1.0  0.66126  0.35967  0.23953  1.0000
  H   H505      1.0  0.23953  0.58874  0.89033  1.0000
  H   H506      1.0  0.01047  0.66126  0.89033  1.0000
  H   H507      1.0  0.01047  0.58874  0.35967  1.0000
  H   H508      1.0  0.23953  0.66126  0.35967  1.0000
  H   H509      1.0  0.89033  0.73953  0.08874  1.0000
  H   H510      1.0  0.89033  0.51047  0.16126  1.0000
  H   H511      1.0  0.35967  0.51047  0.08874  1.0000
  H   H512      1.0  0.35967  0.73953  0.16126  1.0000
  H   H513      1.0  0.08874  0.39033  0.23953  1.0000
  H   H514      1.0  0.16126  0.39033  0.01047  1.0000
  H   H515      1.0  0.08874  0.85967  0.01047  1.0000
  H   H516      1.0  0.16126  0.85967  0.23953  1.0000
  H   H517      1.0  0.23953  0.08874  0.39033  1.0000
  H   H518      1.0  0.01047  0.16126  0.39033  1.0000
  H   H519      1.0  0.01047  0.08874  0.85967  1.0000
  H   H520      1.0  0.23953  0.16126  0.85967  1.0000
  H   H521      1.0  0.89033  0.23953  0.58874  1.0000
  H   H522      1.0  0.89033  0.01047  0.66126  1.0000
  H   H523      1.0  0.35967  0.01047  0.58874  1.0000
  H   H524      1.0  0.35967  0.23953  0.66126  1.0000
  H   H525      1.0  0.08874  0.89033  0.73953  1.0000
  H   H526      1.0  0.16126  0.89033  0.51047  1.0000
  H   H527      1.0  0.08874  0.35967  0.51047  1.0000
  H   H528      1.0  0.16126  0.35967  0.73953  1.0000
  H   H529      1.0  0.26047  0.41126  0.60967  1.0000
  H   H530      1.0  0.48953  0.33874  0.60967  1.0000
  H   H531      1.0  0.48953  0.41126  0.14033  1.0000
  H   H532      1.0  0.26047  0.33874  0.14033  1.0000
  H   H533      1.0  0.60967  0.26047  0.41126  1.0000
  H   H534      1.0  0.60967  0.48953  0.33874  1.0000
  H   H535      1.0  0.14033  0.48953  0.41126  1.0000
  H   H536      1.0  0.14033  0.26047  0.33874  1.0000
  H   H537      1.0  0.41126  0.60967  0.26047  1.0000
  H   H538      1.0  0.33874  0.60967  0.48953  1.0000
  H   H539      1.0  0.41126  0.14033  0.48953  1.0000
  H   H540      1.0  0.33874  0.14033  0.26047  1.0000
  H   H541      1.0  0.26047  0.91126  0.10967  1.0000
  H   H542      1.0  0.48953  0.83874  0.10967  1.0000
  H   H543      1.0  0.48953  0.91126  0.64033  1.0000
  H   H544      1.0  0.26047  0.83874  0.64033  1.0000
  H   H545      1.0  0.60967  0.76047  0.91126  1.0000
  H   H546      1.0  0.60967  0.98953  0.83874  1.0000
  H   H547      1.0  0.14033  0.98953  0.91126  1.0000
  H   H548      1.0  0.14033  0.76047  0.83874  1.0000
  H   H549      1.0  0.41126  0.10967  0.76047  1.0000
  H   H550      1.0  0.33874  0.10967  0.98953  1.0000
  H   H551      1.0  0.41126  0.64033  0.98953  1.0000
  H   H552      1.0  0.33874  0.64033  0.76047  1.0000
  H   H553      1.0  0.76047  0.41126  0.10967  1.0000
  H   H554      1.0  0.98953  0.33874  0.10967  1.0000
  H   H555      1.0  0.98953  0.41126  0.64033  1.0000
  H   H556      1.0  0.76047  0.33874  0.64033  1.0000
  H   H557      1.0  0.10967  0.26047  0.91126  1.0000
  H   H558      1.0  0.10967  0.48953  0.83874  1.0000
  H   H559      1.0  0.64033  0.48953  0.91126  1.0000
  H   H560      1.0  0.64033  0.26047  0.83874  1.0000
  H   H561      1.0  0.91126  0.60967  0.76047  1.0000
  H   H562      1.0  0.83874  0.60967  0.98953  1.0000
  H   H563      1.0  0.91126  0.14033  0.98953  1.0000
  H   H564      1.0  0.83874  0.14033  0.76047  1.0000
  H   H565      1.0  0.76047  0.91126  0.60967  1.0000
  H   H566      1.0  0.98953  0.83874  0.60967  1.0000
  H   H567      1.0  0.98953  0.91126  0.14033  1.0000
  H   H568      1.0  0.76047  0.83874  0.14033  1.0000
  H   H569      1.0  0.10967  0.76047  0.41126  1.0000
  H   H570      1.0  0.10967  0.98953  0.33874  1.0000
  H   H571      1.0  0.64033  0.98953  0.41126  1.0000
  H   H572      1.0  0.64033  0.76047  0.33874  1.0000
  H   H573      1.0  0.91126  0.10967  0.26047  1.0000
  H   H574      1.0  0.83874  0.10967  0.48953  1.0000
  H   H575      1.0  0.91126  0.64033  0.48953  1.0000
  H   H576      1.0  0.83874  0.64033  0.26047  1.0000
  H   H577      1.0  0.75896  0.58235  0.36692  1.0000
  H   H578      1.0  0.49104  0.66765  0.36692  1.0000
  H   H579      1.0  0.49104  0.58235  0.88308  1.0000
  H   H580      1.0  0.75896  0.66765  0.88308  1.0000
  H   H581      1.0  0.36692  0.75896  0.58235  1.0000
  H   H582      1.0  0.36692  0.49104  0.66765  1.0000
  H   H583      1.0  0.88308  0.49104  0.58235  1.0000
  H   H584      1.0  0.88308  0.75896  0.66765  1.0000
  H   H585      1.0  0.58235  0.36692  0.75896  1.0000
  H   H586      1.0  0.66765  0.36692  0.49104  1.0000
  H   H587      1.0  0.58235  0.88308  0.49104  1.0000
  H   H588      1.0  0.66765  0.88308  0.75896  1.0000
  H   H589      1.0  0.75896  0.08235  0.86692  1.0000
  H   H590      1.0  0.49104  0.16765  0.86692  1.0000
  H   H591      1.0  0.49104  0.08235  0.38308  1.0000
  H   H592      1.0  0.75896  0.16765  0.38308  1.0000
  H   H593      1.0  0.36692  0.25896  0.08235  1.0000
  H   H594      1.0  0.36692  0.99104  0.16765  1.0000
  H   H595      1.0  0.88308  0.99104  0.08235  1.0000
  H   H596      1.0  0.88308  0.25896  0.16765  1.0000
  H   H597      1.0  0.58235  0.86692  0.25896  1.0000
  H   H598      1.0  0.66765  0.86692  0.99104  1.0000
  H   H599      1.0  0.58235  0.38308  0.99104  1.0000
  H   H600      1.0  0.66765  0.38308  0.25896  1.0000
  H   H601      1.0  0.25896  0.58235  0.86692  1.0000
  H   H602      1.0  0.99104  0.66765  0.86692  1.0000
  H   H603      1.0  0.99104  0.58235  0.38308  1.0000
  H   H604      1.0  0.25896  0.66765  0.38308  1.0000
  H   H605      1.0  0.86692  0.75896  0.08235  1.0000
  H   H606      1.0  0.86692  0.49104  0.16765  1.0000
  H   H607      1.0  0.38308  0.49104  0.08235  1.0000
  H   H608      1.0  0.38308  0.75896  0.16765  1.0000
  H   H609      1.0  0.08235  0.36692  0.25896  1.0000
  H   H610      1.0  0.16765  0.36692  0.99104  1.0000
  H   H611      1.0  0.08235  0.88308  0.99104  1.0000
  H   H612      1.0  0.16765  0.88308  0.25896  1.0000
  H   H613      1.0  0.25896  0.08235  0.36692  1.0000
  H   H614      1.0  0.99104  0.16765  0.36692  1.0000
  H   H615      1.0  0.99104  0.08235  0.88308  1.0000
  H   H616      1.0  0.25896  0.16765  0.88308  1.0000
  H   H617      1.0  0.86692  0.25896  0.58235  1.0000
  H   H618      1.0  0.86692  0.99104  0.66765  1.0000
  H   H619      1.0  0.38308  0.99104  0.58235  1.0000
  H   H620      1.0  0.38308  0.25896  0.66765  1.0000
  H   H621      1.0  0.08235  0.86692  0.75896  1.0000
  H   H622      1.0  0.16765  0.86692  0.49104  1.0000
  H   H623      1.0  0.08235  0.38308  0.49104  1.0000
  H   H624      1.0  0.16765  0.38308  0.75896  1.0000
  H   H625      1.0  0.24104  0.41765  0.63308  1.0000
  H   H626      1.0  0.50896  0.33235  0.63308  1.0000
  H   H627      1.0  0.50896  0.41765  0.11692  1.0000
  H   H628      1.0  0.24104  0.33235  0.11692  1.0000
  H   H629      1.0  0.63308  0.24104  0.41765  1.0000
  H   H630      1.0  0.63308  0.50896  0.33235  1.0000
  H   H631      1.0  0.11692  0.50896  0.41765  1.0000
  H   H632      1.0  0.11692  0.24104  0.33235  1.0000
  H   H633      1.0  0.41765  0.63308  0.24104  1.0000
  H   H634      1.0  0.33235  0.63308  0.50896  1.0000
  H   H635      1.0  0.41765  0.11692  0.50896  1.0000
  H   H636      1.0  0.33235  0.11692  0.24104  1.0000
  H   H637      1.0  0.24104  0.91765  0.13308  1.0000
  H   H638      1.0  0.50896  0.83235  0.13308  1.0000
  H   H639      1.0  0.50896  0.91765  0.61692  1.0000
  H   H640      1.0  0.24104  0.83235  0.61692  1.0000
  H   H641      1.0  0.63308  0.74104  0.91765  1.0000
  H   H642      1.0  0.63308  0.00896  0.83235  1.0000
  H   H643      1.0  0.11692  0.00896  0.91765  1.0000
  H   H644      1.0  0.11692  0.74104  0.83235  1.0000
  H   H645      1.0  0.41765  0.13308  0.74104  1.0000
  H   H646      1.0  0.33235  0.13308  0.00896  1.0000
  H   H647      1.0  0.41765  0.61692  0.00896  1.0000
  H   H648      1.0  0.33235  0.61692  0.74104  1.0000
  H   H649      1.0  0.74104  0.41765  0.13308  1.0000
  H   H650      1.0  0.00896  0.33235  0.13308  1.0000
  H   H651      1.0  0.00896  0.41765  0.61692  1.0000
  H   H652      1.0  0.74104  0.33235  0.61692  1.0000
  H   H653      1.0  0.13308  0.24104  0.91765  1.0000
  H   H654      1.0  0.13308  0.50896  0.83235  1.0000
  H   H655      1.0  0.61692  0.50896  0.91765  1.0000
  H   H656      1.0  0.61692  0.24104  0.83235  1.0000
  H   H657      1.0  0.91765  0.63308  0.74104  1.0000
  H   H658      1.0  0.83235  0.63308  0.00896  1.0000
  H   H659      1.0  0.91765  0.11692  0.00896  1.0000
  H   H660      1.0  0.83235  0.11692  0.74104  1.0000
  H   H661      1.0  0.74104  0.91765  0.63308  1.0000
  H   H662      1.0  0.00896  0.83235  0.63308  1.0000
  H   H663      1.0  0.00896  0.91765  0.11692  1.0000
  H   H664      1.0  0.74104  0.83235  0.11692  1.0000
  H   H665      1.0  0.13308  0.74104  0.41765  1.0000
  H   H666      1.0  0.13308  0.00896  0.33235  1.0000
  H   H667      1.0  0.61692  0.00896  0.41765  1.0000
  H   H668      1.0  0.61692  0.74104  0.33235  1.0000
  H   H669      1.0  0.91765  0.13308  0.24104  1.0000
  H   H670      1.0  0.83235  0.13308  0.50896  1.0000
  H   H671      1.0  0.91765  0.61692  0.50896  1.0000
  H   H672      1.0  0.83235  0.61692  0.24104  1.0000
  C   C1441     1.0  0.59758  0.42056  0.36995  1.0000
  C   C1442     1.0  0.65242  0.82944  0.36995  1.0000
  C   C1443     1.0  0.65242  0.42056  0.88005  1.0000
  C   C1444     1.0  0.59758  0.82944  0.88005  1.0000
  C   C1445     1.0  0.36995  0.59758  0.42056  1.0000
  C   C1446     1.0  0.36995  0.65242  0.82944  1.0000
  C   C1447     1.0  0.88005  0.65242  0.42056  1.0000
  C   C1448     1.0  0.88005  0.59758  0.82944  1.0000
  C   C1449     1.0  0.42056  0.36995  0.59758  1.0000
  C   C1450     1.0  0.82944  0.36995  0.65242  1.0000
  C   C1451     1.0  0.42056  0.88005  0.65242  1.0000
  C   C1452     1.0  0.82944  0.88005  0.59758  1.0000
  C   C1453     1.0  0.59758  0.92056  0.86995  1.0000
  C   C1454     1.0  0.65242  0.32944  0.86995  1.0000
  C   C1455     1.0  0.65242  0.92056  0.38005  1.0000
  C   C1456     1.0  0.59758  0.32944  0.38005  1.0000
  C   C1457     1.0  0.36995  0.09758  0.92056  1.0000
  C   C1458     1.0  0.36995  0.15242  0.32944  1.0000
  C   C1459     1.0  0.88005  0.15242  0.92056  1.0000
  C   C1460     1.0  0.88005  0.09758  0.32944  1.0000
  C   C1461     1.0  0.42056  0.86995  0.09758  1.0000
  C   C1462     1.0  0.82944  0.86995  0.15242  1.0000
  C   C1463     1.0  0.42056  0.38005  0.15242  1.0000
  C   C1464     1.0  0.82944  0.38005  0.09758  1.0000
  C   C1465     1.0  0.09758  0.42056  0.86995  1.0000
  C   C1466     1.0  0.15242  0.82944  0.86995  1.0000
  C   C1467     1.0  0.15242  0.42056  0.38005  1.0000
  C   C1468     1.0  0.09758  0.82944  0.38005  1.0000
  C   C1469     1.0  0.86995  0.59758  0.92056  1.0000
  C   C1470     1.0  0.86995  0.65242  0.32944  1.0000
  C   C1471     1.0  0.38005  0.65242  0.92056  1.0000
  C   C1472     1.0  0.38005  0.59758  0.32944  1.0000
  C   C1473     1.0  0.92056  0.36995  0.09758  1.0000
  C   C1474     1.0  0.32944  0.36995  0.15242  1.0000
  C   C1475     1.0  0.92056  0.88005  0.15242  1.0000
  C   C1476     1.0  0.32944  0.88005  0.09758  1.0000
  C   C1477     1.0  0.09758  0.92056  0.36995  1.0000
  C   C1478     1.0  0.15242  0.32944  0.36995  1.0000
  C   C1479     1.0  0.15242  0.92056  0.88005  1.0000
  C   C1480     1.0  0.09758  0.32944  0.88005  1.0000
  C   C1481     1.0  0.86995  0.09758  0.42056  1.0000
  C   C1482     1.0  0.86995  0.15242  0.82944  1.0000
  C   C1483     1.0  0.38005  0.15242  0.42056  1.0000
  C   C1484     1.0  0.38005  0.09758  0.82944  1.0000
  C   C1485     1.0  0.92056  0.86995  0.59758  1.0000
  C   C1486     1.0  0.32944  0.86995  0.65242  1.0000
  C   C1487     1.0  0.92056  0.38005  0.65242  1.0000
  C   C1488     1.0  0.32944  0.38005  0.59758  1.0000
  C   C1489     1.0  0.40242  0.57944  0.63005  1.0000
  C   C1490     1.0  0.34758  0.17056  0.63005  1.0000
  C   C1491     1.0  0.34758  0.57944  0.11995  1.0000
  C   C1492     1.0  0.40242  0.17056  0.11995  1.0000
  C   C1493     1.0  0.63005  0.40242  0.57944  1.0000
  C   C1494     1.0  0.63005  0.34758  0.17056  1.0000
  C   C1495     1.0  0.11995  0.34758  0.57944  1.0000
  C   C1496     1.0  0.11995  0.40242  0.17056  1.0000
  C   C1497     1.0  0.57944  0.63005  0.40242  1.0000
  C   C1498     1.0  0.17056  0.63005  0.34758  1.0000
  C   C1499     1.0  0.57944  0.11995  0.34758  1.0000
  C   C1500     1.0  0.17056  0.11995  0.40242  1.0000
  C   C1501     1.0  0.40242  0.07944  0.13005  1.0000
  C   C1502     1.0  0.34758  0.67056  0.13005  1.0000
  C   C1503     1.0  0.34758  0.07944  0.61995  1.0000
  C   C1504     1.0  0.40242  0.67056  0.61995  1.0000
  C   C1505     1.0  0.63005  0.90242  0.07944  1.0000
  C   C1506     1.0  0.63005  0.84758  0.67056  1.0000
  C   C1507     1.0  0.11995  0.84758  0.07944  1.0000
  C   C1508     1.0  0.11995  0.90242  0.67056  1.0000
  C   C1509     1.0  0.57944  0.13005  0.90242  1.0000
  C   C1510     1.0  0.17056  0.13005  0.84758  1.0000
  C   C1511     1.0  0.57944  0.61995  0.84758  1.0000
  C   C1512     1.0  0.17056  0.61995  0.90242  1.0000
  C   C1513     1.0  0.90242  0.57944  0.13005  1.0000
  C   C1514     1.0  0.84758  0.17056  0.13005  1.0000
  C   C1515     1.0  0.84758  0.57944  0.61995  1.0000
  C   C1516     1.0  0.90242  0.17056  0.61995  1.0000
  C   C1517     1.0  0.13005  0.40242  0.07944  1.0000
  C   C1518     1.0  0.13005  0.34758  0.67056  1.0000
  C   C1519     1.0  0.61995  0.34758  0.07944  1.0000
  C   C1520     1.0  0.61995  0.40242  0.67056  1.0000
  C   C1521     1.0  0.07944  0.63005  0.90242  1.0000
  C   C1522     1.0  0.67056  0.63005  0.84758  1.0000
  C   C1523     1.0  0.07944  0.11995  0.84758  1.0000
  C   C1524     1.0  0.67056  0.11995  0.90242  1.0000
  C   C1525     1.0  0.90242  0.07944  0.63005  1.0000
  C   C1526     1.0  0.84758  0.67056  0.63005  1.0000
  C   C1527     1.0  0.84758  0.07944  0.11995  1.0000
  C   C1528     1.0  0.90242  0.67056  0.11995  1.0000
  C   C1529     1.0  0.13005  0.90242  0.57944  1.0000
  C   C1530     1.0  0.13005  0.84758  0.17056  1.0000
  C   C1531     1.0  0.61995  0.84758  0.57944  1.0000
  C   C1532     1.0  0.61995  0.90242  0.17056  1.0000
  C   C1533     1.0  0.07944  0.13005  0.40242  1.0000
  C   C1534     1.0  0.67056  0.13005  0.34758  1.0000
  C   C1535     1.0  0.07944  0.61995  0.34758  1.0000
  C   C1536     1.0  0.67056  0.61995  0.40242  1.0000
  H   H673      1.0  0.59450  0.40876  0.35507  1.0000
  H   H674      1.0  0.65550  0.84124  0.35507  1.0000
  H   H675      1.0  0.65550  0.40876  0.89493  1.0000
  H   H676      1.0  0.59450  0.84124  0.89493  1.0000
  H   H677      1.0  0.35507  0.59450  0.40876  1.0000
  H   H678      1.0  0.35507  0.65550  0.84124  1.0000
  H   H679      1.0  0.89493  0.65550  0.40876  1.0000
  H   H680      1.0  0.89493  0.59450  0.84124  1.0000
  H   H681      1.0  0.40876  0.35507  0.59450  1.0000
  H   H682      1.0  0.84124  0.35507  0.65550  1.0000
  H   H683      1.0  0.40876  0.89493  0.65550  1.0000
  H   H684      1.0  0.84124  0.89493  0.59450  1.0000
  H   H685      1.0  0.59450  0.90876  0.85507  1.0000
  H   H686      1.0  0.65550  0.34124  0.85507  1.0000
  H   H687      1.0  0.65550  0.90876  0.39493  1.0000
  H   H688      1.0  0.59450  0.34124  0.39493  1.0000
  H   H689      1.0  0.35507  0.09450  0.90876  1.0000
  H   H690      1.0  0.35507  0.15550  0.34124  1.0000
  H   H691      1.0  0.89493  0.15550  0.90876  1.0000
  H   H692      1.0  0.89493  0.09450  0.34124  1.0000
  H   H693      1.0  0.40876  0.85507  0.09450  1.0000
  H   H694      1.0  0.84124  0.85507  0.15550  1.0000
  H   H695      1.0  0.40876  0.39493  0.15550  1.0000
  H   H696      1.0  0.84124  0.39493  0.09450  1.0000
  H   H697      1.0  0.09450  0.40876  0.85507  1.0000
  H   H698      1.0  0.15550  0.84124  0.85507  1.0000
  H   H699      1.0  0.15550  0.40876  0.39493  1.0000
  H   H700      1.0  0.09450  0.84124  0.39493  1.0000
  H   H701      1.0  0.85507  0.59450  0.90876  1.0000
  H   H702      1.0  0.85507  0.65550  0.34124  1.0000
  H   H703      1.0  0.39493  0.65550  0.90876  1.0000
  H   H704      1.0  0.39493  0.59450  0.34124  1.0000
  H   H705      1.0  0.90876  0.35507  0.09450  1.0000
  H   H706      1.0  0.34124  0.35507  0.15550  1.0000
  H   H707      1.0  0.90876  0.89493  0.15550  1.0000
  H   H708      1.0  0.34124  0.89493  0.09450  1.0000
  H   H709      1.0  0.09450  0.90876  0.35507  1.0000
  H   H710      1.0  0.15550  0.34124  0.35507  1.0000
  H   H711      1.0  0.15550  0.90876  0.89493  1.0000
  H   H712      1.0  0.09450  0.34124  0.89493  1.0000
  H   H713      1.0  0.85507  0.09450  0.40876  1.0000
  H   H714      1.0  0.85507  0.15550  0.84124  1.0000
  H   H715      1.0  0.39493  0.15550  0.40876  1.0000
  H   H716      1.0  0.39493  0.09450  0.84124  1.0000
  H   H717      1.0  0.90876  0.85507  0.59450  1.0000
  H   H718      1.0  0.34124  0.85507  0.65550  1.0000
  H   H719      1.0  0.90876  0.39493  0.65550  1.0000
  H   H720      1.0  0.34124  0.39493  0.59450  1.0000
  H   H721      1.0  0.40550  0.59124  0.64493  1.0000
  H   H722      1.0  0.34450  0.15876  0.64493  1.0000
  H   H723      1.0  0.34450  0.59124  0.10507  1.0000
  H   H724      1.0  0.40550  0.15876  0.10507  1.0000
  H   H725      1.0  0.64493  0.40550  0.59124  1.0000
  H   H726      1.0  0.64493  0.34450  0.15876  1.0000
  H   H727      1.0  0.10507  0.34450  0.59124  1.0000
  H   H728      1.0  0.10507  0.40550  0.15876  1.0000
  H   H729      1.0  0.59124  0.64493  0.40550  1.0000
  H   H730      1.0  0.15876  0.64493  0.34450  1.0000
  H   H731      1.0  0.59124  0.10507  0.34450  1.0000
  H   H732      1.0  0.15876  0.10507  0.40550  1.0000
  H   H733      1.0  0.40550  0.09124  0.14493  1.0000
  H   H734      1.0  0.34450  0.65876  0.14493  1.0000
  H   H735      1.0  0.34450  0.09124  0.60507  1.0000
  H   H736      1.0  0.40550  0.65876  0.60507  1.0000
  H   H737      1.0  0.64493  0.90550  0.09124  1.0000
  H   H738      1.0  0.64493  0.84450  0.65876  1.0000
  H   H739      1.0  0.10507  0.84450  0.09124  1.0000
  H   H740      1.0  0.10507  0.90550  0.65876  1.0000
  H   H741      1.0  0.59124  0.14493  0.90550  1.0000
  H   H742      1.0  0.15876  0.14493  0.84450  1.0000
  H   H743      1.0  0.59124  0.60507  0.84450  1.0000
  H   H744      1.0  0.15876  0.60507  0.90550  1.0000
  H   H745      1.0  0.90550  0.59124  0.14493  1.0000
  H   H746      1.0  0.84450  0.15876  0.14493  1.0000
  H   H747      1.0  0.84450  0.59124  0.60507  1.0000
  H   H748      1.0  0.90550  0.15876  0.60507  1.0000
  H   H749      1.0  0.14493  0.40550  0.09124  1.0000
  H   H750      1.0  0.14493  0.34450  0.65876  1.0000
  H   H751      1.0  0.60507  0.34450  0.09124  1.0000
  H   H752      1.0  0.60507  0.40550  0.65876  1.0000
  H   H753      1.0  0.09124  0.64493  0.90550  1.0000
  H   H754      1.0  0.65876  0.64493  0.84450  1.0000
  H   H755      1.0  0.09124  0.10507  0.84450  1.0000
  H   H756      1.0  0.65876  0.10507  0.90550  1.0000
  H   H757      1.0  0.90550  0.09124  0.64493  1.0000
  H   H758      1.0  0.84450  0.65876  0.64493  1.0000
  H   H759      1.0  0.84450  0.09124  0.10507  1.0000
  H   H760      1.0  0.90550  0.65876  0.10507  1.0000
  H   H761      1.0  0.14493  0.90550  0.59124  1.0000
  H   H762      1.0  0.14493  0.84450  0.15876  1.0000
  H   H763      1.0  0.60507  0.84450  0.59124  1.0000
  H   H764      1.0  0.60507  0.90550  0.15876  1.0000
  H   H765      1.0  0.09124  0.14493  0.40550  1.0000
  H   H766      1.0  0.65876  0.14493  0.34450  1.0000
  H   H767      1.0  0.09124  0.60507  0.34450  1.0000
  H   H768      1.0  0.65876  0.60507  0.40550  1.0000
  H   H769      1.0  0.58151  0.43072  0.37290  1.0000
  H   H770      1.0  0.66849  0.81928  0.37290  1.0000
  H   H771      1.0  0.66849  0.43072  0.87710  1.0000
  H   H772      1.0  0.58151  0.81928  0.87710  1.0000
  H   H773      1.0  0.37290  0.58151  0.43072  1.0000
  H   H774      1.0  0.37290  0.66849  0.81928  1.0000
  H   H775      1.0  0.87710  0.66849  0.43072  1.0000
  H   H776      1.0  0.87710  0.58151  0.81928  1.0000
  H   H777      1.0  0.43072  0.37290  0.58151  1.0000
  H   H778      1.0  0.81928  0.37290  0.66849  1.0000
  H   H779      1.0  0.43072  0.87710  0.66849  1.0000
  H   H780      1.0  0.81928  0.87710  0.58151  1.0000
  H   H781      1.0  0.58151  0.93072  0.87290  1.0000
  H   H782      1.0  0.66849  0.31928  0.87290  1.0000
  H   H783      1.0  0.66849  0.93072  0.37710  1.0000
  H   H784      1.0  0.58151  0.31928  0.37710  1.0000
  H   H785      1.0  0.37290  0.08151  0.93072  1.0000
  H   H786      1.0  0.37290  0.16849  0.31928  1.0000
  H   H787      1.0  0.87710  0.16849  0.93072  1.0000
  H   H788      1.0  0.87710  0.08151  0.31928  1.0000
  H   H789      1.0  0.43072  0.87290  0.08151  1.0000
  H   H790      1.0  0.81928  0.87290  0.16849  1.0000
  H   H791      1.0  0.43072  0.37710  0.16849  1.0000
  H   H792      1.0  0.81928  0.37710  0.08151  1.0000
  H   H793      1.0  0.08151  0.43072  0.87290  1.0000
  H   H794      1.0  0.16849  0.81928  0.87290  1.0000
  H   H795      1.0  0.16849  0.43072  0.37710  1.0000
  H   H796      1.0  0.08151  0.81928  0.37710  1.0000
  H   H797      1.0  0.87290  0.58151  0.93072  1.0000
  H   H798      1.0  0.87290  0.66849  0.31928  1.0000
  H   H799      1.0  0.37710  0.66849  0.93072  1.0000
  H   H800      1.0  0.37710  0.58151  0.31928  1.0000
  H   H801      1.0  0.93072  0.37290  0.08151  1.0000
  H   H802      1.0  0.31928  0.37290  0.16849  1.0000
  H   H803      1.0  0.93072  0.87710  0.16849  1.0000
  H   H804      1.0  0.31928  0.87710  0.08151  1.0000
  H   H805      1.0  0.08151  0.93072  0.37290  1.0000
  H   H806      1.0  0.16849  0.31928  0.37290  1.0000
  H   H807      1.0  0.16849  0.93072  0.87710  1.0000
  H   H808      1.0  0.08151  0.31928  0.87710  1.0000
  H   H809      1.0  0.87290  0.08151  0.43072  1.0000
  H   H810      1.0  0.87290  0.16849  0.81928  1.0000
  H   H811      1.0  0.37710  0.16849  0.43072  1.0000
  H   H812      1.0  0.37710  0.08151  0.81928  1.0000
  H   H813      1.0  0.93072  0.87290  0.58151  1.0000
  H   H814      1.0  0.31928  0.87290  0.66849  1.0000
  H   H815      1.0  0.93072  0.37710  0.66849  1.0000
  H   H816      1.0  0.31928  0.37710  0.58151  1.0000
  H   H817      1.0  0.41849  0.56928  0.62710  1.0000
  H   H818      1.0  0.33151  0.18072  0.62710  1.0000
  H   H819      1.0  0.33151  0.56928  0.12290  1.0000
  H   H820      1.0  0.41849  0.18072  0.12290  1.0000
  H   H821      1.0  0.62710  0.41849  0.56928  1.0000
  H   H822      1.0  0.62710  0.33151  0.18072  1.0000
  H   H823      1.0  0.12290  0.33151  0.56928  1.0000
  H   H824      1.0  0.12290  0.41849  0.18072  1.0000
  H   H825      1.0  0.56928  0.62710  0.41849  1.0000
  H   H826      1.0  0.18072  0.62710  0.33151  1.0000
  H   H827      1.0  0.56928  0.12290  0.33151  1.0000
  H   H828      1.0  0.18072  0.12290  0.41849  1.0000
  H   H829      1.0  0.41849  0.06928  0.12710  1.0000
  H   H830      1.0  0.33151  0.68072  0.12710  1.0000
  H   H831      1.0  0.33151  0.06928  0.62290  1.0000
  H   H832      1.0  0.41849  0.68072  0.62290  1.0000
  H   H833      1.0  0.62710  0.91849  0.06928  1.0000
  H   H834      1.0  0.62710  0.83151  0.68072  1.0000
  H   H835      1.0  0.12290  0.83151  0.06928  1.0000
  H   H836      1.0  0.12290  0.91849  0.68072  1.0000
  H   H837      1.0  0.56928  0.12710  0.91849  1.0000
  H   H838      1.0  0.18072  0.12710  0.83151  1.0000
  H   H839      1.0  0.56928  0.62290  0.83151  1.0000
  H   H840      1.0  0.18072  0.62290  0.91849  1.0000
  H   H841      1.0  0.91849  0.56928  0.12710  1.0000
  H   H842      1.0  0.83151  0.18072  0.12710  1.0000
  H   H843      1.0  0.83151  0.56928  0.62290  1.0000
  H   H844      1.0  0.91849  0.18072  0.62290  1.0000
  H   H845      1.0  0.12710  0.41849  0.06928  1.0000
  H   H846      1.0  0.12710  0.33151  0.68072  1.0000
  H   H847      1.0  0.62290  0.33151  0.06928  1.0000
  H   H848      1.0  0.62290  0.41849  0.68072  1.0000
  H   H849      1.0  0.06928  0.62710  0.91849  1.0000
  H   H850      1.0  0.68072  0.62710  0.83151  1.0000
  H   H851      1.0  0.06928  0.12290  0.83151  1.0000
  H   H852      1.0  0.68072  0.12290  0.91849  1.0000
  H   H853      1.0  0.91849  0.06928  0.62710  1.0000
  H   H854      1.0  0.83151  0.68072  0.62710  1.0000
  H   H855      1.0  0.83151  0.06928  0.12290  1.0000
  H   H856      1.0  0.91849  0.68072  0.12290  1.0000
  H   H857      1.0  0.12710  0.91849  0.56928  1.0000
  H   H858      1.0  0.12710  0.83151  0.18072  1.0000
  H   H859      1.0  0.62290  0.83151  0.56928  1.0000
  H   H860      1.0  0.62290  0.91849  0.18072  1.0000
  H   H861      1.0  0.06928  0.12710  0.41849  1.0000
  H   H862      1.0  0.68072  0.12710  0.33151  1.0000
  H   H863      1.0  0.06928  0.62290  0.33151  1.0000
  H   H864      1.0  0.68072  0.62290  0.41849  1.0000
  C   C1537     1.0  0.77240  0.56979  0.40214  1.0000
  C   C1538     1.0  0.47760  0.68021  0.40214  1.0000
  C   C1539     1.0  0.47760  0.56979  0.84786  1.0000
  C   C1540     1.0  0.77240  0.68021  0.84786  1.0000
  C   C1541     1.0  0.40214  0.77240  0.56979  1.0000
  C   C1542     1.0  0.40214  0.47760  0.68021  1.0000
  C   C1543     1.0  0.84786  0.47760  0.56979  1.0000
  C   C1544     1.0  0.84786  0.77240  0.68021  1.0000
  C   C1545     1.0  0.56979  0.40214  0.77240  1.0000
  C   C1546     1.0  0.68021  0.40214  0.47760  1.0000
  C   C1547     1.0  0.56979  0.84786  0.47760  1.0000
  C   C1548     1.0  0.68021  0.84786  0.77240  1.0000
  C   C1549     1.0  0.77240  0.06979  0.90214  1.0000
  C   C1550     1.0  0.47760  0.18021  0.90214  1.0000
  C   C1551     1.0  0.47760  0.06979  0.34786  1.0000
  C   C1552     1.0  0.77240  0.18021  0.34786  1.0000
  C   C1553     1.0  0.40214  0.27240  0.06979  1.0000
  C   C1554     1.0  0.40214  0.97760  0.18021  1.0000
  C   C1555     1.0  0.84786  0.97760  0.06979  1.0000
  C   C1556     1.0  0.84786  0.27240  0.18021  1.0000
  C   C1557     1.0  0.56979  0.90214  0.27240  1.0000
  C   C1558     1.0  0.68021  0.90214  0.97760  1.0000
  C   C1559     1.0  0.56979  0.34786  0.97760  1.0000
  C   C1560     1.0  0.68021  0.34786  0.27240  1.0000
  C   C1561     1.0  0.27240  0.56979  0.90214  1.0000
  C   C1562     1.0  0.97760  0.68021  0.90214  1.0000
  C   C1563     1.0  0.97760  0.56979  0.34786  1.0000
  C   C1564     1.0  0.27240  0.68021  0.34786  1.0000
  C   C1565     1.0  0.90214  0.77240  0.06979  1.0000
  C   C1566     1.0  0.90214  0.47760  0.18021  1.0000
  C   C1567     1.0  0.34786  0.47760  0.06979  1.0000
  C   C1568     1.0  0.34786  0.77240  0.18021  1.0000
  C   C1569     1.0  0.06979  0.40214  0.27240  1.0000
  C   C1570     1.0  0.18021  0.40214  0.97760  1.0000
  C   C1571     1.0  0.06979  0.84786  0.97760  1.0000
  C   C1572     1.0  0.18021  0.84786  0.27240  1.0000
  C   C1573     1.0  0.27240  0.06979  0.40214  1.0000
  C   C1574     1.0  0.97760  0.18021  0.40214  1.0000
  C   C1575     1.0  0.97760  0.06979  0.84786  1.0000
  C   C1576     1.0  0.27240  0.18021  0.84786  1.0000
  C   C1577     1.0  0.90214  0.27240  0.56979  1.0000
  C   C1578     1.0  0.90214  0.97760  0.68021  1.0000
  C   C1579     1.0  0.34786  0.97760  0.56979  1.0000
  C   C1580     1.0  0.34786  0.27240  0.68021  1.0000
  C   C1581     1.0  0.06979  0.90214  0.77240  1.0000
  C   C1582     1.0  0.18021  0.90214  0.47760  1.0000
  C   C1583     1.0  0.06979  0.34786  0.47760  1.0000
  C   C1584     1.0  0.18021  0.34786  0.77240  1.0000
  C   C1585     1.0  0.22760  0.43021  0.59786  1.0000
  C   C1586     1.0  0.52240  0.31979  0.59786  1.0000
  C   C1587     1.0  0.52240  0.43021  0.15214  1.0000
  C   C1588     1.0  0.22760  0.31979  0.15214  1.0000
  C   C1589     1.0  0.59786  0.22760  0.43021  1.0000
  C   C1590     1.0  0.59786  0.52240  0.31979  1.0000
  C   C1591     1.0  0.15214  0.52240  0.43021  1.0000
  C   C1592     1.0  0.15214  0.22760  0.31979  1.0000
  C   C1593     1.0  0.43021  0.59786  0.22760  1.0000
  C   C1594     1.0  0.31979  0.59786  0.52240  1.0000
  C   C1595     1.0  0.43021  0.15214  0.52240  1.0000
  C   C1596     1.0  0.31979  0.15214  0.22760  1.0000
  C   C1597     1.0  0.22760  0.93021  0.09786  1.0000
  C   C1598     1.0  0.52240  0.81979  0.09786  1.0000
  C   C1599     1.0  0.52240  0.93021  0.65214  1.0000
  C   C1600     1.0  0.22760  0.81979  0.65214  1.0000
  C   C1601     1.0  0.59786  0.72760  0.93021  1.0000
  C   C1602     1.0  0.59786  0.02240  0.81979  1.0000
  C   C1603     1.0  0.15214  0.02240  0.93021  1.0000
  C   C1604     1.0  0.15214  0.72760  0.81979  1.0000
  C   C1605     1.0  0.43021  0.09786  0.72760  1.0000
  C   C1606     1.0  0.31979  0.09786  0.02240  1.0000
  C   C1607     1.0  0.43021  0.65214  0.02240  1.0000
  C   C1608     1.0  0.31979  0.65214  0.72760  1.0000
  C   C1609     1.0  0.72760  0.43021  0.09786  1.0000
  C   C1610     1.0  0.02240  0.31979  0.09786  1.0000
  C   C1611     1.0  0.02240  0.43021  0.65214  1.0000
  C   C1612     1.0  0.72760  0.31979  0.65214  1.0000
  C   C1613     1.0  0.09786  0.22760  0.93021  1.0000
  C   C1614     1.0  0.09786  0.52240  0.81979  1.0000
  C   C1615     1.0  0.65214  0.52240  0.93021  1.0000
  C   C1616     1.0  0.65214  0.22760  0.81979  1.0000
  C   C1617     1.0  0.93021  0.59786  0.72760  1.0000
  C   C1618     1.0  0.81979  0.59786  0.02240  1.0000
  C   C1619     1.0  0.93021  0.15214  0.02240  1.0000
  C   C1620     1.0  0.81979  0.15214  0.72760  1.0000
  C   C1621     1.0  0.72760  0.93021  0.59786  1.0000
  C   C1622     1.0  0.02240  0.81979  0.59786  1.0000
  C   C1623     1.0  0.02240  0.93021  0.15214  1.0000
  C   C1624     1.0  0.72760  0.81979  0.15214  1.0000
  C   C1625     1.0  0.09786  0.72760  0.43021  1.0000
  C   C1626     1.0  0.09786  0.02240  0.31979  1.0000
  C   C1627     1.0  0.65214  0.02240  0.43021  1.0000
  C   C1628     1.0  0.65214  0.72760  0.31979  1.0000
  C   C1629     1.0  0.93021  0.09786  0.22760  1.0000
  C   C1630     1.0  0.81979  0.09786  0.52240  1.0000
  C   C1631     1.0  0.93021  0.65214  0.52240  1.0000
  C   C1632     1.0  0.81979  0.65214  0.22760  1.0000
  C   C1633     1.0  0.81396  0.56159  0.43658  1.0000
  C   C1634     1.0  0.43604  0.68841  0.43658  1.0000
  C   C1635     1.0  0.43604  0.56159  0.81342  1.0000
  C   C1636     1.0  0.81396  0.68841  0.81342  1.0000
  C   C1637     1.0  0.43658  0.81396  0.56159  1.0000
  C   C1638     1.0  0.43658  0.43604  0.68841  1.0000
  C   C1639     1.0  0.81342  0.43604  0.56159  1.0000
  C   C1640     1.0  0.81342  0.81396  0.68841  1.0000
  C   C1641     1.0  0.56159  0.43658  0.81396  1.0000
  C   C1642     1.0  0.68841  0.43658  0.43604  1.0000
  C   C1643     1.0  0.56159  0.81342  0.43604  1.0000
  C   C1644     1.0  0.68841  0.81342  0.81396  1.0000
  C   C1645     1.0  0.81396  0.06159  0.93658  1.0000
  C   C1646     1.0  0.43604  0.18841  0.93658  1.0000
  C   C1647     1.0  0.43604  0.06159  0.31342  1.0000
  C   C1648     1.0  0.81396  0.18841  0.31342  1.0000
  C   C1649     1.0  0.43658  0.31396  0.06159  1.0000
  C   C1650     1.0  0.43658  0.93604  0.18841  1.0000
  C   C1651     1.0  0.81342  0.93604  0.06159  1.0000
  C   C1652     1.0  0.81342  0.31396  0.18841  1.0000
  C   C1653     1.0  0.56159  0.93658  0.31396  1.0000
  C   C1654     1.0  0.68841  0.93658  0.93604  1.0000
  C   C1655     1.0  0.56159  0.31342  0.93604  1.0000
  C   C1656     1.0  0.68841  0.31342  0.31396  1.0000
  C   C1657     1.0  0.31396  0.56159  0.93658  1.0000
  C   C1658     1.0  0.93604  0.68841  0.93658  1.0000
  C   C1659     1.0  0.93604  0.56159  0.31342  1.0000
  C   C1660     1.0  0.31396  0.68841  0.31342  1.0000
  C   C1661     1.0  0.93658  0.81396  0.06159  1.0000
  C   C1662     1.0  0.93658  0.43604  0.18841  1.0000
  C   C1663     1.0  0.31342  0.43604  0.06159  1.0000
  C   C1664     1.0  0.31342  0.81396  0.18841  1.0000
  C   C1665     1.0  0.06159  0.43658  0.31396  1.0000
  C   C1666     1.0  0.18841  0.43658  0.93604  1.0000
  C   C1667     1.0  0.06159  0.81342  0.93604  1.0000
  C   C1668     1.0  0.18841  0.81342  0.31396  1.0000
  C   C1669     1.0  0.31396  0.06159  0.43658  1.0000
  C   C1670     1.0  0.93604  0.18841  0.43658  1.0000
  C   C1671     1.0  0.93604  0.06159  0.81342  1.0000
  C   C1672     1.0  0.31396  0.18841  0.81342  1.0000
  C   C1673     1.0  0.93658  0.31396  0.56159  1.0000
  C   C1674     1.0  0.93658  0.93604  0.68841  1.0000
  C   C1675     1.0  0.31342  0.93604  0.56159  1.0000
  C   C1676     1.0  0.31342  0.31396  0.68841  1.0000
  C   C1677     1.0  0.06159  0.93658  0.81396  1.0000
  C   C1678     1.0  0.18841  0.93658  0.43604  1.0000
  C   C1679     1.0  0.06159  0.31342  0.43604  1.0000
  C   C1680     1.0  0.18841  0.31342  0.81396  1.0000
  C   C1681     1.0  0.18604  0.43841  0.56342  1.0000
  C   C1682     1.0  0.56396  0.31159  0.56342  1.0000
  C   C1683     1.0  0.56396  0.43841  0.18658  1.0000
  C   C1684     1.0  0.18604  0.31159  0.18658  1.0000
  C   C1685     1.0  0.56342  0.18604  0.43841  1.0000
  C   C1686     1.0  0.56342  0.56396  0.31159  1.0000
  C   C1687     1.0  0.18658  0.56396  0.43841  1.0000
  C   C1688     1.0  0.18658  0.18604  0.31159  1.0000
  C   C1689     1.0  0.43841  0.56342  0.18604  1.0000
  C   C1690     1.0  0.31159  0.56342  0.56396  1.0000
  C   C1691     1.0  0.43841  0.18658  0.56396  1.0000
  C   C1692     1.0  0.31159  0.18658  0.18604  1.0000
  C   C1693     1.0  0.18604  0.93841  0.06342  1.0000
  C   C1694     1.0  0.56396  0.81159  0.06342  1.0000
  C   C1695     1.0  0.56396  0.93841  0.68658  1.0000
  C   C1696     1.0  0.18604  0.81159  0.68658  1.0000
  C   C1697     1.0  0.56342  0.68604  0.93841  1.0000
  C   C1698     1.0  0.56342  0.06396  0.81159  1.0000
  C   C1699     1.0  0.18658  0.06396  0.93841  1.0000
  C   C1700     1.0  0.18658  0.68604  0.81159  1.0000
  C   C1701     1.0  0.43841  0.06342  0.68604  1.0000
  C   C1702     1.0  0.31159  0.06342  0.06396  1.0000
  C   C1703     1.0  0.43841  0.68658  0.06396  1.0000
  C   C1704     1.0  0.31159  0.68658  0.68604  1.0000
  C   C1705     1.0  0.68604  0.43841  0.06342  1.0000
  C   C1706     1.0  0.06396  0.31159  0.06342  1.0000
  C   C1707     1.0  0.06396  0.43841  0.68658  1.0000
  C   C1708     1.0  0.68604  0.31159  0.68658  1.0000
  C   C1709     1.0  0.06342  0.18604  0.93841  1.0000
  C   C1710     1.0  0.06342  0.56396  0.81159  1.0000
  C   C1711     1.0  0.68658  0.56396  0.93841  1.0000
  C   C1712     1.0  0.68658  0.18604  0.81159  1.0000
  C   C1713     1.0  0.93841  0.56342  0.68604  1.0000
  C   C1714     1.0  0.81159  0.56342  0.06396  1.0000
  C   C1715     1.0  0.93841  0.18658  0.06396  1.0000
  C   C1716     1.0  0.81159  0.18658  0.68604  1.0000
  C   C1717     1.0  0.68604  0.93841  0.56342  1.0000
  C   C1718     1.0  0.06396  0.81159  0.56342  1.0000
  C   C1719     1.0  0.06396  0.93841  0.18658  1.0000
  C   C1720     1.0  0.68604  0.81159  0.18658  1.0000
  C   C1721     1.0  0.06342  0.68604  0.43841  1.0000
  C   C1722     1.0  0.06342  0.06396  0.31159  1.0000
  C   C1723     1.0  0.68658  0.06396  0.43841  1.0000
  C   C1724     1.0  0.68658  0.68604  0.31159  1.0000
  C   C1725     1.0  0.93841  0.06342  0.18604  1.0000
  C   C1726     1.0  0.81159  0.06342  0.56396  1.0000
  C   C1727     1.0  0.93841  0.68658  0.56396  1.0000
  C   C1728     1.0  0.81159  0.68658  0.18604  1.0000
  C   C1729     1.0  0.58396  0.39686  0.41035  1.0000
  C   C1730     1.0  0.66604  0.85314  0.41035  1.0000
  C   C1731     1.0  0.66604  0.39686  0.83965  1.0000
  C   C1732     1.0  0.58396  0.85314  0.83965  1.0000
  C   C1733     1.0  0.41035  0.58396  0.39686  1.0000
  C   C1734     1.0  0.41035  0.66604  0.85314  1.0000
  C   C1735     1.0  0.83965  0.66604  0.39686  1.0000
  C   C1736     1.0  0.83965  0.58396  0.85314  1.0000
  C   C1737     1.0  0.39686  0.41035  0.58396  1.0000
  C   C1738     1.0  0.85314  0.41035  0.66604  1.0000
  C   C1739     1.0  0.39686  0.83965  0.66604  1.0000
  C   C1740     1.0  0.85314  0.83965  0.58396  1.0000
  C   C1741     1.0  0.58396  0.89686  0.91035  1.0000
  C   C1742     1.0  0.66604  0.35314  0.91035  1.0000
  C   C1743     1.0  0.66604  0.89686  0.33965  1.0000
  C   C1744     1.0  0.58396  0.35314  0.33965  1.0000
  C   C1745     1.0  0.41035  0.08396  0.89686  1.0000
  C   C1746     1.0  0.41035  0.16604  0.35314  1.0000
  C   C1747     1.0  0.83965  0.16604  0.89686  1.0000
  C   C1748     1.0  0.83965  0.08396  0.35314  1.0000
  C   C1749     1.0  0.39686  0.91035  0.08396  1.0000
  C   C1750     1.0  0.85314  0.91035  0.16604  1.0000
  C   C1751     1.0  0.39686  0.33965  0.16604  1.0000
  C   C1752     1.0  0.85314  0.33965  0.08396  1.0000
  C   C1753     1.0  0.08396  0.39686  0.91035  1.0000
  C   C1754     1.0  0.16604  0.85314  0.91035  1.0000
  C   C1755     1.0  0.16604  0.39686  0.33965  1.0000
  C   C1756     1.0  0.08396  0.85314  0.33965  1.0000
  C   C1757     1.0  0.91035  0.58396  0.89686  1.0000
  C   C1758     1.0  0.91035  0.66604  0.35314  1.0000
  C   C1759     1.0  0.33965  0.66604  0.89686  1.0000
  C   C1760     1.0  0.33965  0.58396  0.35314  1.0000
  C   C1761     1.0  0.89686  0.41035  0.08396  1.0000
  C   C1762     1.0  0.35314  0.41035  0.16604  1.0000
  C   C1763     1.0  0.89686  0.83965  0.16604  1.0000
  C   C1764     1.0  0.35314  0.83965  0.08396  1.0000
  C   C1765     1.0  0.08396  0.89686  0.41035  1.0000
  C   C1766     1.0  0.16604  0.35314  0.41035  1.0000
  C   C1767     1.0  0.16604  0.89686  0.83965  1.0000
  C   C1768     1.0  0.08396  0.35314  0.83965  1.0000
  C   C1769     1.0  0.91035  0.08396  0.39686  1.0000
  C   C1770     1.0  0.91035  0.16604  0.85314  1.0000
  C   C1771     1.0  0.33965  0.16604  0.39686  1.0000
  C   C1772     1.0  0.33965  0.08396  0.85314  1.0000
  C   C1773     1.0  0.89686  0.91035  0.58396  1.0000
  C   C1774     1.0  0.35314  0.91035  0.66604  1.0000
  C   C1775     1.0  0.89686  0.33965  0.66604  1.0000
  C   C1776     1.0  0.35314  0.33965  0.58396  1.0000
  C   C1777     1.0  0.41604  0.60314  0.58965  1.0000
  C   C1778     1.0  0.33396  0.14686  0.58965  1.0000
  C   C1779     1.0  0.33396  0.60314  0.16035  1.0000
  C   C1780     1.0  0.41604  0.14686  0.16035  1.0000
  C   C1781     1.0  0.58965  0.41604  0.60314  1.0000
  C   C1782     1.0  0.58965  0.33396  0.14686  1.0000
  C   C1783     1.0  0.16035  0.33396  0.60314  1.0000
  C   C1784     1.0  0.16035  0.41604  0.14686  1.0000
  C   C1785     1.0  0.60314  0.58965  0.41604  1.0000
  C   C1786     1.0  0.14686  0.58965  0.33396  1.0000
  C   C1787     1.0  0.60314  0.16035  0.33396  1.0000
  C   C1788     1.0  0.14686  0.16035  0.41604  1.0000
  C   C1789     1.0  0.41604  0.10314  0.08965  1.0000
  C   C1790     1.0  0.33396  0.64686  0.08965  1.0000
  C   C1791     1.0  0.33396  0.10314  0.66035  1.0000
  C   C1792     1.0  0.41604  0.64686  0.66035  1.0000
  C   C1793     1.0  0.58965  0.91604  0.10314  1.0000
  C   C1794     1.0  0.58965  0.83396  0.64686  1.0000
  C   C1795     1.0  0.16035  0.83396  0.10314  1.0000
  C   C1796     1.0  0.16035  0.91604  0.64686  1.0000
  C   C1797     1.0  0.60314  0.08965  0.91604  1.0000
  C   C1798     1.0  0.14686  0.08965  0.83396  1.0000
  C   C1799     1.0  0.60314  0.66035  0.83396  1.0000
  C   C1800     1.0  0.14686  0.66035  0.91604  1.0000
  C   C1801     1.0  0.91604  0.60314  0.08965  1.0000
  C   C1802     1.0  0.83396  0.14686  0.08965  1.0000
  C   C1803     1.0  0.83396  0.60314  0.66035  1.0000
  C   C1804     1.0  0.91604  0.14686  0.66035  1.0000
  C   C1805     1.0  0.08965  0.41604  0.10314  1.0000
  C   C1806     1.0  0.08965  0.33396  0.64686  1.0000
  C   C1807     1.0  0.66035  0.33396  0.10314  1.0000
  C   C1808     1.0  0.66035  0.41604  0.64686  1.0000
  C   C1809     1.0  0.10314  0.58965  0.91604  1.0000
  C   C1810     1.0  0.64686  0.58965  0.83396  1.0000
  C   C1811     1.0  0.10314  0.16035  0.83396  1.0000
  C   C1812     1.0  0.64686  0.16035  0.91604  1.0000
  C   C1813     1.0  0.91604  0.10314  0.58965  1.0000
  C   C1814     1.0  0.83396  0.64686  0.58965  1.0000
  C   C1815     1.0  0.83396  0.10314  0.16035  1.0000
  C   C1816     1.0  0.91604  0.64686  0.16035  1.0000
  C   C1817     1.0  0.08965  0.91604  0.60314  1.0000
  C   C1818     1.0  0.08965  0.83396  0.14686  1.0000
  C   C1819     1.0  0.66035  0.83396  0.60314  1.0000
  C   C1820     1.0  0.66035  0.91604  0.14686  1.0000
  C   C1821     1.0  0.10314  0.08965  0.41604  1.0000
  C   C1822     1.0  0.64686  0.08965  0.33396  1.0000
  C   C1823     1.0  0.10314  0.66035  0.33396  1.0000
  C   C1824     1.0  0.64686  0.66035  0.41604  1.0000
  H   H865      1.0  0.56675  0.40250  0.40676  1.0000
  H   H866      1.0  0.68325  0.84750  0.40676  1.0000
  H   H867      1.0  0.68325  0.40250  0.84324  1.0000
  H   H868      1.0  0.56675  0.84750  0.84324  1.0000
  H   H869      1.0  0.40676  0.56675  0.40250  1.0000
  H   H870      1.0  0.40676  0.68325  0.84750  1.0000
  H   H871      1.0  0.84324  0.68325  0.40250  1.0000
  H   H872      1.0  0.84324  0.56675  0.84750  1.0000
  H   H873      1.0  0.40250  0.40676  0.56675  1.0000
  H   H874      1.0  0.84750  0.40676  0.68325  1.0000
  H   H875      1.0  0.40250  0.84324  0.68325  1.0000
  H   H876      1.0  0.84750  0.84324  0.56675  1.0000
  H   H877      1.0  0.56675  0.90250  0.90676  1.0000
  H   H878      1.0  0.68325  0.34750  0.90676  1.0000
  H   H879      1.0  0.68325  0.90250  0.34324  1.0000
  H   H880      1.0  0.56675  0.34750  0.34324  1.0000
  H   H881      1.0  0.40676  0.06675  0.90250  1.0000
  H   H882      1.0  0.40676  0.18325  0.34750  1.0000
  H   H883      1.0  0.84324  0.18325  0.90250  1.0000
  H   H884      1.0  0.84324  0.06675  0.34750  1.0000
  H   H885      1.0  0.40250  0.90676  0.06675  1.0000
  H   H886      1.0  0.84750  0.90676  0.18325  1.0000
  H   H887      1.0  0.40250  0.34324  0.18325  1.0000
  H   H888      1.0  0.84750  0.34324  0.06675  1.0000
  H   H889      1.0  0.06675  0.40250  0.90676  1.0000
  H   H890      1.0  0.18325  0.84750  0.90676  1.0000
  H   H891      1.0  0.18325  0.40250  0.34324  1.0000
  H   H892      1.0  0.06675  0.84750  0.34324  1.0000
  H   H893      1.0  0.90676  0.56675  0.90250  1.0000
  H   H894      1.0  0.90676  0.68325  0.34750  1.0000
  H   H895      1.0  0.34324  0.68325  0.90250  1.0000
  H   H896      1.0  0.34324  0.56675  0.34750  1.0000
  H   H897      1.0  0.90250  0.40676  0.06675  1.0000
  H   H898      1.0  0.34750  0.40676  0.18325  1.0000
  H   H899      1.0  0.90250  0.84324  0.18325  1.0000
  H   H900      1.0  0.34750  0.84324  0.06675  1.0000
  H   H901      1.0  0.06675  0.90250  0.40676  1.0000
  H   H902      1.0  0.18325  0.34750  0.40676  1.0000
  H   H903      1.0  0.18325  0.90250  0.84324  1.0000
  H   H904      1.0  0.06675  0.34750  0.84324  1.0000
  H   H905      1.0  0.90676  0.06675  0.40250  1.0000
  H   H906      1.0  0.90676  0.18325  0.84750  1.0000
  H   H907      1.0  0.34324  0.18325  0.40250  1.0000
  H   H908      1.0  0.34324  0.06675  0.84750  1.0000
  H   H909      1.0  0.90250  0.90676  0.56675  1.0000
  H   H910      1.0  0.34750  0.90676  0.68325  1.0000
  H   H911      1.0  0.90250  0.34324  0.68325  1.0000
  H   H912      1.0  0.34750  0.34324  0.56675  1.0000
  H   H913      1.0  0.43325  0.59750  0.59324  1.0000
  H   H914      1.0  0.31675  0.15250  0.59324  1.0000
  H   H915      1.0  0.31675  0.59750  0.15676  1.0000
  H   H916      1.0  0.43325  0.15250  0.15676  1.0000
  H   H917      1.0  0.59324  0.43325  0.59750  1.0000
  H   H918      1.0  0.59324  0.31675  0.15250  1.0000
  H   H919      1.0  0.15676  0.31675  0.59750  1.0000
  H   H920      1.0  0.15676  0.43325  0.15250  1.0000
  H   H921      1.0  0.59750  0.59324  0.43325  1.0000
  H   H922      1.0  0.15250  0.59324  0.31675  1.0000
  H   H923      1.0  0.59750  0.15676  0.31675  1.0000
  H   H924      1.0  0.15250  0.15676  0.43325  1.0000
  H   H925      1.0  0.43325  0.09750  0.09324  1.0000
  H   H926      1.0  0.31675  0.65250  0.09324  1.0000
  H   H927      1.0  0.31675  0.09750  0.65676  1.0000
  H   H928      1.0  0.43325  0.65250  0.65676  1.0000
  H   H929      1.0  0.59324  0.93325  0.09750  1.0000
  H   H930      1.0  0.59324  0.81675  0.65250  1.0000
  H   H931      1.0  0.15676  0.81675  0.09750  1.0000
  H   H932      1.0  0.15676  0.93325  0.65250  1.0000
  H   H933      1.0  0.59750  0.09324  0.93325  1.0000
  H   H934      1.0  0.15250  0.09324  0.81675  1.0000
  H   H935      1.0  0.59750  0.65676  0.81675  1.0000
  H   H936      1.0  0.15250  0.65676  0.93325  1.0000
  H   H937      1.0  0.93325  0.59750  0.09324  1.0000
  H   H938      1.0  0.81675  0.15250  0.09324  1.0000
  H   H939      1.0  0.81675  0.59750  0.65676  1.0000
  H   H940      1.0  0.93325  0.15250  0.65676  1.0000
  H   H941      1.0  0.09324  0.43325  0.09750  1.0000
  H   H942      1.0  0.09324  0.31675  0.65250  1.0000
  H   H943      1.0  0.65676  0.31675  0.09750  1.0000
  H   H944      1.0  0.65676  0.43325  0.65250  1.0000
  H   H945      1.0  0.09750  0.59324  0.93325  1.0000
  H   H946      1.0  0.65250  0.59324  0.81675  1.0000
  H   H947      1.0  0.09750  0.15676  0.81675  1.0000
  H   H948      1.0  0.65250  0.15676  0.93325  1.0000
  H   H949      1.0  0.93325  0.09750  0.59324  1.0000
  H   H950      1.0  0.81675  0.65250  0.59324  1.0000
  H   H951      1.0  0.81675  0.09750  0.15676  1.0000
  H   H952      1.0  0.93325  0.65250  0.15676  1.0000
  H   H953      1.0  0.09324  0.93325  0.59750  1.0000
  H   H954      1.0  0.09324  0.81675  0.15250  1.0000
  H   H955      1.0  0.65676  0.81675  0.59750  1.0000
  H   H956      1.0  0.65676  0.93325  0.15250  1.0000
  H   H957      1.0  0.09750  0.09324  0.43325  1.0000
  H   H958      1.0  0.65250  0.09324  0.31675  1.0000
  H   H959      1.0  0.09750  0.65676  0.31675  1.0000
  H   H960      1.0  0.65250  0.65676  0.43325  1.0000
  C   C1825     1.0  0.63368  0.38162  0.42088  1.0000
  C   C1826     1.0  0.61632  0.86838  0.42088  1.0000
  C   C1827     1.0  0.61632  0.38162  0.82912  1.0000
  C   C1828     1.0  0.63368  0.86838  0.82912  1.0000
  C   C1829     1.0  0.42088  0.63368  0.38162  1.0000
  C   C1830     1.0  0.42088  0.61632  0.86838  1.0000
  C   C1831     1.0  0.82912  0.61632  0.38162  1.0000
  C   C1832     1.0  0.82912  0.63368  0.86838  1.0000
  C   C1833     1.0  0.38162  0.42088  0.63368  1.0000
  C   C1834     1.0  0.86838  0.42088  0.61632  1.0000
  C   C1835     1.0  0.38162  0.82912  0.61632  1.0000
  C   C1836     1.0  0.86838  0.82912  0.63368  1.0000
  C   C1837     1.0  0.63368  0.88162  0.92088  1.0000
  C   C1838     1.0  0.61632  0.36838  0.92088  1.0000
  C   C1839     1.0  0.61632  0.88162  0.32912  1.0000
  C   C1840     1.0  0.63368  0.36838  0.32912  1.0000
  C   C1841     1.0  0.42088  0.13368  0.88162  1.0000
  C   C1842     1.0  0.42088  0.11632  0.36838  1.0000
  C   C1843     1.0  0.82912  0.11632  0.88162  1.0000
  C   C1844     1.0  0.82912  0.13368  0.36838  1.0000
  C   C1845     1.0  0.38162  0.92088  0.13368  1.0000
  C   C1846     1.0  0.86838  0.92088  0.11632  1.0000
  C   C1847     1.0  0.38162  0.32912  0.11632  1.0000
  C   C1848     1.0  0.86838  0.32912  0.13368  1.0000
  C   C1849     1.0  0.13368  0.38162  0.92088  1.0000
  C   C1850     1.0  0.11632  0.86838  0.92088  1.0000
  C   C1851     1.0  0.11632  0.38162  0.32912  1.0000
  C   C1852     1.0  0.13368  0.86838  0.32912  1.0000
  C   C1853     1.0  0.92088  0.63368  0.88162  1.0000
  C   C1854     1.0  0.92088  0.61632  0.36838  1.0000
  C   C1855     1.0  0.32912  0.61632  0.88162  1.0000
  C   C1856     1.0  0.32912  0.63368  0.36838  1.0000
  C   C1857     1.0  0.88162  0.42088  0.13368  1.0000
  C   C1858     1.0  0.36838  0.42088  0.11632  1.0000
  C   C1859     1.0  0.88162  0.82912  0.11632  1.0000
  C   C1860     1.0  0.36838  0.82912  0.13368  1.0000
  C   C1861     1.0  0.13368  0.88162  0.42088  1.0000
  C   C1862     1.0  0.11632  0.36838  0.42088  1.0000
  C   C1863     1.0  0.11632  0.88162  0.82912  1.0000
  C   C1864     1.0  0.13368  0.36838  0.82912  1.0000
  C   C1865     1.0  0.92088  0.13368  0.38162  1.0000
  C   C1866     1.0  0.92088  0.11632  0.86838  1.0000
  C   C1867     1.0  0.32912  0.11632  0.38162  1.0000
  C   C1868     1.0  0.32912  0.13368  0.86838  1.0000
  C   C1869     1.0  0.88162  0.92088  0.63368  1.0000
  C   C1870     1.0  0.36838  0.92088  0.61632  1.0000
  C   C1871     1.0  0.88162  0.32912  0.61632  1.0000
  C   C1872     1.0  0.36838  0.32912  0.63368  1.0000
  C   C1873     1.0  0.36632  0.61838  0.57912  1.0000
  C   C1874     1.0  0.38368  0.13162  0.57912  1.0000
  C   C1875     1.0  0.38368  0.61838  0.17088  1.0000
  C   C1876     1.0  0.36632  0.13162  0.17088  1.0000
  C   C1877     1.0  0.57912  0.36632  0.61838  1.0000
  C   C1878     1.0  0.57912  0.38368  0.13162  1.0000
  C   C1879     1.0  0.17088  0.38368  0.61838  1.0000
  C   C1880     1.0  0.17088  0.36632  0.13162  1.0000
  C   C1881     1.0  0.61838  0.57912  0.36632  1.0000
  C   C1882     1.0  0.13162  0.57912  0.38368  1.0000
  C   C1883     1.0  0.61838  0.17088  0.38368  1.0000
  C   C1884     1.0  0.13162  0.17088  0.36632  1.0000
  C   C1885     1.0  0.36632  0.11838  0.07912  1.0000
  C   C1886     1.0  0.38368  0.63162  0.07912  1.0000
  C   C1887     1.0  0.38368  0.11838  0.67088  1.0000
  C   C1888     1.0  0.36632  0.63162  0.67088  1.0000
  C   C1889     1.0  0.57912  0.86632  0.11838  1.0000
  C   C1890     1.0  0.57912  0.88368  0.63162  1.0000
  C   C1891     1.0  0.17088  0.88368  0.11838  1.0000
  C   C1892     1.0  0.17088  0.86632  0.63162  1.0000
  C   C1893     1.0  0.61838  0.07912  0.86632  1.0000
  C   C1894     1.0  0.13162  0.07912  0.88368  1.0000
  C   C1895     1.0  0.61838  0.67088  0.88368  1.0000
  C   C1896     1.0  0.13162  0.67088  0.86632  1.0000
  C   C1897     1.0  0.86632  0.61838  0.07912  1.0000
  C   C1898     1.0  0.88368  0.13162  0.07912  1.0000
  C   C1899     1.0  0.88368  0.61838  0.67088  1.0000
  C   C1900     1.0  0.86632  0.13162  0.67088  1.0000
  C   C1901     1.0  0.07912  0.36632  0.11838  1.0000
  C   C1902     1.0  0.07912  0.38368  0.63162  1.0000
  C   C1903     1.0  0.67088  0.38368  0.11838  1.0000
  C   C1904     1.0  0.67088  0.36632  0.63162  1.0000
  C   C1905     1.0  0.11838  0.57912  0.86632  1.0000
  C   C1906     1.0  0.63162  0.57912  0.88368  1.0000
  C   C1907     1.0  0.11838  0.17088  0.88368  1.0000
  C   C1908     1.0  0.63162  0.17088  0.86632  1.0000
  C   C1909     1.0  0.86632  0.11838  0.57912  1.0000
  C   C1910     1.0  0.88368  0.63162  0.57912  1.0000
  C   C1911     1.0  0.88368  0.11838  0.17088  1.0000
  C   C1912     1.0  0.86632  0.63162  0.17088  1.0000
  C   C1913     1.0  0.07912  0.86632  0.61838  1.0000
  C   C1914     1.0  0.07912  0.88368  0.13162  1.0000
  C   C1915     1.0  0.67088  0.88368  0.61838  1.0000
  C   C1916     1.0  0.67088  0.86632  0.13162  1.0000
  C   C1917     1.0  0.11838  0.07912  0.36632  1.0000
  C   C1918     1.0  0.63162  0.07912  0.38368  1.0000
  C   C1919     1.0  0.11838  0.67088  0.38368  1.0000
  C   C1920     1.0  0.63162  0.67088  0.36632  1.0000
  H   H961      1.0  0.65100  0.37657  0.42481  1.0000
  H   H962      1.0  0.59900  0.87343  0.42481  1.0000
  H   H963      1.0  0.59900  0.37657  0.82519  1.0000
  H   H964      1.0  0.65100  0.87343  0.82519  1.0000
  H   H965      1.0  0.42481  0.65100  0.37657  1.0000
  H   H966      1.0  0.42481  0.59900  0.87343  1.0000
  H   H967      1.0  0.82519  0.59900  0.37657  1.0000
  H   H968      1.0  0.82519  0.65100  0.87343  1.0000
  H   H969      1.0  0.37657  0.42481  0.65100  1.0000
  H   H970      1.0  0.87343  0.42481  0.59900  1.0000
  H   H971      1.0  0.37657  0.82519  0.59900  1.0000
  H   H972      1.0  0.87343  0.82519  0.65100  1.0000
  H   H973      1.0  0.65100  0.87657  0.92481  1.0000
  H   H974      1.0  0.59900  0.37343  0.92481  1.0000
  H   H975      1.0  0.59900  0.87657  0.32519  1.0000
  H   H976      1.0  0.65100  0.37343  0.32519  1.0000
  H   H977      1.0  0.42481  0.15100  0.87657  1.0000
  H   H978      1.0  0.42481  0.09900  0.37343  1.0000
  H   H979      1.0  0.82519  0.09900  0.87657  1.0000
  H   H980      1.0  0.82519  0.15100  0.37343  1.0000
  H   H981      1.0  0.37657  0.92481  0.15100  1.0000
  H   H982      1.0  0.87343  0.92481  0.09900  1.0000
  H   H983      1.0  0.37657  0.32519  0.09900  1.0000
  H   H984      1.0  0.87343  0.32519  0.15100  1.0000
  H   H985      1.0  0.15100  0.37657  0.92481  1.0000
  H   H986      1.0  0.09900  0.87343  0.92481  1.0000
  H   H987      1.0  0.09900  0.37657  0.32519  1.0000
  H   H988      1.0  0.15100  0.87343  0.32519  1.0000
  H   H989      1.0  0.92481  0.65100  0.87657  1.0000
  H   H990      1.0  0.92481  0.59900  0.37343  1.0000
  H   H991      1.0  0.32519  0.59900  0.87657  1.0000
  H   H992      1.0  0.32519  0.65100  0.37343  1.0000
  H   H993      1.0  0.87657  0.42481  0.15100  1.0000
  H   H994      1.0  0.37343  0.42481  0.09900  1.0000
  H   H995      1.0  0.87657  0.82519  0.09900  1.0000
  H   H996      1.0  0.37343  0.82519  0.15100  1.0000
  H   H997      1.0  0.15100  0.87657  0.42481  1.0000
  H   H998      1.0  0.09900  0.37343  0.42481  1.0000
  H   H999      1.0  0.09900  0.87657  0.82519  1.0000
  H   H1000     1.0  0.15100  0.37343  0.82519  1.0000
  H   H1001     1.0  0.92481  0.15100  0.37657  1.0000
  H   H1002     1.0  0.92481  0.09900  0.87343  1.0000
  H   H1003     1.0  0.32519  0.09900  0.37657  1.0000
  H   H1004     1.0  0.32519  0.15100  0.87343  1.0000
  H   H1005     1.0  0.87657  0.92481  0.65100  1.0000
  H   H1006     1.0  0.37343  0.92481  0.59900  1.0000
  H   H1007     1.0  0.87657  0.32519  0.59900  1.0000
  H   H1008     1.0  0.37343  0.32519  0.65100  1.0000
  H   H1009     1.0  0.34900  0.62343  0.57519  1.0000
  H   H1010     1.0  0.40100  0.12657  0.57519  1.0000
  H   H1011     1.0  0.40100  0.62343  0.17481  1.0000
  H   H1012     1.0  0.34900  0.12657  0.17481  1.0000
  H   H1013     1.0  0.57519  0.34900  0.62343  1.0000
  H   H1014     1.0  0.57519  0.40100  0.12657  1.0000
  H   H1015     1.0  0.17481  0.40100  0.62343  1.0000
  H   H1016     1.0  0.17481  0.34900  0.12657  1.0000
  H   H1017     1.0  0.62343  0.57519  0.34900  1.0000
  H   H1018     1.0  0.12657  0.57519  0.40100  1.0000
  H   H1019     1.0  0.62343  0.17481  0.40100  1.0000
  H   H1020     1.0  0.12657  0.17481  0.34900  1.0000
  H   H1021     1.0  0.34900  0.12343  0.07519  1.0000
  H   H1022     1.0  0.40100  0.62657  0.07519  1.0000
  H   H1023     1.0  0.40100  0.12343  0.67481  1.0000
  H   H1024     1.0  0.34900  0.62657  0.67481  1.0000
  H   H1025     1.0  0.57519  0.84900  0.12343  1.0000
  H   H1026     1.0  0.57519  0.90100  0.62657  1.0000
  H   H1027     1.0  0.17481  0.90100  0.12343  1.0000
  H   H1028     1.0  0.17481  0.84900  0.62657  1.0000
  H   H1029     1.0  0.62343  0.07519  0.84900  1.0000
  H   H1030     1.0  0.12657  0.07519  0.90100  1.0000
  H   H1031     1.0  0.62343  0.67481  0.90100  1.0000
  H   H1032     1.0  0.12657  0.67481  0.84900  1.0000
  H   H1033     1.0  0.84900  0.62343  0.07519  1.0000
  H   H1034     1.0  0.90100  0.12657  0.07519  1.0000
  H   H1035     1.0  0.90100  0.62343  0.67481  1.0000
  H   H1036     1.0  0.84900  0.12657  0.67481  1.0000
  H   H1037     1.0  0.07519  0.34900  0.12343  1.0000
  H   H1038     1.0  0.07519  0.40100  0.62657  1.0000
  H   H1039     1.0  0.67481  0.40100  0.12343  1.0000
  H   H1040     1.0  0.67481  0.34900  0.62657  1.0000
  H   H1041     1.0  0.12343  0.57519  0.84900  1.0000
  H   H1042     1.0  0.62657  0.57519  0.90100  1.0000
  H   H1043     1.0  0.12343  0.17481  0.90100  1.0000
  H   H1044     1.0  0.62657  0.17481  0.84900  1.0000
  H   H1045     1.0  0.84900  0.12343  0.57519  1.0000
  H   H1046     1.0  0.90100  0.62657  0.57519  1.0000
  H   H1047     1.0  0.90100  0.12343  0.17481  1.0000
  H   H1048     1.0  0.84900  0.62657  0.17481  1.0000
  H   H1049     1.0  0.07519  0.84900  0.62343  1.0000
  H   H1050     1.0  0.07519  0.90100  0.12657  1.0000
  H   H1051     1.0  0.67481  0.90100  0.62343  1.0000
  H   H1052     1.0  0.67481  0.84900  0.12657  1.0000
  H   H1053     1.0  0.12343  0.07519  0.34900  1.0000
  H   H1054     1.0  0.62657  0.07519  0.40100  1.0000
  H   H1055     1.0  0.12343  0.67481  0.40100  1.0000
  H   H1056     1.0  0.62657  0.67481  0.34900  1.0000
  C   C1921     1.0  0.72637  0.45319  0.28493  1.0000
  C   C1922     1.0  0.52363  0.79681  0.28493  1.0000
  C   C1923     1.0  0.52363  0.45319  0.96507  1.0000
  C   C1924     1.0  0.72637  0.79681  0.96507  1.0000
  C   C1925     1.0  0.28493  0.72637  0.45319  1.0000
  C   C1926     1.0  0.28493  0.52363  0.79681  1.0000
  C   C1927     1.0  0.96507  0.52363  0.45319  1.0000
  C   C1928     1.0  0.96507  0.72637  0.79681  1.0000
  C   C1929     1.0  0.45319  0.28493  0.72637  1.0000
  C   C1930     1.0  0.79681  0.28493  0.52363  1.0000
  C   C1931     1.0  0.45319  0.96507  0.52363  1.0000
  C   C1932     1.0  0.79681  0.96507  0.72637  1.0000
  C   C1933     1.0  0.72637  0.95319  0.78493  1.0000
  C   C1934     1.0  0.52363  0.29681  0.78493  1.0000
  C   C1935     1.0  0.52363  0.95319  0.46507  1.0000
  C   C1936     1.0  0.72637  0.29681  0.46507  1.0000
  C   C1937     1.0  0.28493  0.22637  0.95319  1.0000
  C   C1938     1.0  0.28493  0.02363  0.29681  1.0000
  C   C1939     1.0  0.96507  0.02363  0.95319  1.0000
  C   C1940     1.0  0.96507  0.22637  0.29681  1.0000
  C   C1941     1.0  0.45319  0.78493  0.22637  1.0000
  C   C1942     1.0  0.79681  0.78493  0.02363  1.0000
  C   C1943     1.0  0.45319  0.46507  0.02363  1.0000
  C   C1944     1.0  0.79681  0.46507  0.22637  1.0000
  C   C1945     1.0  0.22637  0.45319  0.78493  1.0000
  C   C1946     1.0  0.02363  0.79681  0.78493  1.0000
  C   C1947     1.0  0.02363  0.45319  0.46507  1.0000
  C   C1948     1.0  0.22637  0.79681  0.46507  1.0000
  C   C1949     1.0  0.78493  0.72637  0.95319  1.0000
  C   C1950     1.0  0.78493  0.52363  0.29681  1.0000
  C   C1951     1.0  0.46507  0.52363  0.95319  1.0000
  C   C1952     1.0  0.46507  0.72637  0.29681  1.0000
  C   C1953     1.0  0.95319  0.28493  0.22637  1.0000
  C   C1954     1.0  0.29681  0.28493  0.02363  1.0000
  C   C1955     1.0  0.95319  0.96507  0.02363  1.0000
  C   C1956     1.0  0.29681  0.96507  0.22637  1.0000
  C   C1957     1.0  0.22637  0.95319  0.28493  1.0000
  C   C1958     1.0  0.02363  0.29681  0.28493  1.0000
  C   C1959     1.0  0.02363  0.95319  0.96507  1.0000
  C   C1960     1.0  0.22637  0.29681  0.96507  1.0000
  C   C1961     1.0  0.78493  0.22637  0.45319  1.0000
  C   C1962     1.0  0.78493  0.02363  0.79681  1.0000
  C   C1963     1.0  0.46507  0.02363  0.45319  1.0000
  C   C1964     1.0  0.46507  0.22637  0.79681  1.0000
  C   C1965     1.0  0.95319  0.78493  0.72637  1.0000
  C   C1966     1.0  0.29681  0.78493  0.52363  1.0000
  C   C1967     1.0  0.95319  0.46507  0.52363  1.0000
  C   C1968     1.0  0.29681  0.46507  0.72637  1.0000
  C   C1969     1.0  0.27363  0.54681  0.71507  1.0000
  C   C1970     1.0  0.47637  0.20319  0.71507  1.0000
  C   C1971     1.0  0.47637  0.54681  0.03493  1.0000
  C   C1972     1.0  0.27363  0.20319  0.03493  1.0000
  C   C1973     1.0  0.71507  0.27363  0.54681  1.0000
  C   C1974     1.0  0.71507  0.47637  0.20319  1.0000
  C   C1975     1.0  0.03493  0.47637  0.54681  1.0000
  C   C1976     1.0  0.03493  0.27363  0.20319  1.0000
  C   C1977     1.0  0.54681  0.71507  0.27363  1.0000
  C   C1978     1.0  0.20319  0.71507  0.47637  1.0000
  C   C1979     1.0  0.54681  0.03493  0.47637  1.0000
  C   C1980     1.0  0.20319  0.03493  0.27363  1.0000
  C   C1981     1.0  0.27363  0.04681  0.21507  1.0000
  C   C1982     1.0  0.47637  0.70319  0.21507  1.0000
  C   C1983     1.0  0.47637  0.04681  0.53493  1.0000
  C   C1984     1.0  0.27363  0.70319  0.53493  1.0000
  C   C1985     1.0  0.71507  0.77363  0.04681  1.0000
  C   C1986     1.0  0.71507  0.97637  0.70319  1.0000
  C   C1987     1.0  0.03493  0.97637  0.04681  1.0000
  C   C1988     1.0  0.03493  0.77363  0.70319  1.0000
  C   C1989     1.0  0.54681  0.21507  0.77363  1.0000
  C   C1990     1.0  0.20319  0.21507  0.97637  1.0000
  C   C1991     1.0  0.54681  0.53493  0.97637  1.0000
  C   C1992     1.0  0.20319  0.53493  0.77363  1.0000
  C   C1993     1.0  0.77363  0.54681  0.21507  1.0000
  C   C1994     1.0  0.97637  0.20319  0.21507  1.0000
  C   C1995     1.0  0.97637  0.54681  0.53493  1.0000
  C   C1996     1.0  0.77363  0.20319  0.53493  1.0000
  C   C1997     1.0  0.21507  0.27363  0.04681  1.0000
  C   C1998     1.0  0.21507  0.47637  0.70319  1.0000
  C   C1999     1.0  0.53493  0.47637  0.04681  1.0000
  C   C2000     1.0  0.53493  0.27363  0.70319  1.0000
  C   C2001     1.0  0.04681  0.71507  0.77363  1.0000
  C   C2002     1.0  0.70319  0.71507  0.97637  1.0000
  C   C2003     1.0  0.04681  0.03493  0.97637  1.0000
  C   C2004     1.0  0.70319  0.03493  0.77363  1.0000
  C   C2005     1.0  0.77363  0.04681  0.71507  1.0000
  C   C2006     1.0  0.97637  0.70319  0.71507  1.0000
  C   C2007     1.0  0.97637  0.04681  0.03493  1.0000
  C   C2008     1.0  0.77363  0.70319  0.03493  1.0000
  C   C2009     1.0  0.21507  0.77363  0.54681  1.0000
  C   C2010     1.0  0.21507  0.97637  0.20319  1.0000
  C   C2011     1.0  0.53493  0.97637  0.54681  1.0000
  C   C2012     1.0  0.53493  0.77363  0.20319  1.0000
  C   C2013     1.0  0.04681  0.21507  0.27363  1.0000
  C   C2014     1.0  0.70319  0.21507  0.47637  1.0000
  C   C2015     1.0  0.04681  0.53493  0.47637  1.0000
  C   C2016     1.0  0.70319  0.53493  0.27363  1.0000
  C   C2017     1.0  0.58840  0.38125  0.43169  1.0000
  C   C2018     1.0  0.66160  0.86875  0.43169  1.0000
  C   C2019     1.0  0.66160  0.38125  0.81831  1.0000
  C   C2020     1.0  0.58840  0.86875  0.81831  1.0000
  C   C2021     1.0  0.43169  0.58840  0.38125  1.0000
  C   C2022     1.0  0.43169  0.66160  0.86875  1.0000
  C   C2023     1.0  0.81831  0.66160  0.38125  1.0000
  C   C2024     1.0  0.81831  0.58840  0.86875  1.0000
  C   C2025     1.0  0.38125  0.43169  0.58840  1.0000
  C   C2026     1.0  0.86875  0.43169  0.66160  1.0000
  C   C2027     1.0  0.38125  0.81831  0.66160  1.0000
  C   C2028     1.0  0.86875  0.81831  0.58840  1.0000
  C   C2029     1.0  0.58840  0.88125  0.93169  1.0000
  C   C2030     1.0  0.66160  0.36875  0.93169  1.0000
  C   C2031     1.0  0.66160  0.88125  0.31831  1.0000
  C   C2032     1.0  0.58840  0.36875  0.31831  1.0000
  C   C2033     1.0  0.43169  0.08840  0.88125  1.0000
  C   C2034     1.0  0.43169  0.16160  0.36875  1.0000
  C   C2035     1.0  0.81831  0.16160  0.88125  1.0000
  C   C2036     1.0  0.81831  0.08840  0.36875  1.0000
  C   C2037     1.0  0.38125  0.93169  0.08840  1.0000
  C   C2038     1.0  0.86875  0.93169  0.16160  1.0000
  C   C2039     1.0  0.38125  0.31831  0.16160  1.0000
  C   C2040     1.0  0.86875  0.31831  0.08840  1.0000
  C   C2041     1.0  0.08840  0.38125  0.93169  1.0000
  C   C2042     1.0  0.16160  0.86875  0.93169  1.0000
  C   C2043     1.0  0.16160  0.38125  0.31831  1.0000
  C   C2044     1.0  0.08840  0.86875  0.31831  1.0000
  C   C2045     1.0  0.93169  0.58840  0.88125  1.0000
  C   C2046     1.0  0.93169  0.66160  0.36875  1.0000
  C   C2047     1.0  0.31831  0.66160  0.88125  1.0000
  C   C2048     1.0  0.31831  0.58840  0.36875  1.0000
  C   C2049     1.0  0.88125  0.43169  0.08840  1.0000
  C   C2050     1.0  0.36875  0.43169  0.16160  1.0000
  C   C2051     1.0  0.88125  0.81831  0.16160  1.0000
  C   C2052     1.0  0.36875  0.81831  0.08840  1.0000
  C   C2053     1.0  0.08840  0.88125  0.43169  1.0000
  C   C2054     1.0  0.16160  0.36875  0.43169  1.0000
  C   C2055     1.0  0.16160  0.88125  0.81831  1.0000
  C   C2056     1.0  0.08840  0.36875  0.81831  1.0000
  C   C2057     1.0  0.93169  0.08840  0.38125  1.0000
  C   C2058     1.0  0.93169  0.16160  0.86875  1.0000
  C   C2059     1.0  0.31831  0.16160  0.38125  1.0000
  C   C2060     1.0  0.31831  0.08840  0.86875  1.0000
  C   C2061     1.0  0.88125  0.93169  0.58840  1.0000
  C   C2062     1.0  0.36875  0.93169  0.66160  1.0000
  C   C2063     1.0  0.88125  0.31831  0.66160  1.0000
  C   C2064     1.0  0.36875  0.31831  0.58840  1.0000
  C   C2065     1.0  0.41160  0.61875  0.56831  1.0000
  C   C2066     1.0  0.33840  0.13125  0.56831  1.0000
  C   C2067     1.0  0.33840  0.61875  0.18169  1.0000
  C   C2068     1.0  0.41160  0.13125  0.18169  1.0000
  C   C2069     1.0  0.56831  0.41160  0.61875  1.0000
  C   C2070     1.0  0.56831  0.33840  0.13125  1.0000
  C   C2071     1.0  0.18169  0.33840  0.61875  1.0000
  C   C2072     1.0  0.18169  0.41160  0.13125  1.0000
  C   C2073     1.0  0.61875  0.56831  0.41160  1.0000
  C   C2074     1.0  0.13125  0.56831  0.33840  1.0000
  C   C2075     1.0  0.61875  0.18169  0.33840  1.0000
  C   C2076     1.0  0.13125  0.18169  0.41160  1.0000
  C   C2077     1.0  0.41160  0.11875  0.06831  1.0000
  C   C2078     1.0  0.33840  0.63125  0.06831  1.0000
  C   C2079     1.0  0.33840  0.11875  0.68169  1.0000
  C   C2080     1.0  0.41160  0.63125  0.68169  1.0000
  C   C2081     1.0  0.56831  0.91160  0.11875  1.0000
  C   C2082     1.0  0.56831  0.83840  0.63125  1.0000
  C   C2083     1.0  0.18169  0.83840  0.11875  1.0000
  C   C2084     1.0  0.18169  0.91160  0.63125  1.0000
  C   C2085     1.0  0.61875  0.06831  0.91160  1.0000
  C   C2086     1.0  0.13125  0.06831  0.83840  1.0000
  C   C2087     1.0  0.61875  0.68169  0.83840  1.0000
  C   C2088     1.0  0.13125  0.68169  0.91160  1.0000
  C   C2089     1.0  0.91160  0.61875  0.06831  1.0000
  C   C2090     1.0  0.83840  0.13125  0.06831  1.0000
  C   C2091     1.0  0.83840  0.61875  0.68169  1.0000
  C   C2092     1.0  0.91160  0.13125  0.68169  1.0000
  C   C2093     1.0  0.06831  0.41160  0.11875  1.0000
  C   C2094     1.0  0.06831  0.33840  0.63125  1.0000
  C   C2095     1.0  0.68169  0.33840  0.11875  1.0000
  C   C2096     1.0  0.68169  0.41160  0.63125  1.0000
  C   C2097     1.0  0.11875  0.56831  0.91160  1.0000
  C   C2098     1.0  0.63125  0.56831  0.83840  1.0000
  C   C2099     1.0  0.11875  0.18169  0.83840  1.0000
  C   C2100     1.0  0.63125  0.18169  0.91160  1.0000
  C   C2101     1.0  0.91160  0.11875  0.56831  1.0000
  C   C2102     1.0  0.83840  0.63125  0.56831  1.0000
  C   C2103     1.0  0.83840  0.11875  0.18169  1.0000
  C   C2104     1.0  0.91160  0.63125  0.18169  1.0000
  C   C2105     1.0  0.06831  0.91160  0.61875  1.0000
  C   C2106     1.0  0.06831  0.83840  0.13125  1.0000
  C   C2107     1.0  0.68169  0.83840  0.61875  1.0000
  C   C2108     1.0  0.68169  0.91160  0.13125  1.0000
  C   C2109     1.0  0.11875  0.06831  0.41160  1.0000
  C   C2110     1.0  0.63125  0.06831  0.33840  1.0000
  C   C2111     1.0  0.11875  0.68169  0.33840  1.0000
  C   C2112     1.0  0.63125  0.68169  0.41160  1.0000
  H   H1057     1.0  0.57442  0.37617  0.44263  1.0000
  H   H1058     1.0  0.67558  0.87383  0.44263  1.0000
  H   H1059     1.0  0.67558  0.37617  0.80737  1.0000
  H   H1060     1.0  0.57442  0.87383  0.80737  1.0000
  H   H1061     1.0  0.44263  0.57442  0.37617  1.0000
  H   H1062     1.0  0.44263  0.67558  0.87383  1.0000
  H   H1063     1.0  0.80737  0.67558  0.37617  1.0000
  H   H1064     1.0  0.80737  0.57442  0.87383  1.0000
  H   H1065     1.0  0.37617  0.44263  0.57442  1.0000
  H   H1066     1.0  0.87383  0.44263  0.67558  1.0000
  H   H1067     1.0  0.37617  0.80737  0.67558  1.0000
  H   H1068     1.0  0.87383  0.80737  0.57442  1.0000
  H   H1069     1.0  0.57442  0.87617  0.94263  1.0000
  H   H1070     1.0  0.67558  0.37383  0.94263  1.0000
  H   H1071     1.0  0.67558  0.87617  0.30737  1.0000
  H   H1072     1.0  0.57442  0.37383  0.30737  1.0000
  H   H1073     1.0  0.44263  0.07442  0.87617  1.0000
  H   H1074     1.0  0.44263  0.17558  0.37383  1.0000
  H   H1075     1.0  0.80737  0.17558  0.87617  1.0000
  H   H1076     1.0  0.80737  0.07442  0.37383  1.0000
  H   H1077     1.0  0.37617  0.94263  0.07442  1.0000
  H   H1078     1.0  0.87383  0.94263  0.17558  1.0000
  H   H1079     1.0  0.37617  0.30737  0.17558  1.0000
  H   H1080     1.0  0.87383  0.30737  0.07442  1.0000
  H   H1081     1.0  0.07442  0.37617  0.94263  1.0000
  H   H1082     1.0  0.17558  0.87383  0.94263  1.0000
  H   H1083     1.0  0.17558  0.37617  0.30737  1.0000
  H   H1084     1.0  0.07442  0.87383  0.30737  1.0000
  H   H1085     1.0  0.94263  0.57442  0.87617  1.0000
  H   H1086     1.0  0.94263  0.67558  0.37383  1.0000
  H   H1087     1.0  0.30737  0.67558  0.87617  1.0000
  H   H1088     1.0  0.30737  0.57442  0.37383  1.0000
  H   H1089     1.0  0.87617  0.44263  0.07442  1.0000
  H   H1090     1.0  0.37383  0.44263  0.17558  1.0000
  H   H1091     1.0  0.87617  0.80737  0.17558  1.0000
  H   H1092     1.0  0.37383  0.80737  0.07442  1.0000
  H   H1093     1.0  0.07442  0.87617  0.44263  1.0000
  H   H1094     1.0  0.17558  0.37383  0.44263  1.0000
  H   H1095     1.0  0.17558  0.87617  0.80737  1.0000
  H   H1096     1.0  0.07442  0.37383  0.80737  1.0000
  H   H1097     1.0  0.94263  0.07442  0.37617  1.0000
  H   H1098     1.0  0.94263  0.17558  0.87383  1.0000
  H   H1099     1.0  0.30737  0.17558  0.37617  1.0000
  H   H1100     1.0  0.30737  0.07442  0.87383  1.0000
  H   H1101     1.0  0.87617  0.94263  0.57442  1.0000
  H   H1102     1.0  0.37383  0.94263  0.67558  1.0000
  H   H1103     1.0  0.87617  0.30737  0.67558  1.0000
  H   H1104     1.0  0.37383  0.30737  0.57442  1.0000
  H   H1105     1.0  0.42558  0.62383  0.55737  1.0000
  H   H1106     1.0  0.32442  0.12617  0.55737  1.0000
  H   H1107     1.0  0.32442  0.62383  0.19263  1.0000
  H   H1108     1.0  0.42558  0.12617  0.19263  1.0000
  H   H1109     1.0  0.55737  0.42558  0.62383  1.0000
  H   H1110     1.0  0.55737  0.32442  0.12617  1.0000
  H   H1111     1.0  0.19263  0.32442  0.62383  1.0000
  H   H1112     1.0  0.19263  0.42558  0.12617  1.0000
  H   H1113     1.0  0.62383  0.55737  0.42558  1.0000
  H   H1114     1.0  0.12617  0.55737  0.32442  1.0000
  H   H1115     1.0  0.62383  0.19263  0.32442  1.0000
  H   H1116     1.0  0.12617  0.19263  0.42558  1.0000
  H   H1117     1.0  0.42558  0.12383  0.05737  1.0000
  H   H1118     1.0  0.32442  0.62617  0.05737  1.0000
  H   H1119     1.0  0.32442  0.12383  0.69263  1.0000
  H   H1120     1.0  0.42558  0.62617  0.69263  1.0000
  H   H1121     1.0  0.55737  0.92558  0.12383  1.0000
  H   H1122     1.0  0.55737  0.82442  0.62617  1.0000
  H   H1123     1.0  0.19263  0.82442  0.12383  1.0000
  H   H1124     1.0  0.19263  0.92558  0.62617  1.0000
  H   H1125     1.0  0.62383  0.05737  0.92558  1.0000
  H   H1126     1.0  0.12617  0.05737  0.82442  1.0000
  H   H1127     1.0  0.62383  0.69263  0.82442  1.0000
  H   H1128     1.0  0.12617  0.69263  0.92558  1.0000
  H   H1129     1.0  0.92558  0.62383  0.05737  1.0000
  H   H1130     1.0  0.82442  0.12617  0.05737  1.0000
  H   H1131     1.0  0.82442  0.62383  0.69263  1.0000
  H   H1132     1.0  0.92558  0.12617  0.69263  1.0000
  H   H1133     1.0  0.05737  0.42558  0.12383  1.0000
  H   H1134     1.0  0.05737  0.32442  0.62617  1.0000
  H   H1135     1.0  0.69263  0.32442  0.12383  1.0000
  H   H1136     1.0  0.69263  0.42558  0.62617  1.0000
  H   H1137     1.0  0.12383  0.55737  0.92558  1.0000
  H   H1138     1.0  0.62617  0.55737  0.82442  1.0000
  H   H1139     1.0  0.12383  0.19263  0.82442  1.0000
  H   H1140     1.0  0.62617  0.19263  0.92558  1.0000
  H   H1141     1.0  0.92558  0.12383  0.55737  1.0000
  H   H1142     1.0  0.82442  0.62617  0.55737  1.0000
  H   H1143     1.0  0.82442  0.12383  0.19263  1.0000
  H   H1144     1.0  0.92558  0.62617  0.19263  1.0000
  H   H1145     1.0  0.05737  0.92558  0.62383  1.0000
  H   H1146     1.0  0.05737  0.82442  0.12617  1.0000
  H   H1147     1.0  0.69263  0.82442  0.62383  1.0000
  H   H1148     1.0  0.69263  0.92558  0.12617  1.0000
  H   H1149     1.0  0.12383  0.05737  0.42558  1.0000
  H   H1150     1.0  0.62617  0.05737  0.32442  1.0000
  H   H1151     1.0  0.12383  0.69263  0.32442  1.0000
  H   H1152     1.0  0.62617  0.69263  0.42558  1.0000
  C   C2113     1.0  0.79393  0.55436  0.39454  1.0000
  C   C2114     1.0  0.45607  0.69564  0.39454  1.0000
  C   C2115     1.0  0.45607  0.55436  0.85546  1.0000
  C   C2116     1.0  0.79393  0.69564  0.85546  1.0000
  C   C2117     1.0  0.39454  0.79393  0.55436  1.0000
  C   C2118     1.0  0.39454  0.45607  0.69564  1.0000
  C   C2119     1.0  0.85546  0.45607  0.55436  1.0000
  C   C2120     1.0  0.85546  0.79393  0.69564  1.0000
  C   C2121     1.0  0.55436  0.39454  0.79393  1.0000
  C   C2122     1.0  0.69564  0.39454  0.45607  1.0000
  C   C2123     1.0  0.55436  0.85546  0.45607  1.0000
  C   C2124     1.0  0.69564  0.85546  0.79393  1.0000
  C   C2125     1.0  0.79393  0.05436  0.89454  1.0000
  C   C2126     1.0  0.45607  0.19564  0.89454  1.0000
  C   C2127     1.0  0.45607  0.05436  0.35546  1.0000
  C   C2128     1.0  0.79393  0.19564  0.35546  1.0000
  C   C2129     1.0  0.39454  0.29393  0.05436  1.0000
  C   C2130     1.0  0.39454  0.95607  0.19564  1.0000
  C   C2131     1.0  0.85546  0.95607  0.05436  1.0000
  C   C2132     1.0  0.85546  0.29393  0.19564  1.0000
  C   C2133     1.0  0.55436  0.89454  0.29393  1.0000
  C   C2134     1.0  0.69564  0.89454  0.95607  1.0000
  C   C2135     1.0  0.55436  0.35546  0.95607  1.0000
  C   C2136     1.0  0.69564  0.35546  0.29393  1.0000
  C   C2137     1.0  0.29393  0.55436  0.89454  1.0000
  C   C2138     1.0  0.95607  0.69564  0.89454  1.0000
  C   C2139     1.0  0.95607  0.55436  0.35546  1.0000
  C   C2140     1.0  0.29393  0.69564  0.35546  1.0000
  C   C2141     1.0  0.89454  0.79393  0.05436  1.0000
  C   C2142     1.0  0.89454  0.45607  0.19564  1.0000
  C   C2143     1.0  0.35546  0.45607  0.05436  1.0000
  C   C2144     1.0  0.35546  0.79393  0.19564  1.0000
  C   C2145     1.0  0.05436  0.39454  0.29393  1.0000
  C   C2146     1.0  0.19564  0.39454  0.95607  1.0000
  C   C2147     1.0  0.05436  0.85546  0.95607  1.0000
  C   C2148     1.0  0.19564  0.85546  0.29393  1.0000
  C   C2149     1.0  0.29393  0.05436  0.39454  1.0000
  C   C2150     1.0  0.95607  0.19564  0.39454  1.0000
  C   C2151     1.0  0.95607  0.05436  0.85546  1.0000
  C   C2152     1.0  0.29393  0.19564  0.85546  1.0000
  C   C2153     1.0  0.89454  0.29393  0.55436  1.0000
  C   C2154     1.0  0.89454  0.95607  0.69564  1.0000
  C   C2155     1.0  0.35546  0.95607  0.55436  1.0000
  C   C2156     1.0  0.35546  0.29393  0.69564  1.0000
  C   C2157     1.0  0.05436  0.89454  0.79393  1.0000
  C   C2158     1.0  0.19564  0.89454  0.45607  1.0000
  C   C2159     1.0  0.05436  0.35546  0.45607  1.0000
  C   C2160     1.0  0.19564  0.35546  0.79393  1.0000
  C   C2161     1.0  0.20607  0.44564  0.60546  1.0000
  C   C2162     1.0  0.54393  0.30436  0.60546  1.0000
  C   C2163     1.0  0.54393  0.44564  0.14454  1.0000
  C   C2164     1.0  0.20607  0.30436  0.14454  1.0000
  C   C2165     1.0  0.60546  0.20607  0.44564  1.0000
  C   C2166     1.0  0.60546  0.54393  0.30436  1.0000
  C   C2167     1.0  0.14454  0.54393  0.44564  1.0000
  C   C2168     1.0  0.14454  0.20607  0.30436  1.0000
  C   C2169     1.0  0.44564  0.60546  0.20607  1.0000
  C   C2170     1.0  0.30436  0.60546  0.54393  1.0000
  C   C2171     1.0  0.44564  0.14454  0.54393  1.0000
  C   C2172     1.0  0.30436  0.14454  0.20607  1.0000
  C   C2173     1.0  0.20607  0.94564  0.10546  1.0000
  C   C2174     1.0  0.54393  0.80436  0.10546  1.0000
  C   C2175     1.0  0.54393  0.94564  0.64454  1.0000
  C   C2176     1.0  0.20607  0.80436  0.64454  1.0000
  C   C2177     1.0  0.60546  0.70607  0.94564  1.0000
  C   C2178     1.0  0.60546  0.04393  0.80436  1.0000
  C   C2179     1.0  0.14454  0.04393  0.94564  1.0000
  C   C2180     1.0  0.14454  0.70607  0.80436  1.0000
  C   C2181     1.0  0.44564  0.10546  0.70607  1.0000
  C   C2182     1.0  0.30436  0.10546  0.04393  1.0000
  C   C2183     1.0  0.44564  0.64454  0.04393  1.0000
  C   C2184     1.0  0.30436  0.64454  0.70607  1.0000
  C   C2185     1.0  0.70607  0.44564  0.10546  1.0000
  C   C2186     1.0  0.04393  0.30436  0.10546  1.0000
  C   C2187     1.0  0.04393  0.44564  0.64454  1.0000
  C   C2188     1.0  0.70607  0.30436  0.64454  1.0000
  C   C2189     1.0  0.10546  0.20607  0.94564  1.0000
  C   C2190     1.0  0.10546  0.54393  0.80436  1.0000
  C   C2191     1.0  0.64454  0.54393  0.94564  1.0000
  C   C2192     1.0  0.64454  0.20607  0.80436  1.0000
  C   C2193     1.0  0.94564  0.60546  0.70607  1.0000
  C   C2194     1.0  0.80436  0.60546  0.04393  1.0000
  C   C2195     1.0  0.94564  0.14454  0.04393  1.0000
  C   C2196     1.0  0.80436  0.14454  0.70607  1.0000
  C   C2197     1.0  0.70607  0.94564  0.60546  1.0000
  C   C2198     1.0  0.04393  0.80436  0.60546  1.0000
  C   C2199     1.0  0.04393  0.94564  0.14454  1.0000
  C   C2200     1.0  0.70607  0.80436  0.14454  1.0000
  C   C2201     1.0  0.10546  0.70607  0.44564  1.0000
  C   C2202     1.0  0.10546  0.04393  0.30436  1.0000
  C   C2203     1.0  0.64454  0.04393  0.44564  1.0000
  C   C2204     1.0  0.64454  0.70607  0.30436  1.0000
  C   C2205     1.0  0.94564  0.10546  0.20607  1.0000
  C   C2206     1.0  0.80436  0.10546  0.54393  1.0000
  C   C2207     1.0  0.94564  0.64454  0.54393  1.0000
  C   C2208     1.0  0.80436  0.64454  0.20607  1.0000
  H   H1153     1.0  0.79412  0.54650  0.37784  1.0000
  H   H1154     1.0  0.45588  0.70350  0.37784  1.0000
  H   H1155     1.0  0.45588  0.54650  0.87216  1.0000
  H   H1156     1.0  0.79412  0.70350  0.87216  1.0000
  H   H1157     1.0  0.37784  0.79412  0.54650  1.0000
  H   H1158     1.0  0.37784  0.45588  0.70350  1.0000
  H   H1159     1.0  0.87216  0.45588  0.54650  1.0000
  H   H1160     1.0  0.87216  0.79412  0.70350  1.0000
  H   H1161     1.0  0.54650  0.37784  0.79412  1.0000
  H   H1162     1.0  0.70350  0.37784  0.45588  1.0000
  H   H1163     1.0  0.54650  0.87216  0.45588  1.0000
  H   H1164     1.0  0.70350  0.87216  0.79412  1.0000
  H   H1165     1.0  0.79412  0.04650  0.87784  1.0000
  H   H1166     1.0  0.45588  0.20350  0.87784  1.0000
  H   H1167     1.0  0.45588  0.04650  0.37216  1.0000
  H   H1168     1.0  0.79412  0.20350  0.37216  1.0000
  H   H1169     1.0  0.37784  0.29412  0.04650  1.0000
  H   H1170     1.0  0.37784  0.95588  0.20350  1.0000
  H   H1171     1.0  0.87216  0.95588  0.04650  1.0000
  H   H1172     1.0  0.87216  0.29412  0.20350  1.0000
  H   H1173     1.0  0.54650  0.87784  0.29412  1.0000
  H   H1174     1.0  0.70350  0.87784  0.95588  1.0000
  H   H1175     1.0  0.54650  0.37216  0.95588  1.0000
  H   H1176     1.0  0.70350  0.37216  0.29412  1.0000
  H   H1177     1.0  0.29412  0.54650  0.87784  1.0000
  H   H1178     1.0  0.95588  0.70350  0.87784  1.0000
  H   H1179     1.0  0.95588  0.54650  0.37216  1.0000
  H   H1180     1.0  0.29412  0.70350  0.37216  1.0000
  H   H1181     1.0  0.87784  0.79412  0.04650  1.0000
  H   H1182     1.0  0.87784  0.45588  0.20350  1.0000
  H   H1183     1.0  0.37216  0.45588  0.04650  1.0000
  H   H1184     1.0  0.37216  0.79412  0.20350  1.0000
  H   H1185     1.0  0.04650  0.37784  0.29412  1.0000
  H   H1186     1.0  0.20350  0.37784  0.95588  1.0000
  H   H1187     1.0  0.04650  0.87216  0.95588  1.0000
  H   H1188     1.0  0.20350  0.87216  0.29412  1.0000
  H   H1189     1.0  0.29412  0.04650  0.37784  1.0000
  H   H1190     1.0  0.95588  0.20350  0.37784  1.0000
  H   H1191     1.0  0.95588  0.04650  0.87216  1.0000
  H   H1192     1.0  0.29412  0.20350  0.87216  1.0000
  H   H1193     1.0  0.87784  0.29412  0.54650  1.0000
  H   H1194     1.0  0.87784  0.95588  0.70350  1.0000
  H   H1195     1.0  0.37216  0.95588  0.54650  1.0000
  H   H1196     1.0  0.37216  0.29412  0.70350  1.0000
  H   H1197     1.0  0.04650  0.87784  0.79412  1.0000
  H   H1198     1.0  0.20350  0.87784  0.45588  1.0000
  H   H1199     1.0  0.04650  0.37216  0.45588  1.0000
  H   H1200     1.0  0.20350  0.37216  0.79412  1.0000
  H   H1201     1.0  0.20588  0.45350  0.62216  1.0000
  H   H1202     1.0  0.54412  0.29650  0.62216  1.0000
  H   H1203     1.0  0.54412  0.45350  0.12784  1.0000
  H   H1204     1.0  0.20588  0.29650  0.12784  1.0000
  H   H1205     1.0  0.62216  0.20588  0.45350  1.0000
  H   H1206     1.0  0.62216  0.54412  0.29650  1.0000
  H   H1207     1.0  0.12784  0.54412  0.45350  1.0000
  H   H1208     1.0  0.12784  0.20588  0.29650  1.0000
  H   H1209     1.0  0.45350  0.62216  0.20588  1.0000
  H   H1210     1.0  0.29650  0.62216  0.54412  1.0000
  H   H1211     1.0  0.45350  0.12784  0.54412  1.0000
  H   H1212     1.0  0.29650  0.12784  0.20588  1.0000
  H   H1213     1.0  0.20588  0.95350  0.12216  1.0000
  H   H1214     1.0  0.54412  0.79650  0.12216  1.0000
  H   H1215     1.0  0.54412  0.95350  0.62784  1.0000
  H   H1216     1.0  0.20588  0.79650  0.62784  1.0000
  H   H1217     1.0  0.62216  0.70588  0.95350  1.0000
  H   H1218     1.0  0.62216  0.04412  0.79650  1.0000
  H   H1219     1.0  0.12784  0.04412  0.95350  1.0000
  H   H1220     1.0  0.12784  0.70588  0.79650  1.0000
  H   H1221     1.0  0.45350  0.12216  0.70588  1.0000
  H   H1222     1.0  0.29650  0.12216  0.04412  1.0000
  H   H1223     1.0  0.45350  0.62784  0.04412  1.0000
  H   H1224     1.0  0.29650  0.62784  0.70588  1.0000
  H   H1225     1.0  0.70588  0.45350  0.12216  1.0000
  H   H1226     1.0  0.04412  0.29650  0.12216  1.0000
  H   H1227     1.0  0.04412  0.45350  0.62784  1.0000
  H   H1228     1.0  0.70588  0.29650  0.62784  1.0000
  H   H1229     1.0  0.12216  0.20588  0.95350  1.0000
  H   H1230     1.0  0.12216  0.54412  0.79650  1.0000
  H   H1231     1.0  0.62784  0.54412  0.95350  1.0000
  H   H1232     1.0  0.62784  0.20588  0.79650  1.0000
  H   H1233     1.0  0.95350  0.62216  0.70588  1.0000
  H   H1234     1.0  0.79650  0.62216  0.04412  1.0000
  H   H1235     1.0  0.95350  0.12784  0.04412  1.0000
  H   H1236     1.0  0.79650  0.12784  0.70588  1.0000
  H   H1237     1.0  0.70588  0.95350  0.62216  1.0000
  H   H1238     1.0  0.04412  0.79650  0.62216  1.0000
  H   H1239     1.0  0.04412  0.95350  0.12784  1.0000
  H   H1240     1.0  0.70588  0.79650  0.12784  1.0000
  H   H1241     1.0  0.12216  0.70588  0.45350  1.0000
  H   H1242     1.0  0.12216  0.04412  0.29650  1.0000
  H   H1243     1.0  0.62784  0.04412  0.45350  1.0000
  H   H1244     1.0  0.62784  0.70588  0.29650  1.0000
  H   H1245     1.0  0.95350  0.12216  0.20588  1.0000
  H   H1246     1.0  0.79650  0.12216  0.54412  1.0000
  H   H1247     1.0  0.95350  0.62784  0.54412  1.0000
  H   H1248     1.0  0.79650  0.62784  0.20588  1.0000
  C   C2209     1.0  0.81502  0.55061  0.41152  1.0000
  C   C2210     1.0  0.43498  0.69939  0.41152  1.0000
  C   C2211     1.0  0.43498  0.55061  0.83848  1.0000
  C   C2212     1.0  0.81502  0.69939  0.83848  1.0000
  C   C2213     1.0  0.41152  0.81502  0.55061  1.0000
  C   C2214     1.0  0.41152  0.43498  0.69939  1.0000
  C   C2215     1.0  0.83848  0.43498  0.55061  1.0000
  C   C2216     1.0  0.83848  0.81502  0.69939  1.0000
  C   C2217     1.0  0.55061  0.41152  0.81502  1.0000
  C   C2218     1.0  0.69939  0.41152  0.43498  1.0000
  C   C2219     1.0  0.55061  0.83848  0.43498  1.0000
  C   C2220     1.0  0.69939  0.83848  0.81502  1.0000
  C   C2221     1.0  0.81502  0.05061  0.91152  1.0000
  C   C2222     1.0  0.43498  0.19939  0.91152  1.0000
  C   C2223     1.0  0.43498  0.05061  0.33848  1.0000
  C   C2224     1.0  0.81502  0.19939  0.33848  1.0000
  C   C2225     1.0  0.41152  0.31502  0.05061  1.0000
  C   C2226     1.0  0.41152  0.93498  0.19939  1.0000
  C   C2227     1.0  0.83848  0.93498  0.05061  1.0000
  C   C2228     1.0  0.83848  0.31502  0.19939  1.0000
  C   C2229     1.0  0.55061  0.91152  0.31502  1.0000
  C   C2230     1.0  0.69939  0.91152  0.93498  1.0000
  C   C2231     1.0  0.55061  0.33848  0.93498  1.0000
  C   C2232     1.0  0.69939  0.33848  0.31502  1.0000
  C   C2233     1.0  0.31502  0.55061  0.91152  1.0000
  C   C2234     1.0  0.93498  0.69939  0.91152  1.0000
  C   C2235     1.0  0.93498  0.55061  0.33848  1.0000
  C   C2236     1.0  0.31502  0.69939  0.33848  1.0000
  C   C2237     1.0  0.91152  0.81502  0.05061  1.0000
  C   C2238     1.0  0.91152  0.43498  0.19939  1.0000
  C   C2239     1.0  0.33848  0.43498  0.05061  1.0000
  C   C2240     1.0  0.33848  0.81502  0.19939  1.0000
  C   C2241     1.0  0.05061  0.41152  0.31502  1.0000
  C   C2242     1.0  0.19939  0.41152  0.93498  1.0000
  C   C2243     1.0  0.05061  0.83848  0.93498  1.0000
  C   C2244     1.0  0.19939  0.83848  0.31502  1.0000
  C   C2245     1.0  0.31502  0.05061  0.41152  1.0000
  C   C2246     1.0  0.93498  0.19939  0.41152  1.0000
  C   C2247     1.0  0.93498  0.05061  0.83848  1.0000
  C   C2248     1.0  0.31502  0.19939  0.83848  1.0000
  C   C2249     1.0  0.91152  0.31502  0.55061  1.0000
  C   C2250     1.0  0.91152  0.93498  0.69939  1.0000
  C   C2251     1.0  0.33848  0.93498  0.55061  1.0000
  C   C2252     1.0  0.33848  0.31502  0.69939  1.0000
  C   C2253     1.0  0.05061  0.91152  0.81502  1.0000
  C   C2254     1.0  0.19939  0.91152  0.43498  1.0000
  C   C2255     1.0  0.05061  0.33848  0.43498  1.0000
  C   C2256     1.0  0.19939  0.33848  0.81502  1.0000
  C   C2257     1.0  0.18498  0.44939  0.58848  1.0000
  C   C2258     1.0  0.56502  0.30061  0.58848  1.0000
  C   C2259     1.0  0.56502  0.44939  0.16152  1.0000
  C   C2260     1.0  0.18498  0.30061  0.16152  1.0000
  C   C2261     1.0  0.58848  0.18498  0.44939  1.0000
  C   C2262     1.0  0.58848  0.56502  0.30061  1.0000
  C   C2263     1.0  0.16152  0.56502  0.44939  1.0000
  C   C2264     1.0  0.16152  0.18498  0.30061  1.0000
  C   C2265     1.0  0.44939  0.58848  0.18498  1.0000
  C   C2266     1.0  0.30061  0.58848  0.56502  1.0000
  C   C2267     1.0  0.44939  0.16152  0.56502  1.0000
  C   C2268     1.0  0.30061  0.16152  0.18498  1.0000
  C   C2269     1.0  0.18498  0.94939  0.08848  1.0000
  C   C2270     1.0  0.56502  0.80061  0.08848  1.0000
  C   C2271     1.0  0.56502  0.94939  0.66152  1.0000
  C   C2272     1.0  0.18498  0.80061  0.66152  1.0000
  C   C2273     1.0  0.58848  0.68498  0.94939  1.0000
  C   C2274     1.0  0.58848  0.06502  0.80061  1.0000
  C   C2275     1.0  0.16152  0.06502  0.94939  1.0000
  C   C2276     1.0  0.16152  0.68498  0.80061  1.0000
  C   C2277     1.0  0.44939  0.08848  0.68498  1.0000
  C   C2278     1.0  0.30061  0.08848  0.06502  1.0000
  C   C2279     1.0  0.44939  0.66152  0.06502  1.0000
  C   C2280     1.0  0.30061  0.66152  0.68498  1.0000
  C   C2281     1.0  0.68498  0.44939  0.08848  1.0000
  C   C2282     1.0  0.06502  0.30061  0.08848  1.0000
  C   C2283     1.0  0.06502  0.44939  0.66152  1.0000
  C   C2284     1.0  0.68498  0.30061  0.66152  1.0000
  C   C2285     1.0  0.08848  0.18498  0.94939  1.0000
  C   C2286     1.0  0.08848  0.56502  0.80061  1.0000
  C   C2287     1.0  0.66152  0.56502  0.94939  1.0000
  C   C2288     1.0  0.66152  0.18498  0.80061  1.0000
  C   C2289     1.0  0.94939  0.58848  0.68498  1.0000
  C   C2290     1.0  0.80061  0.58848  0.06502  1.0000
  C   C2291     1.0  0.94939  0.16152  0.06502  1.0000
  C   C2292     1.0  0.80061  0.16152  0.68498  1.0000
  C   C2293     1.0  0.68498  0.94939  0.58848  1.0000
  C   C2294     1.0  0.06502  0.80061  0.58848  1.0000
  C   C2295     1.0  0.06502  0.94939  0.16152  1.0000
  C   C2296     1.0  0.68498  0.80061  0.16152  1.0000
  C   C2297     1.0  0.08848  0.68498  0.44939  1.0000
  C   C2298     1.0  0.08848  0.06502  0.30061  1.0000
  C   C2299     1.0  0.66152  0.06502  0.44939  1.0000
  C   C2300     1.0  0.66152  0.68498  0.30061  1.0000
  C   C2301     1.0  0.94939  0.08848  0.18498  1.0000
  C   C2302     1.0  0.80061  0.08848  0.56502  1.0000
  C   C2303     1.0  0.94939  0.66152  0.56502  1.0000
  C   C2304     1.0  0.80061  0.66152  0.18498  1.0000
  H   H1249     1.0  0.82974  0.54082  0.40619  1.0000
  H   H1250     1.0  0.42026  0.70918  0.40619  1.0000
  H   H1251     1.0  0.42026  0.54082  0.84381  1.0000
  H   H1252     1.0  0.82974  0.70918  0.84381  1.0000
  H   H1253     1.0  0.40619  0.82974  0.54082  1.0000
  H   H1254     1.0  0.40619  0.42026  0.70918  1.0000
  H   H1255     1.0  0.84381  0.42026  0.54082  1.0000
  H   H1256     1.0  0.84381  0.82974  0.70918  1.0000
  H   H1257     1.0  0.54082  0.40619  0.82974  1.0000
  H   H1258     1.0  0.70918  0.40619  0.42026  1.0000
  H   H1259     1.0  0.54082  0.84381  0.42026  1.0000
  H   H1260     1.0  0.70918  0.84381  0.82974  1.0000
  H   H1261     1.0  0.82974  0.04082  0.90619  1.0000
  H   H1262     1.0  0.42026  0.20918  0.90619  1.0000
  H   H1263     1.0  0.42026  0.04082  0.34381  1.0000
  H   H1264     1.0  0.82974  0.20918  0.34381  1.0000
  H   H1265     1.0  0.40619  0.32974  0.04082  1.0000
  H   H1266     1.0  0.40619  0.92026  0.20918  1.0000
  H   H1267     1.0  0.84381  0.92026  0.04082  1.0000
  H   H1268     1.0  0.84381  0.32974  0.20918  1.0000
  H   H1269     1.0  0.54082  0.90619  0.32974  1.0000
  H   H1270     1.0  0.70918  0.90619  0.92026  1.0000
  H   H1271     1.0  0.54082  0.34381  0.92026  1.0000
  H   H1272     1.0  0.70918  0.34381  0.32974  1.0000
  H   H1273     1.0  0.32974  0.54082  0.90619  1.0000
  H   H1274     1.0  0.92026  0.70918  0.90619  1.0000
  H   H1275     1.0  0.92026  0.54082  0.34381  1.0000
  H   H1276     1.0  0.32974  0.70918  0.34381  1.0000
  H   H1277     1.0  0.90619  0.82974  0.04082  1.0000
  H   H1278     1.0  0.90619  0.42026  0.20918  1.0000
  H   H1279     1.0  0.34381  0.42026  0.04082  1.0000
  H   H1280     1.0  0.34381  0.82974  0.20918  1.0000
  H   H1281     1.0  0.04082  0.40619  0.32974  1.0000
  H   H1282     1.0  0.20918  0.40619  0.92026  1.0000
  H   H1283     1.0  0.04082  0.84381  0.92026  1.0000
  H   H1284     1.0  0.20918  0.84381  0.32974  1.0000
  H   H1285     1.0  0.32974  0.04082  0.40619  1.0000
  H   H1286     1.0  0.92026  0.20918  0.40619  1.0000
  H   H1287     1.0  0.92026  0.04082  0.84381  1.0000
  H   H1288     1.0  0.32974  0.20918  0.84381  1.0000
  H   H1289     1.0  0.90619  0.32974  0.54082  1.0000
  H   H1290     1.0  0.90619  0.92026  0.70918  1.0000
  H   H1291     1.0  0.34381  0.92026  0.54082  1.0000
  H   H1292     1.0  0.34381  0.32974  0.70918  1.0000
  H   H1293     1.0  0.04082  0.90619  0.82974  1.0000
  H   H1294     1.0  0.20918  0.90619  0.42026  1.0000
  H   H1295     1.0  0.04082  0.34381  0.42026  1.0000
  H   H1296     1.0  0.20918  0.34381  0.82974  1.0000
  H   H1297     1.0  0.17026  0.45918  0.59381  1.0000
  H   H1298     1.0  0.57974  0.29082  0.59381  1.0000
  H   H1299     1.0  0.57974  0.45918  0.15619  1.0000
  H   H1300     1.0  0.17026  0.29082  0.15619  1.0000
  H   H1301     1.0  0.59381  0.17026  0.45918  1.0000
  H   H1302     1.0  0.59381  0.57974  0.29082  1.0000
  H   H1303     1.0  0.15619  0.57974  0.45918  1.0000
  H   H1304     1.0  0.15619  0.17026  0.29082  1.0000
  H   H1305     1.0  0.45918  0.59381  0.17026  1.0000
  H   H1306     1.0  0.29082  0.59381  0.57974  1.0000
  H   H1307     1.0  0.45918  0.15619  0.57974  1.0000
  H   H1308     1.0  0.29082  0.15619  0.17026  1.0000
  H   H1309     1.0  0.17026  0.95918  0.09381  1.0000
  H   H1310     1.0  0.57974  0.79082  0.09381  1.0000
  H   H1311     1.0  0.57974  0.95918  0.65619  1.0000
  H   H1312     1.0  0.17026  0.79082  0.65619  1.0000
  H   H1313     1.0  0.59381  0.67026  0.95918  1.0000
  H   H1314     1.0  0.59381  0.07974  0.79082  1.0000
  H   H1315     1.0  0.15619  0.07974  0.95918  1.0000
  H   H1316     1.0  0.15619  0.67026  0.79082  1.0000
  H   H1317     1.0  0.45918  0.09381  0.67026  1.0000
  H   H1318     1.0  0.29082  0.09381  0.07974  1.0000
  H   H1319     1.0  0.45918  0.65619  0.07974  1.0000
  H   H1320     1.0  0.29082  0.65619  0.67026  1.0000
  H   H1321     1.0  0.67026  0.45918  0.09381  1.0000
  H   H1322     1.0  0.07974  0.29082  0.09381  1.0000
  H   H1323     1.0  0.07974  0.45918  0.65619  1.0000
  H   H1324     1.0  0.67026  0.29082  0.65619  1.0000
  H   H1325     1.0  0.09381  0.17026  0.95918  1.0000
  H   H1326     1.0  0.09381  0.57974  0.79082  1.0000
  H   H1327     1.0  0.65619  0.57974  0.95918  1.0000
  H   H1328     1.0  0.65619  0.17026  0.79082  1.0000
  H   H1329     1.0  0.95918  0.59381  0.67026  1.0000
  H   H1330     1.0  0.79082  0.59381  0.07974  1.0000
  H   H1331     1.0  0.95918  0.15619  0.07974  1.0000
  H   H1332     1.0  0.79082  0.15619  0.67026  1.0000
  H   H1333     1.0  0.67026  0.95918  0.59381  1.0000
  H   H1334     1.0  0.07974  0.79082  0.59381  1.0000
  H   H1335     1.0  0.07974  0.95918  0.15619  1.0000
  H   H1336     1.0  0.67026  0.79082  0.15619  1.0000
  H   H1337     1.0  0.09381  0.67026  0.45918  1.0000
  H   H1338     1.0  0.09381  0.07974  0.29082  1.0000
  H   H1339     1.0  0.65619  0.07974  0.45918  1.0000
  H   H1340     1.0  0.65619  0.67026  0.29082  1.0000
  H   H1341     1.0  0.95918  0.09381  0.17026  1.0000
  H   H1342     1.0  0.79082  0.09381  0.57974  1.0000
  H   H1343     1.0  0.95918  0.65619  0.57974  1.0000
  H   H1344     1.0  0.79082  0.65619  0.17026  1.0000
  C   C2305     1.0  0.77306  0.58120  0.42689  1.0000
  C   C2306     1.0  0.47694  0.66880  0.42689  1.0000
  C   C2307     1.0  0.47694  0.58120  0.82311  1.0000
  C   C2308     1.0  0.77306  0.66880  0.82311  1.0000
  C   C2309     1.0  0.42689  0.77306  0.58120  1.0000
  C   C2310     1.0  0.42689  0.47694  0.66880  1.0000
  C   C2311     1.0  0.82311  0.47694  0.58120  1.0000
  C   C2312     1.0  0.82311  0.77306  0.66880  1.0000
  C   C2313     1.0  0.58120  0.42689  0.77306  1.0000
  C   C2314     1.0  0.66880  0.42689  0.47694  1.0000
  C   C2315     1.0  0.58120  0.82311  0.47694  1.0000
  C   C2316     1.0  0.66880  0.82311  0.77306  1.0000
  C   C2317     1.0  0.77306  0.08120  0.92689  1.0000
  C   C2318     1.0  0.47694  0.16880  0.92689  1.0000
  C   C2319     1.0  0.47694  0.08120  0.32311  1.0000
  C   C2320     1.0  0.77306  0.16880  0.32311  1.0000
  C   C2321     1.0  0.42689  0.27306  0.08120  1.0000
  C   C2322     1.0  0.42689  0.97694  0.16880  1.0000
  C   C2323     1.0  0.82311  0.97694  0.08120  1.0000
  C   C2324     1.0  0.82311  0.27306  0.16880  1.0000
  C   C2325     1.0  0.58120  0.92689  0.27306  1.0000
  C   C2326     1.0  0.66880  0.92689  0.97694  1.0000
  C   C2327     1.0  0.58120  0.32311  0.97694  1.0000
  C   C2328     1.0  0.66880  0.32311  0.27306  1.0000
  C   C2329     1.0  0.27306  0.58120  0.92689  1.0000
  C   C2330     1.0  0.97694  0.66880  0.92689  1.0000
  C   C2331     1.0  0.97694  0.58120  0.32311  1.0000
  C   C2332     1.0  0.27306  0.66880  0.32311  1.0000
  C   C2333     1.0  0.92689  0.77306  0.08120  1.0000
  C   C2334     1.0  0.92689  0.47694  0.16880  1.0000
  C   C2335     1.0  0.32311  0.47694  0.08120  1.0000
  C   C2336     1.0  0.32311  0.77306  0.16880  1.0000
  C   C2337     1.0  0.08120  0.42689  0.27306  1.0000
  C   C2338     1.0  0.16880  0.42689  0.97694  1.0000
  C   C2339     1.0  0.08120  0.82311  0.97694  1.0000
  C   C2340     1.0  0.16880  0.82311  0.27306  1.0000
  C   C2341     1.0  0.27306  0.08120  0.42689  1.0000
  C   C2342     1.0  0.97694  0.16880  0.42689  1.0000
  C   C2343     1.0  0.97694  0.08120  0.82311  1.0000
  C   C2344     1.0  0.27306  0.16880  0.82311  1.0000
  C   C2345     1.0  0.92689  0.27306  0.58120  1.0000
  C   C2346     1.0  0.92689  0.97694  0.66880  1.0000
  C   C2347     1.0  0.32311  0.97694  0.58120  1.0000
  C   C2348     1.0  0.32311  0.27306  0.66880  1.0000
  C   C2349     1.0  0.08120  0.92689  0.77306  1.0000
  C   C2350     1.0  0.16880  0.92689  0.47694  1.0000
  C   C2351     1.0  0.08120  0.32311  0.47694  1.0000
  C   C2352     1.0  0.16880  0.32311  0.77306  1.0000
  C   C2353     1.0  0.22694  0.41880  0.57311  1.0000
  C   C2354     1.0  0.52306  0.33120  0.57311  1.0000
  C   C2355     1.0  0.52306  0.41880  0.17689  1.0000
  C   C2356     1.0  0.22694  0.33120  0.17689  1.0000
  C   C2357     1.0  0.57311  0.22694  0.41880  1.0000
  C   C2358     1.0  0.57311  0.52306  0.33120  1.0000
  C   C2359     1.0  0.17689  0.52306  0.41880  1.0000
  C   C2360     1.0  0.17689  0.22694  0.33120  1.0000
  C   C2361     1.0  0.41880  0.57311  0.22694  1.0000
  C   C2362     1.0  0.33120  0.57311  0.52306  1.0000
  C   C2363     1.0  0.41880  0.17689  0.52306  1.0000
  C   C2364     1.0  0.33120  0.17689  0.22694  1.0000
  C   C2365     1.0  0.22694  0.91880  0.07311  1.0000
  C   C2366     1.0  0.52306  0.83120  0.07311  1.0000
  C   C2367     1.0  0.52306  0.91880  0.67689  1.0000
  C   C2368     1.0  0.22694  0.83120  0.67689  1.0000
  C   C2369     1.0  0.57311  0.72694  0.91880  1.0000
  C   C2370     1.0  0.57311  0.02306  0.83120  1.0000
  C   C2371     1.0  0.17689  0.02306  0.91880  1.0000
  C   C2372     1.0  0.17689  0.72694  0.83120  1.0000
  C   C2373     1.0  0.41880  0.07311  0.72694  1.0000
  C   C2374     1.0  0.33120  0.07311  0.02306  1.0000
  C   C2375     1.0  0.41880  0.67689  0.02306  1.0000
  C   C2376     1.0  0.33120  0.67689  0.72694  1.0000
  C   C2377     1.0  0.72694  0.41880  0.07311  1.0000
  C   C2378     1.0  0.02306  0.33120  0.07311  1.0000
  C   C2379     1.0  0.02306  0.41880  0.67689  1.0000
  C   C2380     1.0  0.72694  0.33120  0.67689  1.0000
  C   C2381     1.0  0.07311  0.22694  0.91880  1.0000
  C   C2382     1.0  0.07311  0.52306  0.83120  1.0000
  C   C2383     1.0  0.67689  0.52306  0.91880  1.0000
  C   C2384     1.0  0.67689  0.22694  0.83120  1.0000
  C   C2385     1.0  0.91880  0.57311  0.72694  1.0000
  C   C2386     1.0  0.83120  0.57311  0.02306  1.0000
  C   C2387     1.0  0.91880  0.17689  0.02306  1.0000
  C   C2388     1.0  0.83120  0.17689  0.72694  1.0000
  C   C2389     1.0  0.72694  0.91880  0.57311  1.0000
  C   C2390     1.0  0.02306  0.83120  0.57311  1.0000
  C   C2391     1.0  0.02306  0.91880  0.17689  1.0000
  C   C2392     1.0  0.72694  0.83120  0.17689  1.0000
  C   C2393     1.0  0.07311  0.72694  0.41880  1.0000
  C   C2394     1.0  0.07311  0.02306  0.33120  1.0000
  C   C2395     1.0  0.67689  0.02306  0.41880  1.0000
  C   C2396     1.0  0.67689  0.72694  0.33120  1.0000
  C   C2397     1.0  0.91880  0.07311  0.22694  1.0000
  C   C2398     1.0  0.83120  0.07311  0.52306  1.0000
  C   C2399     1.0  0.91880  0.67689  0.52306  1.0000
  C   C2400     1.0  0.83120  0.67689  0.22694  1.0000
  H   H1345     1.0  0.75948  0.59268  0.43183  1.0000
  H   H1346     1.0  0.49052  0.65732  0.43183  1.0000
  H   H1347     1.0  0.49052  0.59268  0.81817  1.0000
  H   H1348     1.0  0.75948  0.65732  0.81817  1.0000
  H   H1349     1.0  0.43183  0.75948  0.59268  1.0000
  H   H1350     1.0  0.43183  0.49052  0.65732  1.0000
  H   H1351     1.0  0.81817  0.49052  0.59268  1.0000
  H   H1352     1.0  0.81817  0.75948  0.65732  1.0000
  H   H1353     1.0  0.59268  0.43183  0.75948  1.0000
  H   H1354     1.0  0.65732  0.43183  0.49052  1.0000
  H   H1355     1.0  0.59268  0.81817  0.49052  1.0000
  H   H1356     1.0  0.65732  0.81817  0.75948  1.0000
  H   H1357     1.0  0.75948  0.09268  0.93183  1.0000
  H   H1358     1.0  0.49052  0.15732  0.93183  1.0000
  H   H1359     1.0  0.49052  0.09268  0.31817  1.0000
  H   H1360     1.0  0.75948  0.15732  0.31817  1.0000
  H   H1361     1.0  0.43183  0.25948  0.09268  1.0000
  H   H1362     1.0  0.43183  0.99052  0.15732  1.0000
  H   H1363     1.0  0.81817  0.99052  0.09268  1.0000
  H   H1364     1.0  0.81817  0.25948  0.15732  1.0000
  H   H1365     1.0  0.59268  0.93183  0.25948  1.0000
  H   H1366     1.0  0.65732  0.93183  0.99052  1.0000
  H   H1367     1.0  0.59268  0.31817  0.99052  1.0000
  H   H1368     1.0  0.65732  0.31817  0.25948  1.0000
  H   H1369     1.0  0.25948  0.59268  0.93183  1.0000
  H   H1370     1.0  0.99052  0.65732  0.93183  1.0000
  H   H1371     1.0  0.99052  0.59268  0.31817  1.0000
  H   H1372     1.0  0.25948  0.65732  0.31817  1.0000
  H   H1373     1.0  0.93183  0.75948  0.09268  1.0000
  H   H1374     1.0  0.93183  0.49052  0.15732  1.0000
  H   H1375     1.0  0.31817  0.49052  0.09268  1.0000
  H   H1376     1.0  0.31817  0.75948  0.15732  1.0000
  H   H1377     1.0  0.09268  0.43183  0.25948  1.0000
  H   H1378     1.0  0.15732  0.43183  0.99052  1.0000
  H   H1379     1.0  0.09268  0.81817  0.99052  1.0000
  H   H1380     1.0  0.15732  0.81817  0.25948  1.0000
  H   H1381     1.0  0.25948  0.09268  0.43183  1.0000
  H   H1382     1.0  0.99052  0.15732  0.43183  1.0000
  H   H1383     1.0  0.99052  0.09268  0.81817  1.0000
  H   H1384     1.0  0.25948  0.15732  0.81817  1.0000
  H   H1385     1.0  0.93183  0.25948  0.59268  1.0000
  H   H1386     1.0  0.93183  0.99052  0.65732  1.0000
  H   H1387     1.0  0.31817  0.99052  0.59268  1.0000
  H   H1388     1.0  0.31817  0.25948  0.65732  1.0000
  H   H1389     1.0  0.09268  0.93183  0.75948  1.0000
  H   H1390     1.0  0.15732  0.93183  0.49052  1.0000
  H   H1391     1.0  0.09268  0.31817  0.49052  1.0000
  H   H1392     1.0  0.15732  0.31817  0.75948  1.0000
  H   H1393     1.0  0.24052  0.40732  0.56817  1.0000
  H   H1394     1.0  0.50948  0.34268  0.56817  1.0000
  H   H1395     1.0  0.50948  0.40732  0.18183  1.0000
  H   H1396     1.0  0.24052  0.34268  0.18183  1.0000
  H   H1397     1.0  0.56817  0.24052  0.40732  1.0000
  H   H1398     1.0  0.56817  0.50948  0.34268  1.0000
  H   H1399     1.0  0.18183  0.50948  0.40732  1.0000
  H   H1400     1.0  0.18183  0.24052  0.34268  1.0000
  H   H1401     1.0  0.40732  0.56817  0.24052  1.0000
  H   H1402     1.0  0.34268  0.56817  0.50948  1.0000
  H   H1403     1.0  0.40732  0.18183  0.50948  1.0000
  H   H1404     1.0  0.34268  0.18183  0.24052  1.0000
  H   H1405     1.0  0.24052  0.90732  0.06817  1.0000
  H   H1406     1.0  0.50948  0.84268  0.06817  1.0000
  H   H1407     1.0  0.50948  0.90732  0.68183  1.0000
  H   H1408     1.0  0.24052  0.84268  0.68183  1.0000
  H   H1409     1.0  0.56817  0.74052  0.90732  1.0000
  H   H1410     1.0  0.56817  0.00948  0.84268  1.0000
  H   H1411     1.0  0.18183  0.00948  0.90732  1.0000
  H   H1412     1.0  0.18183  0.74052  0.84268  1.0000
  H   H1413     1.0  0.40732  0.06817  0.74052  1.0000
  H   H1414     1.0  0.34268  0.06817  0.00948  1.0000
  H   H1415     1.0  0.40732  0.68183  0.00948  1.0000
  H   H1416     1.0  0.34268  0.68183  0.74052  1.0000
  H   H1417     1.0  0.74052  0.40732  0.06817  1.0000
  H   H1418     1.0  0.00948  0.34268  0.06817  1.0000
  H   H1419     1.0  0.00948  0.40732  0.68183  1.0000
  H   H1420     1.0  0.74052  0.34268  0.68183  1.0000
  H   H1421     1.0  0.06817  0.24052  0.90732  1.0000
  H   H1422     1.0  0.06817  0.50948  0.84268  1.0000
  H   H1423     1.0  0.68183  0.50948  0.90732  1.0000
  H   H1424     1.0  0.68183  0.24052  0.84268  1.0000
  H   H1425     1.0  0.90732  0.56817  0.74052  1.0000
  H   H1426     1.0  0.84268  0.56817  0.00948  1.0000
  H   H1427     1.0  0.90732  0.18183  0.00948  1.0000
  H   H1428     1.0  0.84268  0.18183  0.74052  1.0000
  H   H1429     1.0  0.74052  0.90732  0.56817  1.0000
  H   H1430     1.0  0.00948  0.84268  0.56817  1.0000
  H   H1431     1.0  0.00948  0.90732  0.18183  1.0000
  H   H1432     1.0  0.74052  0.84268  0.18183  1.0000
  H   H1433     1.0  0.06817  0.74052  0.40732  1.0000
  H   H1434     1.0  0.06817  0.00948  0.34268  1.0000
  H   H1435     1.0  0.68183  0.00948  0.40732  1.0000
  H   H1436     1.0  0.68183  0.74052  0.34268  1.0000
  H   H1437     1.0  0.90732  0.06817  0.24052  1.0000
  H   H1438     1.0  0.84268  0.06817  0.50948  1.0000
  H   H1439     1.0  0.90732  0.68183  0.50948  1.0000
  H   H1440     1.0  0.84268  0.68183  0.24052  1.0000
  C   C2401     1.0  0.79224  0.57640  0.44371  1.0000
  C   C2402     1.0  0.45776  0.67360  0.44371  1.0000
  C   C2403     1.0  0.45776  0.57640  0.80629  1.0000
  C   C2404     1.0  0.79224  0.67360  0.80629  1.0000
  C   C2405     1.0  0.44371  0.79224  0.57640  1.0000
  C   C2406     1.0  0.44371  0.45776  0.67360  1.0000
  C   C2407     1.0  0.80629  0.45776  0.57640  1.0000
  C   C2408     1.0  0.80629  0.79224  0.67360  1.0000
  C   C2409     1.0  0.57640  0.44371  0.79224  1.0000
  C   C2410     1.0  0.67360  0.44371  0.45776  1.0000
  C   C2411     1.0  0.57640  0.80629  0.45776  1.0000
  C   C2412     1.0  0.67360  0.80629  0.79224  1.0000
  C   C2413     1.0  0.79224  0.07640  0.94371  1.0000
  C   C2414     1.0  0.45776  0.17360  0.94371  1.0000
  C   C2415     1.0  0.45776  0.07640  0.30629  1.0000
  C   C2416     1.0  0.79224  0.17360  0.30629  1.0000
  C   C2417     1.0  0.44371  0.29224  0.07640  1.0000
  C   C2418     1.0  0.44371  0.95776  0.17360  1.0000
  C   C2419     1.0  0.80629  0.95776  0.07640  1.0000
  C   C2420     1.0  0.80629  0.29224  0.17360  1.0000
  C   C2421     1.0  0.57640  0.94371  0.29224  1.0000
  C   C2422     1.0  0.67360  0.94371  0.95776  1.0000
  C   C2423     1.0  0.57640  0.30629  0.95776  1.0000
  C   C2424     1.0  0.67360  0.30629  0.29224  1.0000
  C   C2425     1.0  0.29224  0.57640  0.94371  1.0000
  C   C2426     1.0  0.95776  0.67360  0.94371  1.0000
  C   C2427     1.0  0.95776  0.57640  0.30629  1.0000
  C   C2428     1.0  0.29224  0.67360  0.30629  1.0000
  C   C2429     1.0  0.94371  0.79224  0.07640  1.0000
  C   C2430     1.0  0.94371  0.45776  0.17360  1.0000
  C   C2431     1.0  0.30629  0.45776  0.07640  1.0000
  C   C2432     1.0  0.30629  0.79224  0.17360  1.0000
  C   C2433     1.0  0.07640  0.44371  0.29224  1.0000
  C   C2434     1.0  0.17360  0.44371  0.95776  1.0000
  C   C2435     1.0  0.07640  0.80629  0.95776  1.0000
  C   C2436     1.0  0.17360  0.80629  0.29224  1.0000
  C   C2437     1.0  0.29224  0.07640  0.44371  1.0000
  C   C2438     1.0  0.95776  0.17360  0.44371  1.0000
  C   C2439     1.0  0.95776  0.07640  0.80629  1.0000
  C   C2440     1.0  0.29224  0.17360  0.80629  1.0000
  C   C2441     1.0  0.94371  0.29224  0.57640  1.0000
  C   C2442     1.0  0.94371  0.95776  0.67360  1.0000
  C   C2443     1.0  0.30629  0.95776  0.57640  1.0000
  C   C2444     1.0  0.30629  0.29224  0.67360  1.0000
  C   C2445     1.0  0.07640  0.94371  0.79224  1.0000
  C   C2446     1.0  0.17360  0.94371  0.45776  1.0000
  C   C2447     1.0  0.07640  0.30629  0.45776  1.0000
  C   C2448     1.0  0.17360  0.30629  0.79224  1.0000
  C   C2449     1.0  0.20776  0.42360  0.55629  1.0000
  C   C2450     1.0  0.54224  0.32640  0.55629  1.0000
  C   C2451     1.0  0.54224  0.42360  0.19371  1.0000
  C   C2452     1.0  0.20776  0.32640  0.19371  1.0000
  C   C2453     1.0  0.55629  0.20776  0.42360  1.0000
  C   C2454     1.0  0.55629  0.54224  0.32640  1.0000
  C   C2455     1.0  0.19371  0.54224  0.42360  1.0000
  C   C2456     1.0  0.19371  0.20776  0.32640  1.0000
  C   C2457     1.0  0.42360  0.55629  0.20776  1.0000
  C   C2458     1.0  0.32640  0.55629  0.54224  1.0000
  C   C2459     1.0  0.42360  0.19371  0.54224  1.0000
  C   C2460     1.0  0.32640  0.19371  0.20776  1.0000
  C   C2461     1.0  0.20776  0.92360  0.05629  1.0000
  C   C2462     1.0  0.54224  0.82640  0.05629  1.0000
  C   C2463     1.0  0.54224  0.92360  0.69371  1.0000
  C   C2464     1.0  0.20776  0.82640  0.69371  1.0000
  C   C2465     1.0  0.55629  0.70776  0.92360  1.0000
  C   C2466     1.0  0.55629  0.04224  0.82640  1.0000
  C   C2467     1.0  0.19371  0.04224  0.92360  1.0000
  C   C2468     1.0  0.19371  0.70776  0.82640  1.0000
  C   C2469     1.0  0.42360  0.05629  0.70776  1.0000
  C   C2470     1.0  0.32640  0.05629  0.04224  1.0000
  C   C2471     1.0  0.42360  0.69371  0.04224  1.0000
  C   C2472     1.0  0.32640  0.69371  0.70776  1.0000
  C   C2473     1.0  0.70776  0.42360  0.05629  1.0000
  C   C2474     1.0  0.04224  0.32640  0.05629  1.0000
  C   C2475     1.0  0.04224  0.42360  0.69371  1.0000
  C   C2476     1.0  0.70776  0.32640  0.69371  1.0000
  C   C2477     1.0  0.05629  0.20776  0.92360  1.0000
  C   C2478     1.0  0.05629  0.54224  0.82640  1.0000
  C   C2479     1.0  0.69371  0.54224  0.92360  1.0000
  C   C2480     1.0  0.69371  0.20776  0.82640  1.0000
  C   C2481     1.0  0.92360  0.55629  0.70776  1.0000
  C   C2482     1.0  0.82640  0.55629  0.04224  1.0000
  C   C2483     1.0  0.92360  0.19371  0.04224  1.0000
  C   C2484     1.0  0.82640  0.19371  0.70776  1.0000
  C   C2485     1.0  0.70776  0.92360  0.55629  1.0000
  C   C2486     1.0  0.04224  0.82640  0.55629  1.0000
  C   C2487     1.0  0.04224  0.92360  0.19371  1.0000
  C   C2488     1.0  0.70776  0.82640  0.19371  1.0000
  C   C2489     1.0  0.05629  0.70776  0.42360  1.0000
  C   C2490     1.0  0.05629  0.04224  0.32640  1.0000
  C   C2491     1.0  0.69371  0.04224  0.42360  1.0000
  C   C2492     1.0  0.69371  0.70776  0.32640  1.0000
  C   C2493     1.0  0.92360  0.05629  0.20776  1.0000
  C   C2494     1.0  0.82640  0.05629  0.54224  1.0000
  C   C2495     1.0  0.92360  0.69371  0.54224  1.0000
  C   C2496     1.0  0.82640  0.69371  0.20776  1.0000
  H   H1441     1.0  0.79112  0.58310  0.46087  1.0000
  H   H1442     1.0  0.45888  0.66690  0.46087  1.0000
  H   H1443     1.0  0.45888  0.58310  0.78913  1.0000
  H   H1444     1.0  0.79112  0.66690  0.78913  1.0000
  H   H1445     1.0  0.46087  0.79112  0.58310  1.0000
  H   H1446     1.0  0.46087  0.45888  0.66690  1.0000
  H   H1447     1.0  0.78913  0.45888  0.58310  1.0000
  H   H1448     1.0  0.78913  0.79112  0.66690  1.0000
  H   H1449     1.0  0.58310  0.46087  0.79112  1.0000
  H   H1450     1.0  0.66690  0.46087  0.45888  1.0000
  H   H1451     1.0  0.58310  0.78913  0.45888  1.0000
  H   H1452     1.0  0.66690  0.78913  0.79112  1.0000
  H   H1453     1.0  0.79112  0.08310  0.96087  1.0000
  H   H1454     1.0  0.45888  0.16690  0.96087  1.0000
  H   H1455     1.0  0.45888  0.08310  0.28913  1.0000
  H   H1456     1.0  0.79112  0.16690  0.28913  1.0000
  H   H1457     1.0  0.46087  0.29112  0.08310  1.0000
  H   H1458     1.0  0.46087  0.95888  0.16690  1.0000
  H   H1459     1.0  0.78913  0.95888  0.08310  1.0000
  H   H1460     1.0  0.78913  0.29112  0.16690  1.0000
  H   H1461     1.0  0.58310  0.96087  0.29112  1.0000
  H   H1462     1.0  0.66690  0.96087  0.95888  1.0000
  H   H1463     1.0  0.58310  0.28913  0.95888  1.0000
  H   H1464     1.0  0.66690  0.28913  0.29112  1.0000
  H   H1465     1.0  0.29112  0.58310  0.96087  1.0000
  H   H1466     1.0  0.95888  0.66690  0.96087  1.0000
  H   H1467     1.0  0.95888  0.58310  0.28913  1.0000
  H   H1468     1.0  0.29112  0.66690  0.28913  1.0000
  H   H1469     1.0  0.96087  0.79112  0.08310  1.0000
  H   H1470     1.0  0.96087  0.45888  0.16690  1.0000
  H   H1471     1.0  0.28913  0.45888  0.08310  1.0000
  H   H1472     1.0  0.28913  0.79112  0.16690  1.0000
  H   H1473     1.0  0.08310  0.46087  0.29112  1.0000
  H   H1474     1.0  0.16690  0.46087  0.95888  1.0000
  H   H1475     1.0  0.08310  0.78913  0.95888  1.0000
  H   H1476     1.0  0.16690  0.78913  0.29112  1.0000
  H   H1477     1.0  0.29112  0.08310  0.46087  1.0000
  H   H1478     1.0  0.95888  0.16690  0.46087  1.0000
  H   H1479     1.0  0.95888  0.08310  0.78913  1.0000
  H   H1480     1.0  0.29112  0.16690  0.78913  1.0000
  H   H1481     1.0  0.96087  0.29112  0.58310  1.0000
  H   H1482     1.0  0.96087  0.95888  0.66690  1.0000
  H   H1483     1.0  0.28913  0.95888  0.58310  1.0000
  H   H1484     1.0  0.28913  0.29112  0.66690  1.0000
  H   H1485     1.0  0.08310  0.96087  0.79112  1.0000
  H   H1486     1.0  0.16690  0.96087  0.45888  1.0000
  H   H1487     1.0  0.08310  0.28913  0.45888  1.0000
  H   H1488     1.0  0.16690  0.28913  0.79112  1.0000
  H   H1489     1.0  0.20888  0.41690  0.53913  1.0000
  H   H1490     1.0  0.54112  0.33310  0.53913  1.0000
  H   H1491     1.0  0.54112  0.41690  0.21087  1.0000
  H   H1492     1.0  0.20888  0.33310  0.21087  1.0000
  H   H1493     1.0  0.53913  0.20888  0.41690  1.0000
  H   H1494     1.0  0.53913  0.54112  0.33310  1.0000
  H   H1495     1.0  0.21087  0.54112  0.41690  1.0000
  H   H1496     1.0  0.21087  0.20888  0.33310  1.0000
  H   H1497     1.0  0.41690  0.53913  0.20888  1.0000
  H   H1498     1.0  0.33310  0.53913  0.54112  1.0000
  H   H1499     1.0  0.41690  0.21087  0.54112  1.0000
  H   H1500     1.0  0.33310  0.21087  0.20888  1.0000
  H   H1501     1.0  0.20888  0.91690  0.03913  1.0000
  H   H1502     1.0  0.54112  0.83310  0.03913  1.0000
  H   H1503     1.0  0.54112  0.91690  0.71087  1.0000
  H   H1504     1.0  0.20888  0.83310  0.71087  1.0000
  H   H1505     1.0  0.53913  0.70888  0.91690  1.0000
  H   H1506     1.0  0.53913  0.04112  0.83310  1.0000
  H   H1507     1.0  0.21087  0.04112  0.91690  1.0000
  H   H1508     1.0  0.21087  0.70888  0.83310  1.0000
  H   H1509     1.0  0.41690  0.03913  0.70888  1.0000
  H   H1510     1.0  0.33310  0.03913  0.04112  1.0000
  H   H1511     1.0  0.41690  0.71087  0.04112  1.0000
  H   H1512     1.0  0.33310  0.71087  0.70888  1.0000
  H   H1513     1.0  0.70888  0.41690  0.03913  1.0000
  H   H1514     1.0  0.04112  0.33310  0.03913  1.0000
  H   H1515     1.0  0.04112  0.41690  0.71087  1.0000
  H   H1516     1.0  0.70888  0.33310  0.71087  1.0000
  H   H1517     1.0  0.03913  0.20888  0.91690  1.0000
  H   H1518     1.0  0.03913  0.54112  0.83310  1.0000
  H   H1519     1.0  0.71087  0.54112  0.91690  1.0000
  H   H1520     1.0  0.71087  0.20888  0.83310  1.0000
  H   H1521     1.0  0.91690  0.53913  0.70888  1.0000
  H   H1522     1.0  0.83310  0.53913  0.04112  1.0000
  H   H1523     1.0  0.91690  0.21087  0.04112  1.0000
  H   H1524     1.0  0.83310  0.21087  0.70888  1.0000
  H   H1525     1.0  0.70888  0.91690  0.53913  1.0000
  H   H1526     1.0  0.04112  0.83310  0.53913  1.0000
  H   H1527     1.0  0.04112  0.91690  0.21087  1.0000
  H   H1528     1.0  0.70888  0.83310  0.21087  1.0000
  H   H1529     1.0  0.03913  0.70888  0.41690  1.0000
  H   H1530     1.0  0.03913  0.04112  0.33310  1.0000
  H   H1531     1.0  0.71087  0.04112  0.41690  1.0000
  H   H1532     1.0  0.71087  0.70888  0.33310  1.0000
  H   H1533     1.0  0.91690  0.03913  0.20888  1.0000
  H   H1534     1.0  0.83310  0.03913  0.54112  1.0000
  H   H1535     1.0  0.91690  0.71087  0.54112  1.0000
  H   H1536     1.0  0.83310  0.71087  0.20888  1.0000
