data_image0
_chemical_formula_structural       Fe2Ga2O24C12H12
_chemical_formula_sum              "Fe2 Ga2 O24 C12 H12"
_cell_length_a       8.215
_cell_length_b       8.215
_cell_length_c       13.616
_cell_angle_alpha    90
_cell_angle_beta     90
_cell_angle_gamma    120

_space_group_name_H-M_alt    "P 1"
_space_group_IT_number       1

loop_
  _space_group_symop_operation_xyz
  'x, y, z'

loop_
  _atom_site_type_symbol
  _atom_site_label
  _atom_site_symmetry_multiplicity
  _atom_site_fract_x
  _atom_site_fract_y
  _atom_site_fract_z
  _atom_site_occupancy
  Fe  Fe1       1.0  0.66670  0.33330  0.25000  1.0000
  Fe  Fe2       1.0  0.33330  0.66670  0.75000  1.0000
  Ga  Ga1       1.0  0.00000  0.00000  0.00000  1.0000
  Ga  Ga2       1.0  0.00000  0.00000  0.50000  1.0000
  O   O1        1.0  0.65850  0.11310  0.16563  1.0000
  O   O2        1.0  0.88690  0.54540  0.16563  1.0000
  O   O3        1.0  0.45460  0.34150  0.16563  1.0000
  O   O4        1.0  0.88690  0.34150  0.33437  1.0000
  O   O5        1.0  0.45460  0.11310  0.33437  1.0000
  O   O6        1.0  0.65850  0.54540  0.33437  1.0000
  O   O7        1.0  0.34150  0.88690  0.83437  1.0000
  O   O8        1.0  0.11310  0.45460  0.83437  1.0000
  O   O9        1.0  0.54540  0.65850  0.83437  1.0000
  O   O10       1.0  0.11310  0.65850  0.66563  1.0000
  O   O11       1.0  0.54540  0.88690  0.66563  1.0000
  O   O12       1.0  0.34150  0.45460  0.66563  1.0000
  O   O13       1.0  0.79442  0.98362  0.08188  1.0000
  O   O14       1.0  0.01638  0.81080  0.08188  1.0000
  O   O15       1.0  0.18920  0.20558  0.08188  1.0000
  O   O16       1.0  0.01638  0.20558  0.41812  1.0000
  O   O17       1.0  0.18920  0.98362  0.41812  1.0000
  O   O18       1.0  0.79442  0.81080  0.41812  1.0000
  O   O19       1.0  0.20558  0.01638  0.91812  1.0000
  O   O20       1.0  0.98362  0.18920  0.91812  1.0000
  O   O21       1.0  0.81080  0.79442  0.91812  1.0000
  O   O22       1.0  0.98362  0.79442  0.58188  1.0000
  O   O23       1.0  0.81080  0.01638  0.58188  1.0000
  O   O24       1.0  0.20558  0.18920  0.58188  1.0000
  C   C1        1.0  0.79070  0.12410  0.11683  1.0000
  C   C2        1.0  0.87590  0.66660  0.11683  1.0000
  C   C3        1.0  0.33340  0.20930  0.11683  1.0000
  C   C4        1.0  0.87590  0.20930  0.38317  1.0000
  C   C5        1.0  0.33340  0.12410  0.38317  1.0000
  C   C6        1.0  0.79070  0.66660  0.38317  1.0000
  C   C7        1.0  0.20930  0.87590  0.88317  1.0000
  C   C8        1.0  0.12410  0.33340  0.88317  1.0000
  C   C9        1.0  0.66660  0.79070  0.88317  1.0000
  C   C10       1.0  0.12410  0.79070  0.61683  1.0000
  C   C11       1.0  0.66660  0.87590  0.61683  1.0000
  C   C12       1.0  0.20930  0.33340  0.61683  1.0000
  H   H1        1.0  0.89340  0.24280  0.10520  1.0000
  H   H2        1.0  0.75720  0.65060  0.10520  1.0000
  H   H3        1.0  0.34940  0.10660  0.10520  1.0000
  H   H4        1.0  0.75720  0.10660  0.39480  1.0000
  H   H5        1.0  0.34940  0.24280  0.39480  1.0000
  H   H6        1.0  0.89340  0.65060  0.39480  1.0000
  H   H7        1.0  0.10660  0.75720  0.89480  1.0000
  H   H8        1.0  0.24280  0.34940  0.89480  1.0000
  H   H9        1.0  0.65060  0.89340  0.89480  1.0000
  H   H10       1.0  0.24280  0.89340  0.60520  1.0000
  H   H11       1.0  0.65060  0.75720  0.60520  1.0000
  H   H12       1.0  0.10660  0.34940  0.60520  1.0000
