data_image0
_chemical_formula_structural       Ni2Ga2O24C12H12
_chemical_formula_sum              "Ni2 Ga2 O24 C12 H12"
_cell_length_a       8.0822
_cell_length_b       8.0822
_cell_length_c       13.701
_cell_angle_alpha    90
_cell_angle_beta     90
_cell_angle_gamma    120

_space_group_name_H-M_alt    "P 1"
_space_group_IT_number       1

loop_
  _space_group_symop_operation_xyz
  'x, y, z'

loop_
  _atom_site_type_symbol
  _atom_site_label
  _atom_site_symmetry_multiplicity
  _atom_site_fract_x
  _atom_site_fract_y
  _atom_site_fract_z
  _atom_site_occupancy
  Ni  Ni1       1.0  0.33330  0.66670  0.25000  1.0000
  Ni  Ni2       1.0  0.66670  0.33330  0.75000  1.0000
  Ga  Ga1       1.0  0.00000  0.00000  0.00000  1.0000
  Ga  Ga2       1.0  0.00000  0.00000  0.50000  1.0000
  O   O1        1.0  0.34240  0.45940  0.16895  1.0000
  O   O2        1.0  0.54060  0.88300  0.16895  1.0000
  O   O3        1.0  0.11700  0.65760  0.16895  1.0000
  O   O4        1.0  0.54060  0.65760  0.33105  1.0000
  O   O5        1.0  0.11700  0.45940  0.33105  1.0000
  O   O6        1.0  0.34240  0.88300  0.33105  1.0000
  O   O7        1.0  0.65760  0.54060  0.83105  1.0000
  O   O8        1.0  0.45940  0.11700  0.83105  1.0000
  O   O9        1.0  0.88300  0.34240  0.83105  1.0000
  O   O10       1.0  0.45940  0.34240  0.66895  1.0000
  O   O11       1.0  0.88300  0.54060  0.66895  1.0000
  O   O12       1.0  0.65760  0.11700  0.66895  1.0000
  O   O13       1.0  0.20800  0.19490  0.08131  1.0000
  O   O14       1.0  0.80510  0.01310  0.08131  1.0000
  O   O15       1.0  0.98690  0.79200  0.08131  1.0000
  O   O16       1.0  0.80510  0.79200  0.41869  1.0000
  O   O17       1.0  0.98690  0.19490  0.41869  1.0000
  O   O18       1.0  0.20800  0.01310  0.41869  1.0000
  O   O19       1.0  0.79200  0.80510  0.91869  1.0000
  O   O20       1.0  0.19490  0.98690  0.91869  1.0000
  O   O21       1.0  0.01310  0.20800  0.91869  1.0000
  O   O22       1.0  0.19490  0.20800  0.58131  1.0000
  O   O23       1.0  0.01310  0.80510  0.58131  1.0000
  O   O24       1.0  0.79200  0.98690  0.58131  1.0000
  C   C1        1.0  0.20870  0.33790  0.11870  1.0000
  C   C2        1.0  0.66210  0.87080  0.11870  1.0000
  C   C3        1.0  0.12920  0.79130  0.11870  1.0000
  C   C4        1.0  0.66210  0.79130  0.38130  1.0000
  C   C5        1.0  0.12920  0.33790  0.38130  1.0000
  C   C6        1.0  0.20870  0.87080  0.38130  1.0000
  C   C7        1.0  0.79130  0.66210  0.88130  1.0000
  C   C8        1.0  0.33790  0.12920  0.88130  1.0000
  C   C9        1.0  0.87080  0.20870  0.88130  1.0000
  C   C10       1.0  0.33790  0.20870  0.61870  1.0000
  C   C11       1.0  0.87080  0.66210  0.61870  1.0000
  C   C12       1.0  0.79130  0.12920  0.61870  1.0000
  H   H1        1.0  0.10350  0.35330  0.10800  1.0000
  H   H2        1.0  0.64670  0.75020  0.10800  1.0000
  H   H3        1.0  0.24980  0.89650  0.10800  1.0000
  H   H4        1.0  0.64670  0.89650  0.39200  1.0000
  H   H5        1.0  0.24980  0.35330  0.39200  1.0000
  H   H6        1.0  0.10350  0.75020  0.39200  1.0000
  H   H7        1.0  0.89650  0.64670  0.89200  1.0000
  H   H8        1.0  0.35330  0.24980  0.89200  1.0000
  H   H9        1.0  0.75020  0.10350  0.89200  1.0000
  H   H10       1.0  0.35330  0.10350  0.60800  1.0000
  H   H11       1.0  0.75020  0.64670  0.60800  1.0000
  H   H12       1.0  0.89650  0.24980  0.60800  1.0000
