data_image0
_chemical_formula_structural       Ni2Ga2O24C12H12
_chemical_formula_sum              "Ni2 Ga2 O24 C12 H12"
_cell_length_a       8.0926
_cell_length_b       8.0926
_cell_length_c       13.7165
_cell_angle_alpha    90
_cell_angle_beta     90
_cell_angle_gamma    120

_space_group_name_H-M_alt    "P 1"
_space_group_IT_number       1

loop_
  _space_group_symop_operation_xyz
  'x, y, z'

loop_
  _atom_site_type_symbol
  _atom_site_label
  _atom_site_symmetry_multiplicity
  _atom_site_fract_x
  _atom_site_fract_y
  _atom_site_fract_z
  _atom_site_occupancy
  Ni  Ni1       1.0  0.33330  0.66670  0.25000  1.0000
  Ni  Ni2       1.0  0.66670  0.33330  0.75000  1.0000
  Ga  Ga1       1.0  0.00000  0.00000  0.00000  1.0000
  Ga  Ga2       1.0  0.00000  0.00000  0.50000  1.0000
  O   O1        1.0  0.11730  0.65950  0.16800  1.0000
  O   O2        1.0  0.34050  0.45780  0.16800  1.0000
  O   O3        1.0  0.54220  0.88270  0.16800  1.0000
  O   O4        1.0  0.34050  0.88270  0.33200  1.0000
  O   O5        1.0  0.54220  0.65950  0.33200  1.0000
  O   O6        1.0  0.11730  0.45780  0.33200  1.0000
  O   O7        1.0  0.88270  0.34050  0.83200  1.0000
  O   O8        1.0  0.65950  0.54220  0.83200  1.0000
  O   O9        1.0  0.45780  0.11730  0.83200  1.0000
  O   O10       1.0  0.65950  0.11730  0.66800  1.0000
  O   O11       1.0  0.45780  0.34050  0.66800  1.0000
  O   O12       1.0  0.88270  0.54220  0.66800  1.0000
  O   O13       1.0  0.98880  0.79250  0.08110  1.0000
  O   O14       1.0  0.20750  0.19630  0.08110  1.0000
  O   O15       1.0  0.80370  0.01120  0.08110  1.0000
  O   O16       1.0  0.20750  0.01120  0.41890  1.0000
  O   O17       1.0  0.80370  0.79250  0.41890  1.0000
  O   O18       1.0  0.98880  0.19630  0.41890  1.0000
  O   O19       1.0  0.01120  0.20750  0.91890  1.0000
  O   O20       1.0  0.79250  0.80370  0.91890  1.0000
  O   O21       1.0  0.19630  0.98880  0.91890  1.0000
  O   O22       1.0  0.79250  0.98880  0.58110  1.0000
  O   O23       1.0  0.19630  0.20750  0.58110  1.0000
  O   O24       1.0  0.01120  0.80370  0.58110  1.0000
  C   C1        1.0  0.13040  0.79230  0.12000  1.0000
  C   C2        1.0  0.20770  0.33810  0.12000  1.0000
  C   C3        1.0  0.66190  0.86960  0.12000  1.0000
  C   C4        1.0  0.20770  0.86960  0.38000  1.0000
  C   C5        1.0  0.66190  0.79230  0.38000  1.0000
  C   C6        1.0  0.13040  0.33810  0.38000  1.0000
  C   C7        1.0  0.86960  0.20770  0.88000  1.0000
  C   C8        1.0  0.79230  0.66190  0.88000  1.0000
  C   C9        1.0  0.33810  0.13040  0.88000  1.0000
  C   C10       1.0  0.79230  0.13040  0.62000  1.0000
  C   C11       1.0  0.33810  0.20770  0.62000  1.0000
  C   C12       1.0  0.86960  0.66190  0.62000  1.0000
  H   H1        1.0  0.25060  0.89890  0.11150  1.0000
  H   H2        1.0  0.10110  0.35170  0.11150  1.0000
  H   H3        1.0  0.64830  0.74940  0.11150  1.0000
  H   H4        1.0  0.10110  0.74940  0.38850  1.0000
  H   H5        1.0  0.64830  0.89890  0.38850  1.0000
  H   H6        1.0  0.25060  0.35170  0.38850  1.0000
  H   H7        1.0  0.74940  0.10110  0.88850  1.0000
  H   H8        1.0  0.89890  0.64830  0.88850  1.0000
  H   H9        1.0  0.35170  0.25060  0.88850  1.0000
  H   H10       1.0  0.89890  0.25060  0.61150  1.0000
  H   H11       1.0  0.35170  0.10110  0.61150  1.0000
  H   H12       1.0  0.74940  0.64830  0.61150  1.0000
