data_image0
_chemical_formula_structural       C8H8C8H8C16H8C8H8C16H8C16H8C16H8C24H8C8H8C16H8C8H8C16H8C16H8C16H8C16Cu12N16O64
_chemical_formula_sum              "C208 H112 Cu12 N16 O64"
_cell_length_a       21.2737
_cell_length_b       21.2737
_cell_length_c       30.086
_cell_angle_alpha    90
_cell_angle_beta     90
_cell_angle_gamma    90

_space_group_name_H-M_alt    "P 1"
_space_group_IT_number       1

loop_
  _space_group_symop_operation_xyz
  'x, y, z'

loop_
  _atom_site_type_symbol
  _atom_site_label
  _atom_site_symmetry_multiplicity
  _atom_site_fract_x
  _atom_site_fract_y
  _atom_site_fract_z
  _atom_site_occupancy
  C   C1        1.0  0.68670  0.17520  0.17860  1.0000
  C   C2        1.0  0.82480  0.18670  0.67860  1.0000
  C   C3        1.0  0.81330  0.32480  0.17860  1.0000
  C   C4        1.0  0.67520  0.31330  0.67860  1.0000
  C   C5        1.0  0.31330  0.82480  0.82140  1.0000
  C   C6        1.0  0.17520  0.81330  0.32140  1.0000
  C   C7        1.0  0.18670  0.67520  0.82140  1.0000
  C   C8        1.0  0.32480  0.68670  0.32140  1.0000
  H   H1        1.0  0.64880  0.18870  0.19070  1.0000
  H   H2        1.0  0.81130  0.14880  0.69070  1.0000
  H   H3        1.0  0.85120  0.31130  0.19070  1.0000
  H   H4        1.0  0.68870  0.35120  0.69070  1.0000
  H   H5        1.0  0.35120  0.81130  0.80930  1.0000
  H   H6        1.0  0.18870  0.85120  0.30930  1.0000
  H   H7        1.0  0.14880  0.68870  0.80930  1.0000
  H   H8        1.0  0.31130  0.64880  0.30930  1.0000
  C   C9        1.0  0.68720  0.13930  0.14340  1.0000
  C   C10       1.0  0.86070  0.18720  0.64340  1.0000
  C   C11       1.0  0.81280  0.36070  0.14340  1.0000
  C   C12       1.0  0.63930  0.31280  0.64340  1.0000
  C   C13       1.0  0.31280  0.86070  0.85660  1.0000
  C   C14       1.0  0.13930  0.81280  0.35660  1.0000
  C   C15       1.0  0.18720  0.63930  0.85660  1.0000
  C   C16       1.0  0.36070  0.68720  0.35660  1.0000
  H   H9        1.0  0.64930  0.12900  0.12990  1.0000
  H   H10       1.0  0.87100  0.14930  0.62990  1.0000
  H   H11       1.0  0.85070  0.37100  0.12990  1.0000
  H   H12       1.0  0.62900  0.35070  0.62990  1.0000
  H   H13       1.0  0.35070  0.87100  0.87010  1.0000
  H   H14       1.0  0.12900  0.85070  0.37010  1.0000
  H   H15       1.0  0.14930  0.62900  0.87010  1.0000
  H   H16       1.0  0.37100  0.64930  0.37010  1.0000
  C   C17       1.0  0.74650  0.11450  0.12420  1.0000
  C   C18       1.0  0.88550  0.24650  0.62420  1.0000
  C   C19       1.0  0.75350  0.38550  0.12420  1.0000
  C   C20       1.0  0.61450  0.25350  0.62420  1.0000
  C   C21       1.0  0.25350  0.88550  0.87580  1.0000
  C   C22       1.0  0.11450  0.75350  0.37580  1.0000
  C   C23       1.0  0.24650  0.61450  0.87580  1.0000
  C   C24       1.0  0.38550  0.74650  0.37580  1.0000
  C   C25       1.0  0.80220  0.13530  0.14310  1.0000
  C   C26       1.0  0.86470  0.30220  0.64310  1.0000
  C   C27       1.0  0.69780  0.36470  0.14310  1.0000
  C   C28       1.0  0.63530  0.19780  0.64310  1.0000
  C   C29       1.0  0.19780  0.86470  0.85690  1.0000
  C   C30       1.0  0.13530  0.69780  0.35690  1.0000
  C   C31       1.0  0.30220  0.63530  0.85690  1.0000
  C   C32       1.0  0.36470  0.80220  0.35690  1.0000
  H   H17       1.0  0.84050  0.12390  0.13050  1.0000
  H   H18       1.0  0.87610  0.34050  0.63050  1.0000
  H   H19       1.0  0.65950  0.37610  0.13050  1.0000
  H   H20       1.0  0.62390  0.15950  0.63050  1.0000
  H   H21       1.0  0.15950  0.87610  0.86950  1.0000
  H   H22       1.0  0.12390  0.65950  0.36950  1.0000
  H   H23       1.0  0.34050  0.62390  0.86950  1.0000
  H   H24       1.0  0.37610  0.84050  0.36950  1.0000
  C   C33       1.0  0.80130  0.17310  0.18070  1.0000
  C   C34       1.0  0.82690  0.30130  0.68070  1.0000
  C   C35       1.0  0.69870  0.32690  0.18070  1.0000
  C   C36       1.0  0.67310  0.19870  0.68070  1.0000
  C   C37       1.0  0.19870  0.82690  0.81930  1.0000
  C   C38       1.0  0.17310  0.69870  0.31930  1.0000
  C   C39       1.0  0.30130  0.67310  0.81930  1.0000
  C   C40       1.0  0.32690  0.80130  0.31930  1.0000
  H   H25       1.0  0.83880  0.18490  0.19420  1.0000
  H   H26       1.0  0.81510  0.33880  0.69420  1.0000
  H   H27       1.0  0.66120  0.31510  0.19420  1.0000
  H   H28       1.0  0.68490  0.16120  0.69420  1.0000
  H   H29       1.0  0.16120  0.81510  0.80580  1.0000
  H   H30       1.0  0.18490  0.66120  0.30580  1.0000
  H   H31       1.0  0.33880  0.68490  0.80580  1.0000
  H   H32       1.0  0.31510  0.83880  0.30580  1.0000
  C   C41       1.0  0.74960  0.07210  0.08620  1.0000
  C   C42       1.0  0.92790  0.24960  0.58620  1.0000
  C   C43       1.0  0.75040  0.42790  0.08620  1.0000
  C   C44       1.0  0.57210  0.25040  0.58620  1.0000
  C   C45       1.0  0.25040  0.92790  0.91380  1.0000
  C   C46       1.0  0.07210  0.75040  0.41380  1.0000
  C   C47       1.0  0.24960  0.57210  0.91380  1.0000
  C   C48       1.0  0.42790  0.74960  0.41380  1.0000
  C   C49       1.0  0.69200  0.04510  0.06970  1.0000
  C   C50       1.0  0.95490  0.19200  0.56970  1.0000
  C   C51       1.0  0.80800  0.45490  0.06970  1.0000
  C   C52       1.0  0.54510  0.30800  0.56970  1.0000
  C   C53       1.0  0.30800  0.95490  0.93030  1.0000
  C   C54       1.0  0.04510  0.80800  0.43030  1.0000
  C   C55       1.0  0.19200  0.54510  0.93030  1.0000
  C   C56       1.0  0.45490  0.69200  0.43030  1.0000
  H   H33       1.0  0.65530  0.05230  0.08570  1.0000
  H   H34       1.0  0.94770  0.15530  0.58570  1.0000
  H   H35       1.0  0.84470  0.44770  0.08570  1.0000
  H   H36       1.0  0.55230  0.34470  0.58570  1.0000
  H   H37       1.0  0.34470  0.94770  0.91430  1.0000
  H   H38       1.0  0.05230  0.84470  0.41430  1.0000
  H   H39       1.0  0.15530  0.55230  0.91430  1.0000
  H   H40       1.0  0.44770  0.65530  0.41430  1.0000
  C   C57       1.0  0.68810  0.01120  0.03390  1.0000
  C   C58       1.0  0.98880  0.18810  0.53390  1.0000
  C   C59       1.0  0.81190  0.48880  0.03390  1.0000
  C   C60       1.0  0.51120  0.31190  0.53390  1.0000
  C   C61       1.0  0.31190  0.98880  0.96610  1.0000
  C   C62       1.0  0.01120  0.81190  0.46610  1.0000
  C   C63       1.0  0.18810  0.51120  0.96610  1.0000
  C   C64       1.0  0.48880  0.68810  0.46610  1.0000
  C   C65       1.0  0.74350  0.99150  0.01290  1.0000
  C   C66       1.0  0.00850  0.24350  0.51290  1.0000
  C   C67       1.0  0.75650  0.50850  0.01290  1.0000
  C   C68       1.0  0.49150  0.25650  0.51290  1.0000
  C   C69       1.0  0.25650  0.00850  0.98710  1.0000
  C   C70       1.0  0.99150  0.75650  0.48710  1.0000
  C   C71       1.0  0.24350  0.49150  0.98710  1.0000
  C   C72       1.0  0.50850  0.74350  0.48710  1.0000
  H   H41       1.0  0.74180  0.96420  0.98880  1.0000
  H   H42       1.0  0.03580  0.24180  0.48880  1.0000
  H   H43       1.0  0.75820  0.53580  0.98880  1.0000
  H   H44       1.0  0.46420  0.25820  0.48880  1.0000
  H   H45       1.0  0.25820  0.03580  0.01120  1.0000
  H   H46       1.0  0.96420  0.75820  0.51120  1.0000
  H   H47       1.0  0.24180  0.46420  0.01120  1.0000
  H   H48       1.0  0.53580  0.74180  0.51120  1.0000
  C   C73       1.0  0.80060  0.01280  0.02830  1.0000
  C   C74       1.0  0.98720  0.30060  0.52830  1.0000
  C   C75       1.0  0.69940  0.48720  0.02830  1.0000
  C   C76       1.0  0.51280  0.19940  0.52830  1.0000
  C   C77       1.0  0.19940  0.98720  0.97170  1.0000
  C   C78       1.0  0.01280  0.69940  0.47170  1.0000
  C   C79       1.0  0.30060  0.51280  0.97170  1.0000
  C   C80       1.0  0.48720  0.80060  0.47170  1.0000
  C   C81       1.0  0.80430  0.05240  0.06570  1.0000
  C   C82       1.0  0.94760  0.30430  0.56570  1.0000
  C   C83       1.0  0.69570  0.44760  0.06570  1.0000
  C   C84       1.0  0.55240  0.19570  0.56570  1.0000
  C   C85       1.0  0.19570  0.94760  0.93430  1.0000
  C   C86       1.0  0.05240  0.69570  0.43430  1.0000
  C   C87       1.0  0.30430  0.55240  0.93430  1.0000
  C   C88       1.0  0.44760  0.80430  0.43430  1.0000
  H   H49       1.0  0.84320  0.06530  0.07650  1.0000
  H   H50       1.0  0.93470  0.34320  0.57650  1.0000
  H   H51       1.0  0.65680  0.43470  0.07650  1.0000
  H   H52       1.0  0.56530  0.15680  0.57650  1.0000
  H   H53       1.0  0.15680  0.93470  0.92350  1.0000
  H   H54       1.0  0.06530  0.65680  0.42350  1.0000
  H   H55       1.0  0.34320  0.56530  0.92350  1.0000
  H   H56       1.0  0.43470  0.84320  0.42350  1.0000
  C   C89       1.0  0.62590  0.98630  0.01870  1.0000
  C   C90       1.0  0.01370  0.12590  0.51870  1.0000
  C   C91       1.0  0.87410  0.51370  0.01870  1.0000
  C   C92       1.0  0.48630  0.37410  0.51870  1.0000
  C   C93       1.0  0.37410  0.01370  0.98130  1.0000
  C   C94       1.0  0.98630  0.87410  0.48130  1.0000
  C   C95       1.0  0.12590  0.48630  0.98130  1.0000
  C   C96       1.0  0.51370  0.62590  0.48130  1.0000
  C   C97       1.0  0.86070  0.99340  0.00760  1.0000
  C   C98       1.0  0.00660  0.36070  0.50760  1.0000
  C   C99       1.0  0.63930  0.50660  0.00760  1.0000
  C   C100      1.0  0.49340  0.13930  0.50760  1.0000
  C   C101      1.0  0.13930  0.00660  0.99240  1.0000
  C   C102      1.0  0.99340  0.63930  0.49240  1.0000
  C   C103      1.0  0.36070  0.49340  0.99240  1.0000
  C   C104      1.0  0.50660  0.86070  0.49240  1.0000
  C   C105      1.0  0.00910  0.86240  0.00750  1.0000
  C   C106      1.0  0.13760  0.50910  0.50750  1.0000
  C   C107      1.0  0.49090  0.63760  0.00750  1.0000
  C   C108      1.0  0.36240  0.99090  0.50750  1.0000
  C   C109      1.0  0.99090  0.13760  0.99250  1.0000
  C   C110      1.0  0.86240  0.49090  0.49250  1.0000
  C   C111      1.0  0.50910  0.36240  0.99250  1.0000
  C   C112      1.0  0.63760  0.00910  0.49250  1.0000
  H   H57       1.0  0.98680  0.86210  0.98090  1.0000
  H   H58       1.0  0.13790  0.48680  0.48090  1.0000
  H   H59       1.0  0.51320  0.63790  0.98090  1.0000
  H   H60       1.0  0.36210  0.01320  0.48090  1.0000
  H   H61       1.0  0.01320  0.13790  0.01910  1.0000
  H   H62       1.0  0.86210  0.51320  0.51910  1.0000
  H   H63       1.0  0.48680  0.36210  0.01910  1.0000
  H   H64       1.0  0.63790  0.98680  0.51910  1.0000
  C   C113      1.0  0.02540  0.80980  0.02540  1.0000
  C   C114      1.0  0.19020  0.52540  0.52540  1.0000
  C   C115      1.0  0.47460  0.69020  0.02540  1.0000
  C   C116      1.0  0.30980  0.97460  0.52540  1.0000
  C   C117      1.0  0.97460  0.19020  0.97460  1.0000
  C   C118      1.0  0.80980  0.47460  0.47460  1.0000
  C   C119      1.0  0.52540  0.30980  0.97460  1.0000
  C   C120      1.0  0.69020  0.02540  0.47460  1.0000
  H   H65       1.0  0.01340  0.77260  0.01160  1.0000
  H   H66       1.0  0.22740  0.51340  0.51160  1.0000
  H   H67       1.0  0.48660  0.72740  0.01160  1.0000
  H   H68       1.0  0.27260  0.98660  0.51160  1.0000
  H   H69       1.0  0.98660  0.22740  0.98840  1.0000
  H   H70       1.0  0.77260  0.48660  0.48840  1.0000
  H   H71       1.0  0.51340  0.27260  0.98840  1.0000
  H   H72       1.0  0.72740  0.01340  0.48840  1.0000
  C   C121      1.0  0.06150  0.80640  0.06580  1.0000
  C   C122      1.0  0.19360  0.56150  0.56580  1.0000
  C   C123      1.0  0.43850  0.69360  0.06580  1.0000
  C   C124      1.0  0.30640  0.93850  0.56580  1.0000
  C   C125      1.0  0.93850  0.19360  0.93420  1.0000
  C   C126      1.0  0.80640  0.43850  0.43420  1.0000
  C   C127      1.0  0.56150  0.30640  0.93420  1.0000
  C   C128      1.0  0.69360  0.06150  0.43420  1.0000
  C   C129      1.0  0.07980  0.86840  0.08370  1.0000
  C   C130      1.0  0.13160  0.57980  0.58370  1.0000
  C   C131      1.0  0.42020  0.63160  0.08370  1.0000
  C   C132      1.0  0.36840  0.92020  0.58370  1.0000
  C   C133      1.0  0.92020  0.13160  0.91630  1.0000
  C   C134      1.0  0.86840  0.42020  0.41630  1.0000
  C   C135      1.0  0.57980  0.36840  0.91630  1.0000
  C   C136      1.0  0.63160  0.07980  0.41630  1.0000
  H   H73       1.0  0.10430  0.87050  0.10930  1.0000
  H   H74       1.0  0.12950  0.60430  0.60930  1.0000
  H   H75       1.0  0.39570  0.62950  0.10930  1.0000
  H   H76       1.0  0.37050  0.89570  0.60930  1.0000
  H   H77       1.0  0.89570  0.12950  0.89070  1.0000
  H   H78       1.0  0.87050  0.39570  0.39070  1.0000
  H   H79       1.0  0.60430  0.37050  0.89070  1.0000
  H   H80       1.0  0.62950  0.10430  0.39070  1.0000
  C   C137      1.0  0.06250  0.91940  0.06440  1.0000
  C   C138      1.0  0.08060  0.56250  0.56440  1.0000
  C   C139      1.0  0.43750  0.58060  0.06440  1.0000
  C   C140      1.0  0.41940  0.93750  0.56440  1.0000
  C   C141      1.0  0.93750  0.08060  0.93560  1.0000
  C   C142      1.0  0.91940  0.43750  0.43560  1.0000
  C   C143      1.0  0.56250  0.41940  0.93560  1.0000
  C   C144      1.0  0.58060  0.06250  0.43560  1.0000
  H   H81       1.0  0.07610  0.95770  0.07580  1.0000
  H   H82       1.0  0.04230  0.57610  0.57580  1.0000
  H   H83       1.0  0.42390  0.54230  0.07580  1.0000
  H   H84       1.0  0.45770  0.92390  0.57580  1.0000
  H   H85       1.0  0.92390  0.04230  0.92420  1.0000
  H   H86       1.0  0.95770  0.42390  0.42420  1.0000
  H   H87       1.0  0.57610  0.45770  0.92420  1.0000
  H   H88       1.0  0.54230  0.07610  0.42420  1.0000
  C   C145      1.0  0.08150  0.74830  0.08630  1.0000
  C   C146      1.0  0.25170  0.58150  0.58630  1.0000
  C   C147      1.0  0.41850  0.75170  0.08630  1.0000
  C   C148      1.0  0.24830  0.91850  0.58630  1.0000
  C   C149      1.0  0.91850  0.25170  0.91370  1.0000
  C   C150      1.0  0.74830  0.41850  0.41370  1.0000
  C   C151      1.0  0.58150  0.24830  0.91370  1.0000
  C   C152      1.0  0.75170  0.08150  0.41370  1.0000
  C   C153      1.0  0.05830  0.68970  0.07240  1.0000
  C   C154      1.0  0.31030  0.55830  0.57240  1.0000
  C   C155      1.0  0.44170  0.81030  0.07240  1.0000
  C   C156      1.0  0.18970  0.94170  0.57240  1.0000
  C   C157      1.0  0.94170  0.31030  0.92760  1.0000
  C   C158      1.0  0.68970  0.44170  0.42760  1.0000
  C   C159      1.0  0.55830  0.18970  0.92760  1.0000
  C   C160      1.0  0.81030  0.05830  0.42760  1.0000
  H   H89       1.0  0.02650  0.68920  0.05120  1.0000
  H   H90       1.0  0.31080  0.52650  0.55120  1.0000
  H   H91       1.0  0.47350  0.81080  0.05120  1.0000
  H   H92       1.0  0.18920  0.97350  0.55120  1.0000
  H   H93       1.0  0.97350  0.31080  0.94880  1.0000
  H   H94       1.0  0.68920  0.47350  0.44880  1.0000
  H   H95       1.0  0.52650  0.18920  0.94880  1.0000
  H   H96       1.0  0.81080  0.02650  0.44880  1.0000
  C   C161      1.0  0.07920  0.63470  0.08780  1.0000
  C   C162      1.0  0.36530  0.57920  0.58780  1.0000
  C   C163      1.0  0.42080  0.86530  0.08780  1.0000
  C   C164      1.0  0.13470  0.92080  0.58780  1.0000
  C   C165      1.0  0.92080  0.36530  0.91220  1.0000
  C   C166      1.0  0.63470  0.42080  0.41220  1.0000
  C   C167      1.0  0.57920  0.13470  0.91220  1.0000
  C   C168      1.0  0.86530  0.07920  0.41220  1.0000
  C   C169      1.0  0.12080  0.63470  0.12430  1.0000
  C   C170      1.0  0.36530  0.62080  0.62430  1.0000
  C   C171      1.0  0.37920  0.86530  0.12430  1.0000
  C   C172      1.0  0.13470  0.87920  0.62430  1.0000
  C   C173      1.0  0.87920  0.36530  0.87570  1.0000
  C   C174      1.0  0.63470  0.37920  0.37570  1.0000
  C   C175      1.0  0.62080  0.13470  0.87570  1.0000
  C   C176      1.0  0.86530  0.12080  0.37570  1.0000
  H   H97       1.0  0.13340  0.59670  0.13670  1.0000
  H   H98       1.0  0.40330  0.63340  0.63670  1.0000
  H   H99       1.0  0.36660  0.90330  0.13670  1.0000
  H   H100      1.0  0.09670  0.86660  0.63670  1.0000
  H   H101      1.0  0.86660  0.40330  0.86330  1.0000
  H   H102      1.0  0.59670  0.36660  0.36330  1.0000
  H   H103      1.0  0.63340  0.09670  0.86330  1.0000
  H   H104      1.0  0.90330  0.13340  0.36330  1.0000
  C   C177      1.0  0.14300  0.69050  0.14200  1.0000
  C   C178      1.0  0.30950  0.64300  0.64200  1.0000
  C   C179      1.0  0.35700  0.80950  0.14200  1.0000
  C   C180      1.0  0.19050  0.85700  0.64200  1.0000
  C   C181      1.0  0.85700  0.30950  0.85800  1.0000
  C   C182      1.0  0.69050  0.35700  0.35800  1.0000
  C   C183      1.0  0.64300  0.19050  0.85800  1.0000
  C   C184      1.0  0.80950  0.14300  0.35800  1.0000
  C   C185      1.0  0.12270  0.74670  0.12470  1.0000
  C   C186      1.0  0.25330  0.62270  0.62470  1.0000
  C   C187      1.0  0.37730  0.75330  0.12470  1.0000
  C   C188      1.0  0.24670  0.87730  0.62470  1.0000
  C   C189      1.0  0.87730  0.25330  0.87530  1.0000
  C   C190      1.0  0.74670  0.37730  0.37530  1.0000
  C   C191      1.0  0.62270  0.24670  0.87530  1.0000
  C   C192      1.0  0.75330  0.12270  0.37530  1.0000
  H   H105      1.0  0.13560  0.78420  0.13770  1.0000
  H   H106      1.0  0.21580  0.63560  0.63770  1.0000
  H   H107      1.0  0.36440  0.71580  0.13770  1.0000
  H   H108      1.0  0.28420  0.86440  0.63770  1.0000
  H   H109      1.0  0.86440  0.21580  0.86230  1.0000
  H   H110      1.0  0.78420  0.36440  0.36230  1.0000
  H   H111      1.0  0.63560  0.28420  0.86230  1.0000
  H   H112      1.0  0.71580  0.13560  0.36230  1.0000
  C   C193      1.0  0.06170  0.57590  0.06970  1.0000
  C   C194      1.0  0.42410  0.56170  0.56970  1.0000
  C   C195      1.0  0.43830  0.92410  0.06970  1.0000
  C   C196      1.0  0.07590  0.93830  0.56970  1.0000
  C   C197      1.0  0.93830  0.42410  0.93030  1.0000
  C   C198      1.0  0.57590  0.43830  0.43030  1.0000
  C   C199      1.0  0.56170  0.07590  0.93030  1.0000
  C   C200      1.0  0.92410  0.06170  0.43030  1.0000
  C   C201      1.0  0.17820  0.69200  0.18070  1.0000
  C   C202      1.0  0.30800  0.67820  0.68070  1.0000
  C   C203      1.0  0.32180  0.80800  0.18070  1.0000
  C   C204      1.0  0.19200  0.82180  0.68070  1.0000
  C   C205      1.0  0.82180  0.30800  0.81930  1.0000
  C   C206      1.0  0.69200  0.32180  0.31930  1.0000
  C   C207      1.0  0.67820  0.19200  0.81930  1.0000
  C   C208      1.0  0.80800  0.17820  0.31930  1.0000
  Cu  Cu1       1.0  0.25000  0.75000  0.24840  1.0000
  Cu  Cu2       1.0  0.25000  0.75000  0.74840  1.0000
  Cu  Cu3       1.0  0.75000  0.25000  0.75160  1.0000
  Cu  Cu4       1.0  0.75000  0.25000  0.25160  1.0000
  Cu  Cu5       1.0  1.00000  1.00000  0.00000  1.0000
  Cu  Cu6       1.0  0.00000  0.50000  0.50000  1.0000
  Cu  Cu7       1.0  0.50000  0.50000  0.00000  1.0000
  Cu  Cu8       1.0  0.50000  0.00000  0.50000  1.0000
  Cu  Cu9       1.0  1.00000  0.50000  0.00000  1.0000
  Cu  Cu10      1.0  0.50000  0.50000  0.50000  1.0000
  Cu  Cu11      1.0  0.50000  0.00000  0.00000  1.0000
  Cu  Cu12      1.0  0.00000  0.00000  0.50000  1.0000
  N   N1        1.0  0.74450  0.19320  0.19820  1.0000
  N   N2        1.0  0.80680  0.24450  0.69820  1.0000
  N   N3        1.0  0.75550  0.30680  0.19820  1.0000
  N   N4        1.0  0.69320  0.25550  0.69820  1.0000
  N   N5        1.0  0.25550  0.80680  0.80180  1.0000
  N   N6        1.0  0.19320  0.75550  0.30180  1.0000
  N   N7        1.0  0.24450  0.69320  0.80180  1.0000
  N   N8        1.0  0.30680  0.74450  0.30180  1.0000
  N   N9        1.0  0.02410  0.91930  0.02710  1.0000
  N   N10       1.0  0.08070  0.52410  0.52710  1.0000
  N   N11       1.0  0.47590  0.58070  0.02710  1.0000
  N   N12       1.0  0.41930  0.97590  0.52710  1.0000
  N   N13       1.0  0.97590  0.08070  0.97290  1.0000
  N   N14       1.0  0.91930  0.47590  0.47290  1.0000
  N   N15       1.0  0.52410  0.41930  0.97290  1.0000
  N   N16       1.0  0.58070  0.02410  0.47290  1.0000
  O   O1        1.0  0.57830  0.01440  0.03420  1.0000
  O   O2        1.0  0.98560  0.07830  0.53420  1.0000
  O   O3        1.0  0.92170  0.48560  0.03420  1.0000
  O   O4        1.0  0.51440  0.42170  0.53420  1.0000
  O   O5        1.0  0.42170  0.98560  0.96580  1.0000
  O   O6        1.0  0.01440  0.92170  0.46580  1.0000
  O   O7        1.0  0.07830  0.51440  0.96580  1.0000
  O   O8        1.0  0.48560  0.57830  0.46580  1.0000
  O   O9        1.0  0.62510  0.93310  0.99920  1.0000
  O   O10       1.0  0.06690  0.12510  0.49920  1.0000
  O   O11       1.0  0.87490  0.56690  0.99920  1.0000
  O   O12       1.0  0.43310  0.37490  0.49920  1.0000
  O   O13       1.0  0.37490  0.06690  0.00080  1.0000
  O   O14       1.0  0.93310  0.87490  0.50080  1.0000
  O   O15       1.0  0.12510  0.43310  0.00080  1.0000
  O   O16       1.0  0.56690  0.62510  0.50080  1.0000
  O   O17       1.0  0.85920  0.95410  0.97660  1.0000
  O   O18       1.0  0.04590  0.35920  0.47660  1.0000
  O   O19       1.0  0.64080  0.54590  0.97660  1.0000
  O   O20       1.0  0.45410  0.14080  0.47660  1.0000
  O   O21       1.0  0.14080  0.04590  0.02340  1.0000
  O   O22       1.0  0.95410  0.64080  0.52340  1.0000
  O   O23       1.0  0.35920  0.45410  0.02340  1.0000
  O   O24       1.0  0.54590  0.85920  0.52340  1.0000
  O   O25       1.0  0.91310  0.01670  0.02030  1.0000
  O   O26       1.0  0.98330  0.41310  0.52030  1.0000
  O   O27       1.0  0.58690  0.48330  0.02030  1.0000
  O   O28       1.0  0.51670  0.08690  0.52030  1.0000
  O   O29       1.0  0.08690  0.98330  0.97970  1.0000
  O   O30       1.0  0.01670  0.58690  0.47970  1.0000
  O   O31       1.0  0.41310  0.51670  0.97970  1.0000
  O   O32       1.0  0.48330  0.91310  0.47970  1.0000
  O   O33       1.0  0.02270  0.57280  0.03690  1.0000
  O   O34       1.0  0.42720  0.52270  0.53690  1.0000
  O   O35       1.0  0.47730  0.92720  0.03690  1.0000
  O   O36       1.0  0.07280  0.97730  0.53690  1.0000
  O   O37       1.0  0.97730  0.42720  0.96310  1.0000
  O   O38       1.0  0.57280  0.47730  0.46310  1.0000
  O   O39       1.0  0.52270  0.07280  0.96310  1.0000
  O   O40       1.0  0.92720  0.02270  0.46310  1.0000
  O   O41       1.0  0.07600  0.52280  0.08560  1.0000
  O   O42       1.0  0.47720  0.57600  0.58560  1.0000
  O   O43       1.0  0.42400  0.97720  0.08560  1.0000
  O   O44       1.0  0.02280  0.92400  0.58560  1.0000
  O   O45       1.0  0.92400  0.47720  0.91440  1.0000
  O   O46       1.0  0.52280  0.42400  0.41440  1.0000
  O   O47       1.0  0.57600  0.02280  0.91440  1.0000
  O   O48       1.0  0.97720  0.07600  0.41440  1.0000
  O   O49       1.0  0.19270  0.64390  0.20290  1.0000
  O   O50       1.0  0.35610  0.69270  0.70290  1.0000
  O   O51       1.0  0.30730  0.85610  0.20290  1.0000
  O   O52       1.0  0.14390  0.80730  0.70290  1.0000
  O   O53       1.0  0.80730  0.35610  0.79710  1.0000
  O   O54       1.0  0.64390  0.30730  0.29710  1.0000
  O   O55       1.0  0.69270  0.14390  0.79710  1.0000
  O   O56       1.0  0.85610  0.19270  0.29710  1.0000
  O   O57       1.0  0.19540  0.74380  0.19740  1.0000
  O   O58       1.0  0.25620  0.69540  0.69740  1.0000
  O   O59       1.0  0.30460  0.75620  0.19740  1.0000
  O   O60       1.0  0.24380  0.80460  0.69740  1.0000
  O   O61       1.0  0.80460  0.25620  0.80260  1.0000
  O   O62       1.0  0.74380  0.30460  0.30260  1.0000
  O   O63       1.0  0.69540  0.24380  0.80260  1.0000
  O   O64       1.0  0.75620  0.19540  0.30260  1.0000
