data_image0
_chemical_formula_structural       Zn32O96N72C72H24C24H24C24H24C24H24C48H24C48H24C24H24C24H24C48
_chemical_formula_sum              "Zn32 O96 N72 C336 H192"
_cell_length_a       22.4395
_cell_length_b       22.4395
_cell_length_c       22.4395
_cell_angle_alpha    90
_cell_angle_beta     90
_cell_angle_gamma    90

_space_group_name_H-M_alt    "P 1"
_space_group_IT_number       1

loop_
  _space_group_symop_operation_xyz
  'x, y, z'

loop_
  _atom_site_type_symbol
  _atom_site_label
  _atom_site_symmetry_multiplicity
  _atom_site_fract_x
  _atom_site_fract_y
  _atom_site_fract_z
  _atom_site_occupancy
  Zn  Zn1       1.0  0.13725  0.63725  0.86275  1.0000
  Zn  Zn2       1.0  0.86275  0.13725  0.63725  1.0000
  Zn  Zn3       1.0  0.63725  0.86275  0.13725  1.0000
  Zn  Zn4       1.0  0.36275  0.36275  0.36275  1.0000
  Zn  Zn5       1.0  0.86275  0.36275  0.13725  1.0000
  Zn  Zn6       1.0  0.13725  0.86275  0.36275  1.0000
  Zn  Zn7       1.0  0.36275  0.13725  0.86275  1.0000
  Zn  Zn8       1.0  0.63725  0.63725  0.63725  1.0000
  Zn  Zn9       1.0  0.19196  0.55215  0.73984  1.0000
  Zn  Zn10      1.0  0.73984  0.19196  0.55215  1.0000
  Zn  Zn11      1.0  0.55215  0.73984  0.19196  1.0000
  Zn  Zn12      1.0  0.30804  0.44785  0.23984  1.0000
  Zn  Zn13      1.0  0.80804  0.05215  0.76016  1.0000
  Zn  Zn14      1.0  0.69196  0.94785  0.26016  1.0000
  Zn  Zn15      1.0  0.23984  0.30804  0.44785  1.0000
  Zn  Zn16      1.0  0.76016  0.80804  0.05215  1.0000
  Zn  Zn17      1.0  0.26016  0.69196  0.94785  1.0000
  Zn  Zn18      1.0  0.44785  0.23984  0.30804  1.0000
  Zn  Zn19      1.0  0.05215  0.76016  0.80804  1.0000
  Zn  Zn20      1.0  0.94785  0.26016  0.69196  1.0000
  Zn  Zn21      1.0  0.80804  0.44785  0.26016  1.0000
  Zn  Zn22      1.0  0.26016  0.80804  0.44785  1.0000
  Zn  Zn23      1.0  0.44785  0.26016  0.80804  1.0000
  Zn  Zn24      1.0  0.69196  0.55215  0.76016  1.0000
  Zn  Zn25      1.0  0.19196  0.94785  0.23984  1.0000
  Zn  Zn26      1.0  0.30804  0.05215  0.73984  1.0000
  Zn  Zn27      1.0  0.76016  0.69196  0.55215  1.0000
  Zn  Zn28      1.0  0.23984  0.19196  0.94785  1.0000
  Zn  Zn29      1.0  0.73984  0.30804  0.05215  1.0000
  Zn  Zn30      1.0  0.55215  0.76016  0.69196  1.0000
  Zn  Zn31      1.0  0.94785  0.23984  0.19196  1.0000
  Zn  Zn32      1.0  0.05215  0.73984  0.30804  1.0000
  O   O1        1.0  0.89612  0.33663  0.76188  1.0000
  O   O2        1.0  0.76188  0.89612  0.33663  1.0000
  O   O3        1.0  0.33663  0.76188  0.89612  1.0000
  O   O4        1.0  0.60388  0.66337  0.26188  1.0000
  O   O5        1.0  0.10388  0.83663  0.73812  1.0000
  O   O6        1.0  0.39612  0.16337  0.23812  1.0000
  O   O7        1.0  0.26188  0.60388  0.66337  1.0000
  O   O8        1.0  0.73812  0.10388  0.83663  1.0000
  O   O9        1.0  0.23812  0.39612  0.16337  1.0000
  O   O10       1.0  0.66337  0.26188  0.60388  1.0000
  O   O11       1.0  0.83663  0.73812  0.10388  1.0000
  O   O12       1.0  0.16337  0.23812  0.39612  1.0000
  O   O13       1.0  0.10388  0.66337  0.23812  1.0000
  O   O14       1.0  0.23812  0.10388  0.66337  1.0000
  O   O15       1.0  0.66337  0.23812  0.10388  1.0000
  O   O16       1.0  0.39612  0.33663  0.73812  1.0000
  O   O17       1.0  0.89612  0.16337  0.26188  1.0000
  O   O18       1.0  0.60388  0.83663  0.76188  1.0000
  O   O19       1.0  0.73812  0.39612  0.33663  1.0000
  O   O20       1.0  0.26188  0.89612  0.16337  1.0000
  O   O21       1.0  0.76188  0.60388  0.83663  1.0000
  O   O22       1.0  0.33663  0.73812  0.39612  1.0000
  O   O23       1.0  0.16337  0.26188  0.89612  1.0000
  O   O24       1.0  0.83663  0.76188  0.60388  1.0000
  O   O25       1.0  0.98737  0.32861  0.72772  1.0000
  O   O26       1.0  0.72772  0.98737  0.32861  1.0000
  O   O27       1.0  0.32861  0.72772  0.98737  1.0000
  O   O28       1.0  0.51263  0.67139  0.22772  1.0000
  O   O29       1.0  0.01263  0.82861  0.77228  1.0000
  O   O30       1.0  0.48737  0.17139  0.27228  1.0000
  O   O31       1.0  0.22772  0.51263  0.67139  1.0000
  O   O32       1.0  0.77228  0.01263  0.82861  1.0000
  O   O33       1.0  0.27228  0.48737  0.17139  1.0000
  O   O34       1.0  0.67139  0.22772  0.51263  1.0000
  O   O35       1.0  0.82861  0.77228  0.01263  1.0000
  O   O36       1.0  0.17139  0.27228  0.48737  1.0000
  O   O37       1.0  0.01263  0.67139  0.27228  1.0000
  O   O38       1.0  0.27228  0.01263  0.67139  1.0000
  O   O39       1.0  0.67139  0.27228  0.01263  1.0000
  O   O40       1.0  0.48737  0.32861  0.77228  1.0000
  O   O41       1.0  0.98737  0.17139  0.22772  1.0000
  O   O42       1.0  0.51263  0.82861  0.72772  1.0000
  O   O43       1.0  0.77228  0.48737  0.32861  1.0000
  O   O44       1.0  0.22772  0.98737  0.17139  1.0000
  O   O45       1.0  0.72772  0.51263  0.82861  1.0000
  O   O46       1.0  0.32861  0.77228  0.48737  1.0000
  O   O47       1.0  0.17139  0.22772  0.98737  1.0000
  O   O48       1.0  0.82861  0.72772  0.51263  1.0000
  O   O49       1.0  0.13093  0.49354  0.76504  1.0000
  O   O50       1.0  0.76504  0.13093  0.49354  1.0000
  O   O51       1.0  0.49354  0.76504  0.13093  1.0000
  O   O52       1.0  0.36907  0.50646  0.26504  1.0000
  O   O53       1.0  0.86907  0.99354  0.73496  1.0000
  O   O54       1.0  0.63093  0.00646  0.23496  1.0000
  O   O55       1.0  0.26504  0.36907  0.50646  1.0000
  O   O56       1.0  0.73496  0.86907  0.99354  1.0000
  O   O57       1.0  0.23496  0.63093  0.00646  1.0000
  O   O58       1.0  0.50646  0.26504  0.36907  1.0000
  O   O59       1.0  0.99354  0.73496  0.86907  1.0000
  O   O60       1.0  0.00646  0.23496  0.63093  1.0000
  O   O61       1.0  0.86907  0.50646  0.23496  1.0000
  O   O62       1.0  0.23496  0.86907  0.50646  1.0000
  O   O63       1.0  0.50646  0.23496  0.86907  1.0000
  O   O64       1.0  0.63093  0.49354  0.73496  1.0000
  O   O65       1.0  0.13093  0.00646  0.26504  1.0000
  O   O66       1.0  0.36907  0.99354  0.76504  1.0000
  O   O67       1.0  0.73496  0.63093  0.49354  1.0000
  O   O68       1.0  0.26504  0.13093  0.00646  1.0000
  O   O69       1.0  0.76504  0.36907  0.99354  1.0000
  O   O70       1.0  0.49354  0.73496  0.63093  1.0000
  O   O71       1.0  0.00646  0.26504  0.13093  1.0000
  O   O72       1.0  0.99354  0.76504  0.36907  1.0000
  O   O73       1.0  0.11652  0.55007  0.84514  1.0000
  O   O74       1.0  0.84514  0.11652  0.55007  1.0000
  O   O75       1.0  0.55007  0.84514  0.11652  1.0000
  O   O76       1.0  0.38348  0.44993  0.34514  1.0000
  O   O77       1.0  0.88348  0.05007  0.65486  1.0000
  O   O78       1.0  0.61652  0.94993  0.15486  1.0000
  O   O79       1.0  0.34514  0.38348  0.44993  1.0000
  O   O80       1.0  0.65486  0.88348  0.05007  1.0000
  O   O81       1.0  0.15486  0.61652  0.94993  1.0000
  O   O82       1.0  0.44993  0.34514  0.38348  1.0000
  O   O83       1.0  0.05007  0.65486  0.88348  1.0000
  O   O84       1.0  0.94993  0.15486  0.61652  1.0000
  O   O85       1.0  0.88348  0.44993  0.15486  1.0000
  O   O86       1.0  0.15486  0.88348  0.44993  1.0000
  O   O87       1.0  0.44993  0.15486  0.88348  1.0000
  O   O88       1.0  0.61652  0.55007  0.65486  1.0000
  O   O89       1.0  0.11652  0.94993  0.34514  1.0000
  O   O90       1.0  0.38348  0.05007  0.84514  1.0000
  O   O91       1.0  0.65486  0.61652  0.55007  1.0000
  O   O92       1.0  0.34514  0.11652  0.94993  1.0000
  O   O93       1.0  0.84514  0.38348  0.05007  1.0000
  O   O94       1.0  0.55007  0.65486  0.61652  1.0000
  O   O95       1.0  0.94993  0.34514  0.11652  1.0000
  O   O96       1.0  0.05007  0.84514  0.38348  1.0000
  N   N1        1.0  0.27528  0.63646  0.87776  1.0000
  N   N2        1.0  0.87776  0.27528  0.63646  1.0000
  N   N3        1.0  0.63646  0.87776  0.27528  1.0000
  N   N4        1.0  0.22472  0.36354  0.37776  1.0000
  N   N5        1.0  0.72472  0.13646  0.62224  1.0000
  N   N6        1.0  0.77528  0.86354  0.12224  1.0000
  N   N7        1.0  0.37776  0.22472  0.36354  1.0000
  N   N8        1.0  0.62224  0.72472  0.13646  1.0000
  N   N9        1.0  0.12224  0.77528  0.86354  1.0000
  N   N10       1.0  0.36354  0.37776  0.22472  1.0000
  N   N11       1.0  0.13646  0.62224  0.72472  1.0000
  N   N12       1.0  0.86354  0.12224  0.77528  1.0000
  N   N13       1.0  0.72472  0.36354  0.12224  1.0000
  N   N14       1.0  0.12224  0.72472  0.36354  1.0000
  N   N15       1.0  0.36354  0.12224  0.72472  1.0000
  N   N16       1.0  0.77528  0.63646  0.62224  1.0000
  N   N17       1.0  0.27528  0.86354  0.37776  1.0000
  N   N18       1.0  0.22472  0.13646  0.87776  1.0000
  N   N19       1.0  0.62224  0.77528  0.63646  1.0000
  N   N20       1.0  0.37776  0.27528  0.86354  1.0000
  N   N21       1.0  0.87776  0.22472  0.13646  1.0000
  N   N22       1.0  0.63646  0.62224  0.77528  1.0000
  N   N23       1.0  0.86354  0.37776  0.27528  1.0000
  N   N24       1.0  0.13646  0.87776  0.22472  1.0000
  N   N25       1.0  0.23042  0.61759  0.84404  1.0000
  N   N26       1.0  0.84404  0.23042  0.61759  1.0000
  N   N27       1.0  0.61759  0.84404  0.23042  1.0000
  N   N28       1.0  0.26958  0.38241  0.34404  1.0000
  N   N29       1.0  0.76958  0.11759  0.65596  1.0000
  N   N30       1.0  0.73042  0.88241  0.15596  1.0000
  N   N31       1.0  0.34404  0.26958  0.38241  1.0000
  N   N32       1.0  0.65596  0.76958  0.11759  1.0000
  N   N33       1.0  0.15596  0.73042  0.88241  1.0000
  N   N34       1.0  0.38241  0.34404  0.26958  1.0000
  N   N35       1.0  0.11759  0.65596  0.76958  1.0000
  N   N36       1.0  0.88241  0.15596  0.73042  1.0000
  N   N37       1.0  0.76958  0.38241  0.15596  1.0000
  N   N38       1.0  0.15596  0.76958  0.38241  1.0000
  N   N39       1.0  0.38241  0.15596  0.76958  1.0000
  N   N40       1.0  0.73042  0.61759  0.65596  1.0000
  N   N41       1.0  0.23042  0.88241  0.34404  1.0000
  N   N42       1.0  0.26958  0.11759  0.84404  1.0000
  N   N43       1.0  0.65596  0.73042  0.61759  1.0000
  N   N44       1.0  0.34404  0.23042  0.88241  1.0000
  N   N45       1.0  0.84404  0.26958  0.11759  1.0000
  N   N46       1.0  0.61759  0.65596  0.73042  1.0000
  N   N47       1.0  0.88241  0.34404  0.23042  1.0000
  N   N48       1.0  0.11759  0.84404  0.26958  1.0000
  N   N49       1.0  0.24935  0.57922  0.80307  1.0000
  N   N50       1.0  0.80307  0.24935  0.57922  1.0000
  N   N51       1.0  0.57922  0.80307  0.24935  1.0000
  N   N52       1.0  0.25065  0.42078  0.30307  1.0000
  N   N53       1.0  0.75065  0.07922  0.69693  1.0000
  N   N54       1.0  0.74935  0.92078  0.19693  1.0000
  N   N55       1.0  0.30307  0.25065  0.42078  1.0000
  N   N56       1.0  0.69693  0.75065  0.07922  1.0000
  N   N57       1.0  0.19693  0.74935  0.92078  1.0000
  N   N58       1.0  0.42078  0.30307  0.25065  1.0000
  N   N59       1.0  0.07922  0.69693  0.75065  1.0000
  N   N60       1.0  0.92078  0.19693  0.74935  1.0000
  N   N61       1.0  0.75065  0.42078  0.19693  1.0000
  N   N62       1.0  0.19693  0.75065  0.42078  1.0000
  N   N63       1.0  0.42078  0.19693  0.75065  1.0000
  N   N64       1.0  0.74935  0.57922  0.69693  1.0000
  N   N65       1.0  0.24935  0.92078  0.30307  1.0000
  N   N66       1.0  0.25065  0.07922  0.80307  1.0000
  N   N67       1.0  0.69693  0.74935  0.57922  1.0000
  N   N68       1.0  0.30307  0.24935  0.92078  1.0000
  N   N69       1.0  0.80307  0.25065  0.07922  1.0000
  N   N70       1.0  0.57922  0.69693  0.74935  1.0000
  N   N71       1.0  0.92078  0.30307  0.24935  1.0000
  N   N72       1.0  0.07922  0.80307  0.25065  1.0000
  C   C1        1.0  0.32576  0.60926  0.85788  1.0000
  C   C2        1.0  0.85788  0.32576  0.60926  1.0000
  C   C3        1.0  0.60926  0.85788  0.32576  1.0000
  C   C4        1.0  0.17424  0.39074  0.35788  1.0000
  C   C5        1.0  0.67424  0.10926  0.64212  1.0000
  C   C6        1.0  0.82576  0.89074  0.14212  1.0000
  C   C7        1.0  0.35788  0.17424  0.39074  1.0000
  C   C8        1.0  0.64212  0.67424  0.10926  1.0000
  C   C9        1.0  0.14212  0.82576  0.89074  1.0000
  C   C10       1.0  0.39074  0.35788  0.17424  1.0000
  C   C11       1.0  0.10926  0.64212  0.67424  1.0000
  C   C12       1.0  0.89074  0.14212  0.82576  1.0000
  C   C13       1.0  0.67424  0.39074  0.14212  1.0000
  C   C14       1.0  0.14212  0.67424  0.39074  1.0000
  C   C15       1.0  0.39074  0.14212  0.67424  1.0000
  C   C16       1.0  0.82576  0.60926  0.64212  1.0000
  C   C17       1.0  0.32576  0.89074  0.35788  1.0000
  C   C18       1.0  0.17424  0.10926  0.85788  1.0000
  C   C19       1.0  0.64212  0.82576  0.60926  1.0000
  C   C20       1.0  0.35788  0.32576  0.89074  1.0000
  C   C21       1.0  0.85788  0.17424  0.10926  1.0000
  C   C22       1.0  0.60926  0.64212  0.82576  1.0000
  C   C23       1.0  0.89074  0.35788  0.32576  1.0000
  C   C24       1.0  0.10926  0.85788  0.17424  1.0000
  C   C25       1.0  0.30934  0.57295  0.81025  1.0000
  C   C26       1.0  0.81025  0.30934  0.57295  1.0000
  C   C27       1.0  0.57295  0.81025  0.30934  1.0000
  C   C28       1.0  0.19066  0.42705  0.31025  1.0000
  C   C29       1.0  0.69066  0.07295  0.68975  1.0000
  C   C30       1.0  0.80934  0.92705  0.18975  1.0000
  C   C31       1.0  0.31025  0.19066  0.42705  1.0000
  C   C32       1.0  0.68975  0.69066  0.07295  1.0000
  C   C33       1.0  0.18975  0.80934  0.92705  1.0000
  C   C34       1.0  0.42705  0.31025  0.19066  1.0000
  C   C35       1.0  0.07295  0.68975  0.69066  1.0000
  C   C36       1.0  0.92705  0.18975  0.80934  1.0000
  C   C37       1.0  0.69066  0.42705  0.18975  1.0000
  C   C38       1.0  0.18975  0.69066  0.42705  1.0000
  C   C39       1.0  0.42705  0.18975  0.69066  1.0000
  C   C40       1.0  0.80934  0.57295  0.68975  1.0000
  C   C41       1.0  0.30934  0.92705  0.31025  1.0000
  C   C42       1.0  0.19066  0.07295  0.81025  1.0000
  C   C43       1.0  0.68975  0.80934  0.57295  1.0000
  C   C44       1.0  0.31025  0.30934  0.92705  1.0000
  C   C45       1.0  0.81025  0.19066  0.07295  1.0000
  C   C46       1.0  0.57295  0.68975  0.80934  1.0000
  C   C47       1.0  0.92705  0.31025  0.30934  1.0000
  C   C48       1.0  0.07295  0.81025  0.19066  1.0000
  C   C49       1.0  0.35157  0.53834  0.77923  1.0000
  C   C50       1.0  0.77923  0.35157  0.53834  1.0000
  C   C51       1.0  0.53834  0.77923  0.35157  1.0000
  C   C52       1.0  0.14843  0.46166  0.27923  1.0000
  C   C53       1.0  0.64843  0.03834  0.72077  1.0000
  C   C54       1.0  0.85157  0.96166  0.22077  1.0000
  C   C55       1.0  0.27923  0.14843  0.46166  1.0000
  C   C56       1.0  0.72077  0.64843  0.03834  1.0000
  C   C57       1.0  0.22077  0.85157  0.96166  1.0000
  C   C58       1.0  0.46166  0.27923  0.14843  1.0000
  C   C59       1.0  0.03834  0.72077  0.64843  1.0000
  C   C60       1.0  0.96166  0.22077  0.85157  1.0000
  C   C61       1.0  0.64843  0.46166  0.22077  1.0000
  C   C62       1.0  0.22077  0.64843  0.46166  1.0000
  C   C63       1.0  0.46166  0.22077  0.64843  1.0000
  C   C64       1.0  0.85157  0.53834  0.72077  1.0000
  C   C65       1.0  0.35157  0.96166  0.27923  1.0000
  C   C66       1.0  0.14843  0.03834  0.77923  1.0000
  C   C67       1.0  0.72077  0.85157  0.53834  1.0000
  C   C68       1.0  0.27923  0.35157  0.96166  1.0000
  C   C69       1.0  0.77923  0.14843  0.03834  1.0000
  C   C70       1.0  0.53834  0.72077  0.85157  1.0000
  C   C71       1.0  0.96166  0.27923  0.35157  1.0000
  C   C72       1.0  0.03834  0.77923  0.14843  1.0000
  H   H1        1.0  0.34080  0.51360  0.74780  1.0000
  H   H2        1.0  0.74780  0.34080  0.51360  1.0000
  H   H3        1.0  0.51360  0.74780  0.34080  1.0000
  H   H4        1.0  0.15920  0.48640  0.24780  1.0000
  H   H5        1.0  0.65920  0.01360  0.75220  1.0000
  H   H6        1.0  0.84080  0.98640  0.25220  1.0000
  H   H7        1.0  0.24780  0.15920  0.48640  1.0000
  H   H8        1.0  0.75220  0.65920  0.01360  1.0000
  H   H9        1.0  0.25220  0.84080  0.98640  1.0000
  H   H10       1.0  0.48640  0.24780  0.15920  1.0000
  H   H11       1.0  0.01360  0.75220  0.65920  1.0000
  H   H12       1.0  0.98640  0.25220  0.84080  1.0000
  H   H13       1.0  0.65920  0.48640  0.25220  1.0000
  H   H14       1.0  0.25220  0.65920  0.48640  1.0000
  H   H15       1.0  0.48640  0.25220  0.65920  1.0000
  H   H16       1.0  0.84080  0.51360  0.75220  1.0000
  H   H17       1.0  0.34080  0.98640  0.24780  1.0000
  H   H18       1.0  0.15920  0.01360  0.74780  1.0000
  H   H19       1.0  0.75220  0.84080  0.51360  1.0000
  H   H20       1.0  0.24780  0.34080  0.98640  1.0000
  H   H21       1.0  0.74780  0.15920  0.01360  1.0000
  H   H22       1.0  0.51360  0.75220  0.84080  1.0000
  H   H23       1.0  0.98640  0.24780  0.34080  1.0000
  H   H24       1.0  0.01360  0.74780  0.15920  1.0000
  C   C73       1.0  0.40922  0.54320  0.79800  1.0000
  C   C74       1.0  0.79800  0.40922  0.54320  1.0000
  C   C75       1.0  0.54320  0.79800  0.40922  1.0000
  C   C76       1.0  0.09078  0.45680  0.29800  1.0000
  C   C77       1.0  0.59078  0.04320  0.70200  1.0000
  C   C78       1.0  0.90922  0.95680  0.20200  1.0000
  C   C79       1.0  0.29800  0.09078  0.45680  1.0000
  C   C80       1.0  0.70200  0.59078  0.04320  1.0000
  C   C81       1.0  0.20200  0.90922  0.95680  1.0000
  C   C82       1.0  0.45680  0.29800  0.09078  1.0000
  C   C83       1.0  0.04320  0.70200  0.59078  1.0000
  C   C84       1.0  0.95680  0.20200  0.90922  1.0000
  C   C85       1.0  0.59078  0.45680  0.20200  1.0000
  C   C86       1.0  0.20200  0.59078  0.45680  1.0000
  C   C87       1.0  0.45680  0.20200  0.59078  1.0000
  C   C88       1.0  0.90922  0.54320  0.70200  1.0000
  C   C89       1.0  0.40922  0.95680  0.29800  1.0000
  C   C90       1.0  0.09078  0.04320  0.79800  1.0000
  C   C91       1.0  0.70200  0.90922  0.54320  1.0000
  C   C92       1.0  0.29800  0.40922  0.95680  1.0000
  C   C93       1.0  0.79800  0.09078  0.04320  1.0000
  C   C94       1.0  0.54320  0.70200  0.90922  1.0000
  C   C95       1.0  0.95680  0.29800  0.40922  1.0000
  C   C96       1.0  0.04320  0.79800  0.09078  1.0000
  H   H25       1.0  0.43850  0.52150  0.77830  1.0000
  H   H26       1.0  0.77830  0.43850  0.52150  1.0000
  H   H27       1.0  0.52150  0.77830  0.43850  1.0000
  H   H28       1.0  0.06150  0.47850  0.27830  1.0000
  H   H29       1.0  0.56150  0.02150  0.72170  1.0000
  H   H30       1.0  0.93850  0.97850  0.22170  1.0000
  H   H31       1.0  0.27830  0.06150  0.47850  1.0000
  H   H32       1.0  0.72170  0.56150  0.02150  1.0000
  H   H33       1.0  0.22170  0.93850  0.97850  1.0000
  H   H34       1.0  0.47850  0.27830  0.06150  1.0000
  H   H35       1.0  0.02150  0.72170  0.56150  1.0000
  H   H36       1.0  0.97850  0.22170  0.93850  1.0000
  H   H37       1.0  0.56150  0.47850  0.22170  1.0000
  H   H38       1.0  0.22170  0.56150  0.47850  1.0000
  H   H39       1.0  0.47850  0.22170  0.56150  1.0000
  H   H40       1.0  0.93850  0.52150  0.72170  1.0000
  H   H41       1.0  0.43850  0.97850  0.27830  1.0000
  H   H42       1.0  0.06150  0.02150  0.77830  1.0000
  H   H43       1.0  0.72170  0.93850  0.52150  1.0000
  H   H44       1.0  0.27830  0.43850  0.97850  1.0000
  H   H45       1.0  0.77830  0.06150  0.02150  1.0000
  H   H46       1.0  0.52150  0.72170  0.93850  1.0000
  H   H47       1.0  0.97850  0.27830  0.43850  1.0000
  H   H48       1.0  0.02150  0.77830  0.06150  1.0000
  C   C97       1.0  0.42602  0.57980  0.84600  1.0000
  C   C98       1.0  0.84600  0.42602  0.57980  1.0000
  C   C99       1.0  0.57980  0.84600  0.42602  1.0000
  C   C100      1.0  0.07398  0.42020  0.34600  1.0000
  C   C101      1.0  0.57398  0.07980  0.65400  1.0000
  C   C102      1.0  0.92602  0.92020  0.15400  1.0000
  C   C103      1.0  0.34600  0.07398  0.42020  1.0000
  C   C104      1.0  0.65400  0.57398  0.07980  1.0000
  C   C105      1.0  0.15400  0.92602  0.92020  1.0000
  C   C106      1.0  0.42020  0.34600  0.07398  1.0000
  C   C107      1.0  0.07980  0.65400  0.57398  1.0000
  C   C108      1.0  0.92020  0.15400  0.92602  1.0000
  C   C109      1.0  0.57398  0.42020  0.15400  1.0000
  C   C110      1.0  0.15400  0.57398  0.42020  1.0000
  C   C111      1.0  0.42020  0.15400  0.57398  1.0000
  C   C112      1.0  0.92602  0.57980  0.65400  1.0000
  C   C113      1.0  0.42602  0.92020  0.34600  1.0000
  C   C114      1.0  0.07398  0.07980  0.84600  1.0000
  C   C115      1.0  0.65400  0.92602  0.57980  1.0000
  C   C116      1.0  0.34600  0.42602  0.92020  1.0000
  C   C117      1.0  0.84600  0.07398  0.07980  1.0000
  C   C118      1.0  0.57980  0.65400  0.92602  1.0000
  C   C119      1.0  0.92020  0.34600  0.42602  1.0000
  C   C120      1.0  0.07980  0.84600  0.07398  1.0000
  H   H49       1.0  0.46590  0.58120  0.85720  1.0000
  H   H50       1.0  0.85720  0.46590  0.58120  1.0000
  H   H51       1.0  0.58120  0.85720  0.46590  1.0000
  H   H52       1.0  0.03410  0.41880  0.35720  1.0000
  H   H53       1.0  0.53410  0.08120  0.64280  1.0000
  H   H54       1.0  0.96590  0.91880  0.14280  1.0000
  H   H55       1.0  0.35720  0.03410  0.41880  1.0000
  H   H56       1.0  0.64280  0.53410  0.08120  1.0000
  H   H57       1.0  0.14280  0.96590  0.91880  1.0000
  H   H58       1.0  0.41880  0.35720  0.03410  1.0000
  H   H59       1.0  0.08120  0.64280  0.53410  1.0000
  H   H60       1.0  0.91880  0.14280  0.96590  1.0000
  H   H61       1.0  0.53410  0.41880  0.14280  1.0000
  H   H62       1.0  0.14280  0.53410  0.41880  1.0000
  H   H63       1.0  0.41880  0.14280  0.53410  1.0000
  H   H64       1.0  0.96590  0.58120  0.64280  1.0000
  H   H65       1.0  0.46590  0.91880  0.35720  1.0000
  H   H66       1.0  0.03410  0.08120  0.85720  1.0000
  H   H67       1.0  0.64280  0.96590  0.58120  1.0000
  H   H68       1.0  0.35720  0.46590  0.91880  1.0000
  H   H69       1.0  0.85720  0.03410  0.08120  1.0000
  H   H70       1.0  0.58120  0.64280  0.96590  1.0000
  H   H71       1.0  0.91880  0.35720  0.46590  1.0000
  H   H72       1.0  0.08120  0.85720  0.03410  1.0000
  C   C121      1.0  0.38540  0.61343  0.87677  1.0000
  C   C122      1.0  0.87677  0.38540  0.61343  1.0000
  C   C123      1.0  0.61343  0.87677  0.38540  1.0000
  C   C124      1.0  0.11460  0.38657  0.37677  1.0000
  C   C125      1.0  0.61460  0.11343  0.62323  1.0000
  C   C126      1.0  0.88540  0.88657  0.12323  1.0000
  C   C127      1.0  0.37677  0.11460  0.38657  1.0000
  C   C128      1.0  0.62323  0.61460  0.11343  1.0000
  C   C129      1.0  0.12323  0.88540  0.88657  1.0000
  C   C130      1.0  0.38657  0.37677  0.11460  1.0000
  C   C131      1.0  0.11343  0.62323  0.61460  1.0000
  C   C132      1.0  0.88657  0.12323  0.88540  1.0000
  C   C133      1.0  0.61460  0.38657  0.12323  1.0000
  C   C134      1.0  0.12323  0.61460  0.38657  1.0000
  C   C135      1.0  0.38657  0.12323  0.61460  1.0000
  C   C136      1.0  0.88540  0.61343  0.62323  1.0000
  C   C137      1.0  0.38540  0.88657  0.37677  1.0000
  C   C138      1.0  0.11460  0.11343  0.87677  1.0000
  C   C139      1.0  0.62323  0.88540  0.61343  1.0000
  C   C140      1.0  0.37677  0.38540  0.88657  1.0000
  C   C141      1.0  0.87677  0.11460  0.11343  1.0000
  C   C142      1.0  0.61343  0.62323  0.88540  1.0000
  C   C143      1.0  0.88657  0.37677  0.38540  1.0000
  C   C144      1.0  0.11343  0.87677  0.11460  1.0000
  H   H73       1.0  0.39660  0.63770  0.90840  1.0000
  H   H74       1.0  0.90840  0.39660  0.63770  1.0000
  H   H75       1.0  0.63770  0.90840  0.39660  1.0000
  H   H76       1.0  0.10340  0.36230  0.40840  1.0000
  H   H77       1.0  0.60340  0.13770  0.59160  1.0000
  H   H78       1.0  0.89660  0.86230  0.09160  1.0000
  H   H79       1.0  0.40840  0.10340  0.36230  1.0000
  H   H80       1.0  0.59160  0.60340  0.13770  1.0000
  H   H81       1.0  0.09160  0.89660  0.86230  1.0000
  H   H82       1.0  0.36230  0.40840  0.10340  1.0000
  H   H83       1.0  0.13770  0.59160  0.60340  1.0000
  H   H84       1.0  0.86230  0.09160  0.89660  1.0000
  H   H85       1.0  0.60340  0.36230  0.09160  1.0000
  H   H86       1.0  0.09160  0.60340  0.36230  1.0000
  H   H87       1.0  0.36230  0.09160  0.60340  1.0000
  H   H88       1.0  0.89660  0.63770  0.59160  1.0000
  H   H89       1.0  0.39660  0.86230  0.40840  1.0000
  H   H90       1.0  0.10340  0.13770  0.90840  1.0000
  H   H91       1.0  0.59160  0.89660  0.63770  1.0000
  H   H92       1.0  0.40840  0.39660  0.86230  1.0000
  H   H93       1.0  0.90840  0.10340  0.13770  1.0000
  H   H94       1.0  0.63770  0.59160  0.89660  1.0000
  H   H95       1.0  0.86230  0.40840  0.39660  1.0000
  H   H96       1.0  0.13770  0.90840  0.10340  1.0000
  C   C145      1.0  0.04009  0.48337  0.81764  1.0000
  C   C146      1.0  0.81764  0.04009  0.48337  1.0000
  C   C147      1.0  0.48337  0.81764  0.04009  1.0000
  C   C148      1.0  0.45991  0.51663  0.31764  1.0000
  C   C149      1.0  0.95991  0.98337  0.68236  1.0000
  C   C150      1.0  0.54009  0.01663  0.18236  1.0000
  C   C151      1.0  0.31764  0.45991  0.51663  1.0000
  C   C152      1.0  0.68236  0.95991  0.98337  1.0000
  C   C153      1.0  0.18236  0.54009  0.01663  1.0000
  C   C154      1.0  0.51663  0.31764  0.45991  1.0000
  C   C155      1.0  0.98337  0.68236  0.95991  1.0000
  C   C156      1.0  0.01663  0.18236  0.54009  1.0000
  C   C157      1.0  0.95991  0.51663  0.18236  1.0000
  C   C158      1.0  0.18236  0.95991  0.51663  1.0000
  C   C159      1.0  0.51663  0.18236  0.95991  1.0000
  C   C160      1.0  0.54009  0.48337  0.68236  1.0000
  C   C161      1.0  0.04009  0.01663  0.31764  1.0000
  C   C162      1.0  0.45991  0.98337  0.81764  1.0000
  C   C163      1.0  0.68236  0.54009  0.48337  1.0000
  C   C164      1.0  0.31764  0.04009  0.01663  1.0000
  C   C165      1.0  0.81764  0.45991  0.98337  1.0000
  C   C166      1.0  0.48337  0.68236  0.54009  1.0000
  C   C167      1.0  0.01663  0.31764  0.04009  1.0000
  C   C168      1.0  0.98337  0.81764  0.45991  1.0000
  C   C169      1.0  0.02334  0.43262  0.78605  1.0000
  C   C170      1.0  0.78605  0.02334  0.43262  1.0000
  C   C171      1.0  0.43262  0.78605  0.02334  1.0000
  C   C172      1.0  0.47666  0.56738  0.28605  1.0000
  C   C173      1.0  0.97666  0.93262  0.71395  1.0000
  C   C174      1.0  0.52334  0.06738  0.21395  1.0000
  C   C175      1.0  0.28605  0.47666  0.56738  1.0000
  C   C176      1.0  0.71395  0.97666  0.93262  1.0000
  C   C177      1.0  0.21395  0.52334  0.06738  1.0000
  C   C178      1.0  0.56738  0.28605  0.47666  1.0000
  C   C179      1.0  0.93262  0.71395  0.97666  1.0000
  C   C180      1.0  0.06738  0.21395  0.52334  1.0000
  C   C181      1.0  0.97666  0.56738  0.21395  1.0000
  C   C182      1.0  0.21395  0.97666  0.56738  1.0000
  C   C183      1.0  0.56738  0.21395  0.97666  1.0000
  C   C184      1.0  0.52334  0.43262  0.71395  1.0000
  C   C185      1.0  0.02334  0.06738  0.28605  1.0000
  C   C186      1.0  0.47666  0.93262  0.78605  1.0000
  C   C187      1.0  0.71395  0.52334  0.43262  1.0000
  C   C188      1.0  0.28605  0.02334  0.06738  1.0000
  C   C189      1.0  0.78605  0.47666  0.93262  1.0000
  C   C190      1.0  0.43262  0.71395  0.52334  1.0000
  C   C191      1.0  0.06738  0.28605  0.02334  1.0000
  C   C192      1.0  0.93262  0.78605  0.47666  1.0000
  H   H97       1.0  0.05050  0.41400  0.76090  1.0000
  H   H98       1.0  0.76090  0.05050  0.41400  1.0000
  H   H99       1.0  0.41400  0.76090  0.05050  1.0000
  H   H100      1.0  0.44950  0.58600  0.26090  1.0000
  H   H101      1.0  0.94950  0.91400  0.73910  1.0000
  H   H102      1.0  0.55050  0.08600  0.23910  1.0000
  H   H103      1.0  0.26090  0.44950  0.58600  1.0000
  H   H104      1.0  0.73910  0.94950  0.91400  1.0000
  H   H105      1.0  0.23910  0.55050  0.08600  1.0000
  H   H106      1.0  0.58600  0.26090  0.44950  1.0000
  H   H107      1.0  0.91400  0.73910  0.94950  1.0000
  H   H108      1.0  0.08600  0.23910  0.55050  1.0000
  H   H109      1.0  0.94950  0.58600  0.23910  1.0000
  H   H110      1.0  0.23910  0.94950  0.58600  1.0000
  H   H111      1.0  0.58600  0.23910  0.94950  1.0000
  H   H112      1.0  0.55050  0.41400  0.73910  1.0000
  H   H113      1.0  0.05050  0.08600  0.26090  1.0000
  H   H114      1.0  0.44950  0.91400  0.76090  1.0000
  H   H115      1.0  0.73910  0.55050  0.41400  1.0000
  H   H116      1.0  0.26090  0.05050  0.08600  1.0000
  H   H117      1.0  0.76090  0.44950  0.91400  1.0000
  H   H118      1.0  0.41400  0.73910  0.55050  1.0000
  H   H119      1.0  0.08600  0.26090  0.05050  1.0000
  H   H120      1.0  0.91400  0.76090  0.44950  1.0000
  C   C193      1.0  0.96611  0.40969  0.79198  1.0000
  C   C194      1.0  0.79198  0.96611  0.40969  1.0000
  C   C195      1.0  0.40969  0.79198  0.96611  1.0000
  C   C196      1.0  0.53389  0.59031  0.29198  1.0000
  C   C197      1.0  0.03389  0.90969  0.70802  1.0000
  C   C198      1.0  0.46611  0.09031  0.20802  1.0000
  C   C199      1.0  0.29198  0.53389  0.59031  1.0000
  C   C200      1.0  0.70802  0.03389  0.90969  1.0000
  C   C201      1.0  0.20802  0.46611  0.09031  1.0000
  C   C202      1.0  0.59031  0.29198  0.53389  1.0000
  C   C203      1.0  0.90969  0.70802  0.03389  1.0000
  C   C204      1.0  0.09031  0.20802  0.46611  1.0000
  C   C205      1.0  0.03389  0.59031  0.20802  1.0000
  C   C206      1.0  0.20802  0.03389  0.59031  1.0000
  C   C207      1.0  0.59031  0.20802  0.03389  1.0000
  C   C208      1.0  0.46611  0.40969  0.70802  1.0000
  C   C209      1.0  0.96611  0.09031  0.29198  1.0000
  C   C210      1.0  0.53389  0.90969  0.79198  1.0000
  C   C211      1.0  0.70802  0.46611  0.40969  1.0000
  C   C212      1.0  0.29198  0.96611  0.09031  1.0000
  C   C213      1.0  0.79198  0.53389  0.90969  1.0000
  C   C214      1.0  0.40969  0.70802  0.46611  1.0000
  C   C215      1.0  0.09031  0.29198  0.96611  1.0000
  C   C216      1.0  0.90969  0.79198  0.53389  1.0000
  C   C217      1.0  0.92533  0.43773  0.82917  1.0000
  C   C218      1.0  0.82917  0.92533  0.43773  1.0000
  C   C219      1.0  0.43773  0.82917  0.92533  1.0000
  C   C220      1.0  0.57467  0.56227  0.32917  1.0000
  C   C221      1.0  0.07467  0.93773  0.67083  1.0000
  C   C222      1.0  0.42533  0.06227  0.17083  1.0000
  C   C223      1.0  0.32917  0.57467  0.56227  1.0000
  C   C224      1.0  0.67083  0.07467  0.93773  1.0000
  C   C225      1.0  0.17083  0.42533  0.06227  1.0000
  C   C226      1.0  0.56227  0.32917  0.57467  1.0000
  C   C227      1.0  0.93773  0.67083  0.07467  1.0000
  C   C228      1.0  0.06227  0.17083  0.42533  1.0000
  C   C229      1.0  0.07467  0.56227  0.17083  1.0000
  C   C230      1.0  0.17083  0.07467  0.56227  1.0000
  C   C231      1.0  0.56227  0.17083  0.07467  1.0000
  C   C232      1.0  0.42533  0.43773  0.67083  1.0000
  C   C233      1.0  0.92533  0.06227  0.32917  1.0000
  C   C234      1.0  0.57467  0.93773  0.82917  1.0000
  C   C235      1.0  0.67083  0.42533  0.43773  1.0000
  C   C236      1.0  0.32917  0.92533  0.06227  1.0000
  C   C237      1.0  0.82917  0.57467  0.93773  1.0000
  C   C238      1.0  0.43773  0.67083  0.42533  1.0000
  C   C239      1.0  0.06227  0.32917  0.92533  1.0000
  C   C240      1.0  0.93773  0.82917  0.57467  1.0000
  H   H121      1.0  0.88680  0.42280  0.83260  1.0000
  H   H122      1.0  0.83260  0.88680  0.42280  1.0000
  H   H123      1.0  0.42280  0.83260  0.88680  1.0000
  H   H124      1.0  0.61320  0.57720  0.33260  1.0000
  H   H125      1.0  0.11320  0.92280  0.66740  1.0000
  H   H126      1.0  0.38680  0.07720  0.16740  1.0000
  H   H127      1.0  0.33260  0.61320  0.57720  1.0000
  H   H128      1.0  0.66740  0.11320  0.92280  1.0000
  H   H129      1.0  0.16740  0.38680  0.07720  1.0000
  H   H130      1.0  0.57720  0.33260  0.61320  1.0000
  H   H131      1.0  0.92280  0.66740  0.11320  1.0000
  H   H132      1.0  0.07720  0.16740  0.38680  1.0000
  H   H133      1.0  0.11320  0.57720  0.16740  1.0000
  H   H134      1.0  0.16740  0.11320  0.57720  1.0000
  H   H135      1.0  0.57720  0.16740  0.11320  1.0000
  H   H136      1.0  0.38680  0.42280  0.66740  1.0000
  H   H137      1.0  0.88680  0.07720  0.33260  1.0000
  H   H138      1.0  0.61320  0.92280  0.83260  1.0000
  H   H139      1.0  0.66740  0.38680  0.42280  1.0000
  H   H140      1.0  0.33260  0.88680  0.07720  1.0000
  H   H141      1.0  0.83260  0.61320  0.92280  1.0000
  H   H142      1.0  0.42280  0.66740  0.38680  1.0000
  H   H143      1.0  0.07720  0.33260  0.88680  1.0000
  H   H144      1.0  0.92280  0.83260  0.61320  1.0000
  C   C241      1.0  0.94200  0.48791  0.86110  1.0000
  C   C242      1.0  0.86110  0.94200  0.48791  1.0000
  C   C243      1.0  0.48791  0.86110  0.94200  1.0000
  C   C244      1.0  0.55800  0.51209  0.36110  1.0000
  C   C245      1.0  0.05800  0.98791  0.63890  1.0000
  C   C246      1.0  0.44200  0.01209  0.13890  1.0000
  C   C247      1.0  0.36110  0.55800  0.51209  1.0000
  C   C248      1.0  0.63890  0.05800  0.98791  1.0000
  C   C249      1.0  0.13890  0.44200  0.01209  1.0000
  C   C250      1.0  0.51209  0.36110  0.55800  1.0000
  C   C251      1.0  0.98791  0.63890  0.05800  1.0000
  C   C252      1.0  0.01209  0.13890  0.44200  1.0000
  C   C253      1.0  0.05800  0.51209  0.13890  1.0000
  C   C254      1.0  0.13890  0.05800  0.51209  1.0000
  C   C255      1.0  0.51209  0.13890  0.05800  1.0000
  C   C256      1.0  0.44200  0.48791  0.63890  1.0000
  C   C257      1.0  0.94200  0.01209  0.36110  1.0000
  C   C258      1.0  0.55800  0.98791  0.86110  1.0000
  C   C259      1.0  0.63890  0.44200  0.48791  1.0000
  C   C260      1.0  0.36110  0.94200  0.01209  1.0000
  C   C261      1.0  0.86110  0.55800  0.98791  1.0000
  C   C262      1.0  0.48791  0.63890  0.44200  1.0000
  C   C263      1.0  0.01209  0.36110  0.94200  1.0000
  C   C264      1.0  0.98791  0.86110  0.55800  1.0000
  H   H145      1.0  0.91480  0.50650  0.88620  1.0000
  H   H146      1.0  0.88620  0.91480  0.50650  1.0000
  H   H147      1.0  0.50650  0.88620  0.91480  1.0000
  H   H148      1.0  0.58520  0.49350  0.38620  1.0000
  H   H149      1.0  0.08520  0.00650  0.61380  1.0000
  H   H150      1.0  0.41480  0.99350  0.11380  1.0000
  H   H151      1.0  0.38620  0.58520  0.49350  1.0000
  H   H152      1.0  0.61380  0.08520  0.00650  1.0000
  H   H153      1.0  0.11380  0.41480  0.99350  1.0000
  H   H154      1.0  0.49350  0.38620  0.58520  1.0000
  H   H155      1.0  0.00650  0.61380  0.08520  1.0000
  H   H156      1.0  0.99350  0.11380  0.41480  1.0000
  H   H157      1.0  0.08520  0.49350  0.11380  1.0000
  H   H158      1.0  0.11380  0.08520  0.49350  1.0000
  H   H159      1.0  0.49350  0.11380  0.08520  1.0000
  H   H160      1.0  0.41480  0.50650  0.61380  1.0000
  H   H161      1.0  0.91480  0.99350  0.38620  1.0000
  H   H162      1.0  0.58520  0.00650  0.88620  1.0000
  H   H163      1.0  0.61380  0.41480  0.50650  1.0000
  H   H164      1.0  0.38620  0.91480  0.99350  1.0000
  H   H165      1.0  0.88620  0.58520  0.00650  1.0000
  H   H166      1.0  0.50650  0.61380  0.41480  1.0000
  H   H167      1.0  0.99350  0.38620  0.91480  1.0000
  H   H168      1.0  0.00650  0.88620  0.58520  1.0000
  C   C265      1.0  0.99934  0.51048  0.85554  1.0000
  C   C266      1.0  0.85554  0.99934  0.51048  1.0000
  C   C267      1.0  0.51048  0.85554  0.99934  1.0000
  C   C268      1.0  0.50066  0.48952  0.35554  1.0000
  C   C269      1.0  0.00066  0.01048  0.64446  1.0000
  C   C270      1.0  0.49934  0.98952  0.14446  1.0000
  C   C271      1.0  0.35554  0.50066  0.48952  1.0000
  C   C272      1.0  0.64446  0.00066  0.01048  1.0000
  C   C273      1.0  0.14446  0.49934  0.98952  1.0000
  C   C274      1.0  0.48952  0.35554  0.50066  1.0000
  C   C275      1.0  0.01048  0.64446  0.00066  1.0000
  C   C276      1.0  0.98952  0.14446  0.49934  1.0000
  C   C277      1.0  0.00066  0.48952  0.14446  1.0000
  C   C278      1.0  0.14446  0.00066  0.48952  1.0000
  C   C279      1.0  0.48952  0.14446  0.00066  1.0000
  C   C280      1.0  0.49934  0.51048  0.64446  1.0000
  C   C281      1.0  0.99934  0.98952  0.35554  1.0000
  C   C282      1.0  0.50066  0.01048  0.85554  1.0000
  C   C283      1.0  0.64446  0.49934  0.51048  1.0000
  C   C284      1.0  0.35554  0.99934  0.98952  1.0000
  C   C285      1.0  0.85554  0.50066  0.01048  1.0000
  C   C286      1.0  0.51048  0.64446  0.49934  1.0000
  C   C287      1.0  0.98952  0.35554  0.99934  1.0000
  C   C288      1.0  0.01048  0.85554  0.50066  1.0000
  H   H169      1.0  0.01050  0.54390  0.87730  1.0000
  H   H170      1.0  0.87730  0.01050  0.54390  1.0000
  H   H171      1.0  0.54390  0.87730  0.01050  1.0000
  H   H172      1.0  0.48950  0.45610  0.37730  1.0000
  H   H173      1.0  0.98950  0.04390  0.62270  1.0000
  H   H174      1.0  0.51050  0.95610  0.12270  1.0000
  H   H175      1.0  0.37730  0.48950  0.45610  1.0000
  H   H176      1.0  0.62270  0.98950  0.04390  1.0000
  H   H177      1.0  0.12270  0.51050  0.95610  1.0000
  H   H178      1.0  0.45610  0.37730  0.48950  1.0000
  H   H179      1.0  0.04390  0.62270  0.98950  1.0000
  H   H180      1.0  0.95610  0.12270  0.51050  1.0000
  H   H181      1.0  0.98950  0.45610  0.12270  1.0000
  H   H182      1.0  0.12270  0.98950  0.45610  1.0000
  H   H183      1.0  0.45610  0.12270  0.98950  1.0000
  H   H184      1.0  0.51050  0.54390  0.62270  1.0000
  H   H185      1.0  0.01050  0.95610  0.37730  1.0000
  H   H186      1.0  0.48950  0.04390  0.87730  1.0000
  H   H187      1.0  0.62270  0.51050  0.54390  1.0000
  H   H188      1.0  0.37730  0.01050  0.95610  1.0000
  H   H189      1.0  0.87730  0.48950  0.04390  1.0000
  H   H190      1.0  0.54390  0.62270  0.51050  1.0000
  H   H191      1.0  0.95610  0.37730  0.01050  1.0000
  H   H192      1.0  0.04390  0.87730  0.48950  1.0000
  C   C289      1.0  0.10017  0.51091  0.80919  1.0000
  C   C290      1.0  0.80919  0.10017  0.51091  1.0000
  C   C291      1.0  0.51091  0.80919  0.10017  1.0000
  C   C292      1.0  0.39983  0.48909  0.30919  1.0000
  C   C293      1.0  0.89983  0.01091  0.69081  1.0000
  C   C294      1.0  0.60017  0.98909  0.19081  1.0000
  C   C295      1.0  0.30919  0.39983  0.48909  1.0000
  C   C296      1.0  0.69081  0.89983  0.01091  1.0000
  C   C297      1.0  0.19081  0.60017  0.98909  1.0000
  C   C298      1.0  0.48909  0.30919  0.39983  1.0000
  C   C299      1.0  0.01091  0.69081  0.89983  1.0000
  C   C300      1.0  0.98909  0.19081  0.60017  1.0000
  C   C301      1.0  0.89983  0.48909  0.19081  1.0000
  C   C302      1.0  0.19081  0.89983  0.48909  1.0000
  C   C303      1.0  0.48909  0.19081  0.89983  1.0000
  C   C304      1.0  0.60017  0.51091  0.69081  1.0000
  C   C305      1.0  0.10017  0.98909  0.30919  1.0000
  C   C306      1.0  0.39983  0.01091  0.80919  1.0000
  C   C307      1.0  0.69081  0.60017  0.51091  1.0000
  C   C308      1.0  0.30919  0.10017  0.98909  1.0000
  C   C309      1.0  0.80919  0.39983  0.01091  1.0000
  C   C310      1.0  0.51091  0.69081  0.60017  1.0000
  C   C311      1.0  0.98909  0.30919  0.10017  1.0000
  C   C312      1.0  0.01091  0.80919  0.39983  1.0000
  C   C313      1.0  0.94746  0.35482  0.75874  1.0000
  C   C314      1.0  0.75874  0.94746  0.35482  1.0000
  C   C315      1.0  0.35482  0.75874  0.94746  1.0000
  C   C316      1.0  0.55254  0.64518  0.25874  1.0000
  C   C317      1.0  0.05254  0.85482  0.74126  1.0000
  C   C318      1.0  0.44746  0.14518  0.24126  1.0000
  C   C319      1.0  0.25874  0.55254  0.64518  1.0000
  C   C320      1.0  0.74126  0.05254  0.85482  1.0000
  C   C321      1.0  0.24126  0.44746  0.14518  1.0000
  C   C322      1.0  0.64518  0.25874  0.55254  1.0000
  C   C323      1.0  0.85482  0.74126  0.05254  1.0000
  C   C324      1.0  0.14518  0.24126  0.44746  1.0000
  C   C325      1.0  0.05254  0.64518  0.24126  1.0000
  C   C326      1.0  0.24126  0.05254  0.64518  1.0000
  C   C327      1.0  0.64518  0.24126  0.05254  1.0000
  C   C328      1.0  0.44746  0.35482  0.74126  1.0000
  C   C329      1.0  0.94746  0.14518  0.25874  1.0000
  C   C330      1.0  0.55254  0.85482  0.75874  1.0000
  C   C331      1.0  0.74126  0.44746  0.35482  1.0000
  C   C332      1.0  0.25874  0.94746  0.14518  1.0000
  C   C333      1.0  0.75874  0.55254  0.85482  1.0000
  C   C334      1.0  0.35482  0.74126  0.44746  1.0000
  C   C335      1.0  0.14518  0.25874  0.94746  1.0000
  C   C336      1.0  0.85482  0.75874  0.55254  1.0000
