data_image0
_chemical_formula_structural       U4O8C6H2C4H2C4H2C2O4N2O12C6H2C4H2C4H2C2O4N2O6H4
_chemical_formula_sum              "U4 O34 C32 H16 N4"
_cell_length_a       10.663
_cell_length_b       11.09
_cell_length_c       14.718
_cell_angle_alpha    106.88
_cell_angle_beta     95.76
_cell_angle_gamma    112.99

_space_group_name_H-M_alt    "P 1"
_space_group_IT_number       1

loop_
  _space_group_symop_operation_xyz
  'x, y, z'

loop_
  _atom_site_type_symbol
  _atom_site_label
  _atom_site_symmetry_multiplicity
  _atom_site_fract_x
  _atom_site_fract_y
  _atom_site_fract_z
  _atom_site_occupancy
  U   U1        1.0  0.60813  0.83075  0.88942  1.0000
  U   U2        1.0  0.39187  0.16925  0.11058  1.0000
  U   U3        1.0  0.34101  0.35138  0.50982  1.0000
  U   U4        1.0  0.65899  0.64862  0.49018  1.0000
  O   O1        1.0  0.43160  0.74700  0.81910  1.0000
  O   O2        1.0  0.56840  0.25300  0.18090  1.0000
  O   O3        1.0  0.78370  0.91430  0.96120  1.0000
  O   O4        1.0  0.21630  0.08570  0.03880  1.0000
  O   O5        1.0  0.64740  0.63590  0.78800  1.0000
  O   O6        1.0  0.35260  0.36410  0.21200  1.0000
  O   O7        1.0  0.57320  0.61220  0.91810  1.0000
  O   O8        1.0  0.42680  0.38780  0.08190  1.0000
  C   C1        1.0  0.60980  0.56560  0.84340  1.0000
  C   C2        1.0  0.39020  0.43440  0.15660  1.0000
  C   C3        1.0  0.61000  0.42150  0.81520  1.0000
  C   C4        1.0  0.39000  0.57850  0.18480  1.0000
  C   C5        1.0  0.65700  0.37630  0.73260  1.0000
  C   C6        1.0  0.34300  0.62370  0.26740  1.0000
  H   H1        1.0  0.68490  0.43120  0.69440  1.0000
  H   H2        1.0  0.31510  0.56880  0.30560  1.0000
  C   C7        1.0  0.66100  0.24990  0.70910  1.0000
  C   C8        1.0  0.33900  0.75010  0.29090  1.0000
  C   C9        1.0  0.62620  0.16670  0.76670  1.0000
  C   C10       1.0  0.37380  0.83330  0.23330  1.0000
  H   H3        1.0  0.63210  0.08180  0.74970  1.0000
  H   H4        1.0  0.36790  0.91820  0.25030  1.0000
  C   C11       1.0  0.58240  0.21500  0.85040  1.0000
  C   C12       1.0  0.41760  0.78500  0.14960  1.0000
  C   C13       1.0  0.57380  0.34320  0.87300  1.0000
  C   C14       1.0  0.42620  0.65680  0.12700  1.0000
  H   H5        1.0  0.54310  0.37500  0.92810  1.0000
  H   H6        1.0  0.45690  0.62500  0.07190  1.0000
  C   C15       1.0  0.55150  0.13330  0.91570  1.0000
  C   C16       1.0  0.44850  0.86670  0.08430  1.0000
  O   O9        1.0  0.46860  0.14980  0.96840  1.0000
  O   O10       1.0  0.53140  0.85020  0.03160  1.0000
  O   O11       1.0  0.60420  0.04900  0.91360  1.0000
  O   O12       1.0  0.39580  0.95100  0.08640  1.0000
  N   N1        1.0  0.70090  0.19670  0.61890  1.0000
  N   N2        1.0  0.29910  0.80330  0.38110  1.0000
  O   O13       1.0  0.68470  0.07370  0.59160  1.0000
  O   O14       1.0  0.31530  0.92630  0.40840  1.0000
  O   O15       1.0  0.75030  0.27590  0.57560  1.0000
  O   O16       1.0  0.24970  0.72410  0.42440  1.0000
  O   O17       1.0  0.44710  0.27010  0.53710  1.0000
  O   O18       1.0  0.55290  0.72990  0.46290  1.0000
  O   O19       1.0  0.23270  0.43040  0.48220  1.0000
  O   O20       1.0  0.76730  0.56960  0.51780  1.0000
  O   O21       1.0  0.69910  0.89570  0.76400  1.0000
  O   O22       1.0  0.30090  0.10430  0.23600  1.0000
  O   O23       1.0  0.78680  0.83640  0.63670  1.0000
  O   O24       1.0  0.21320  0.16360  0.36330  1.0000
  C   C17       1.0  0.78990  0.92510  0.71530  1.0000
  C   C18       1.0  0.21010  0.07490  0.28470  1.0000
  C   C19       1.0  0.90970  0.06690  0.75100  1.0000
  C   C20       1.0  0.09030  0.93310  0.24900  1.0000
  C   C21       1.0  0.93990  0.16170  0.84650  1.0000
  C   C22       1.0  0.06010  0.83830  0.15350  1.0000
  H   H7        1.0  0.88400  0.13810  0.88900  1.0000
  H   H8        1.0  0.11600  0.86190  0.11100  1.0000
  C   C23       1.0  0.05490  0.29070  0.87540  1.0000
  C   C24       1.0  0.94510  0.70930  0.12460  1.0000
  C   C25       1.0  0.14140  0.33140  0.81650  1.0000
  C   C26       1.0  0.85860  0.66860  0.18350  1.0000
  H   H9        1.0  0.21980  0.41810  0.83950  1.0000
  H   H10       1.0  0.78020  0.58190  0.16050  1.0000
  C   C27       1.0  0.10810  0.23780  0.72010  1.0000
  C   C28       1.0  0.89190  0.76220  0.27990  1.0000
  C   C29       1.0  0.99370  0.10960  0.68810  1.0000
  C   C30       1.0  0.00630  0.89040  0.31190  1.0000
  H   H11       1.0  0.97120  0.04960  0.62360  1.0000
  H   H12       1.0  0.02880  0.95040  0.37640  1.0000
  C   C31       1.0  0.19450  0.27950  0.65000  1.0000
  C   C32       1.0  0.80550  0.72050  0.35000  1.0000
  O   O25       1.0  0.14880  0.19800  0.56050  1.0000
  O   O26       1.0  0.85120  0.80200  0.43950  1.0000
  O   O27       1.0  0.30690  0.39110  0.67910  1.0000
  O   O28       1.0  0.69310  0.60890  0.32090  1.0000
  N   N3        1.0  0.08510  0.39010  0.97570  1.0000
  N   N4        1.0  0.91490  0.60990  0.02430  1.0000
  O   O29       1.0  0.15100  0.51760  0.99010  1.0000
  O   O30       1.0  0.84900  0.48240  0.00990  1.0000
  O   O31       1.0  0.04440  0.34540  0.03880  1.0000
  O   O32       1.0  0.95560  0.65460  0.96120  1.0000
  O   O33       1.0  0.52100  0.57320  0.59590  1.0000
  O   O34       1.0  0.47900  0.42680  0.40410  1.0000
  H   H13       1.0  0.56900  0.57140  0.64120  1.0000
  H   H14       1.0  0.43100  0.42860  0.35880  1.0000
  H   H15       1.0  0.48900  0.62680  0.61740  1.0000
  H   H16       1.0  0.51100  0.37320  0.38260  1.0000
