data_image0
_chemical_formula_structural       C12H4C8H4C8H4C16H4C8H4C8H4C4N8O56U4
_chemical_formula_sum              "C64 H24 N8 O56 U4"
_cell_length_a       11.8861
_cell_length_b       20.3996
_cell_length_c       9.7156
_cell_angle_alpha    90
_cell_angle_beta     99.59
_cell_angle_gamma    90

_space_group_name_H-M_alt    "P 1"
_space_group_IT_number       1

loop_
  _space_group_symop_operation_xyz
  'x, y, z'

loop_
  _atom_site_type_symbol
  _atom_site_label
  _atom_site_symmetry_multiplicity
  _atom_site_fract_x
  _atom_site_fract_y
  _atom_site_fract_z
  _atom_site_occupancy
  C   C1        1.0  0.00750  0.09800  0.97260  1.0000
  C   C2        1.0  0.99250  0.59800  0.52740  1.0000
  C   C3        1.0  0.99250  0.90200  0.02740  1.0000
  C   C4        1.0  0.00750  0.40200  0.47260  1.0000
  C   C5        1.0  0.01410  0.16670  0.91940  1.0000
  C   C6        1.0  0.98590  0.66670  0.58060  1.0000
  C   C7        1.0  0.98590  0.83330  0.08060  1.0000
  C   C8        1.0  0.01410  0.33330  0.41940  1.0000
  C   C9        1.0  0.94180  0.18630  0.80010  1.0000
  C   C10       1.0  0.05820  0.68630  0.69990  1.0000
  C   C11       1.0  0.05820  0.81370  0.19990  1.0000
  C   C12       1.0  0.94180  0.31370  0.30010  1.0000
  H   H1        1.0  0.89580  0.15530  0.74780  1.0000
  H   H2        1.0  0.10420  0.65530  0.75220  1.0000
  H   H3        1.0  0.10420  0.84470  0.25220  1.0000
  H   H4        1.0  0.89580  0.34470  0.24780  1.0000
  C   C13       1.0  0.93620  0.25010  0.75730  1.0000
  C   C14       1.0  0.06380  0.75010  0.74270  1.0000
  C   C15       1.0  0.06380  0.74990  0.24270  1.0000
  C   C16       1.0  0.93620  0.24990  0.25730  1.0000
  C   C17       1.0  0.00400  0.29590  0.83590  1.0000
  C   C18       1.0  0.99600  0.79590  0.66410  1.0000
  C   C19       1.0  0.99600  0.70410  0.16410  1.0000
  C   C20       1.0  0.00400  0.20410  0.33590  1.0000
  H   H5        1.0  0.99990  0.33990  0.80980  1.0000
  H   H6        1.0  0.00010  0.83990  0.69020  1.0000
  H   H7        1.0  0.00010  0.66010  0.19020  1.0000
  H   H8        1.0  0.99990  0.16010  0.30980  1.0000
  C   C21       1.0  0.07870  0.27600  0.95480  1.0000
  C   C22       1.0  0.92130  0.77600  0.54520  1.0000
  C   C23       1.0  0.92130  0.72400  0.04520  1.0000
  C   C24       1.0  0.07870  0.22400  0.45480  1.0000
  C   C25       1.0  0.08660  0.21110  0.99770  1.0000
  C   C26       1.0  0.91340  0.71110  0.50230  1.0000
  C   C27       1.0  0.91340  0.78890  0.00230  1.0000
  C   C28       1.0  0.08660  0.28890  0.49770  1.0000
  H   H9        1.0  0.13810  0.19790  0.07550  1.0000
  H   H10       1.0  0.86190  0.69790  0.42450  1.0000
  H   H11       1.0  0.86190  0.80210  0.92450  1.0000
  H   H12       1.0  0.13810  0.30210  0.57550  1.0000
  C   C29       1.0  0.84600  0.26470  0.62250  1.0000
  C   C30       1.0  0.15400  0.76470  0.87750  1.0000
  C   C31       1.0  0.15400  0.73530  0.37750  1.0000
  C   C32       1.0  0.84600  0.23530  0.12250  1.0000
  C   C33       1.0  0.35850  0.10250  0.34450  1.0000
  C   C34       1.0  0.64150  0.60250  0.15550  1.0000
  C   C35       1.0  0.64150  0.89750  0.65550  1.0000
  C   C36       1.0  0.35850  0.39750  0.84450  1.0000
  C   C37       1.0  0.42640  0.14930  0.44290  1.0000
  C   C38       1.0  0.57360  0.64930  0.05710  1.0000
  C   C39       1.0  0.57360  0.85070  0.55710  1.0000
  C   C40       1.0  0.42640  0.35070  0.94290  1.0000
  C   C41       1.0  0.40680  0.21670  0.42950  1.0000
  C   C42       1.0  0.59320  0.71670  0.07050  1.0000
  C   C43       1.0  0.59320  0.78330  0.57050  1.0000
  C   C44       1.0  0.40680  0.28330  0.92950  1.0000
  H   H13       1.0  0.35420  0.23350  0.35640  1.0000
  H   H14       1.0  0.64580  0.73350  0.14360  1.0000
  H   H15       1.0  0.64580  0.76650  0.64360  1.0000
  H   H16       1.0  0.35420  0.26650  0.85640  1.0000
  C   C45       1.0  0.46810  0.25780  0.52840  1.0000
  C   C46       1.0  0.53190  0.75780  0.97160  1.0000
  C   C47       1.0  0.53190  0.74220  0.47160  1.0000
  C   C48       1.0  0.46810  0.24220  0.02840  1.0000
  C   C49       1.0  0.54670  0.23440  0.63840  1.0000
  C   C50       1.0  0.45330  0.73440  0.86160  1.0000
  C   C51       1.0  0.45330  0.76560  0.36160  1.0000
  C   C52       1.0  0.54670  0.26560  0.13840  1.0000
  H   H17       1.0  0.58540  0.26300  0.70450  1.0000
  H   H18       1.0  0.41460  0.76300  0.79550  1.0000
  H   H19       1.0  0.41460  0.73700  0.29550  1.0000
  H   H20       1.0  0.58540  0.23700  0.20450  1.0000
  C   C53       1.0  0.56660  0.16760  0.64850  1.0000
  C   C54       1.0  0.43340  0.66760  0.85150  1.0000
  C   C55       1.0  0.43340  0.83240  0.35150  1.0000
  C   C56       1.0  0.56660  0.33240  0.14850  1.0000
  C   C57       1.0  0.50770  0.12550  0.55040  1.0000
  C   C58       1.0  0.49230  0.62550  0.94960  1.0000
  C   C59       1.0  0.49230  0.87450  0.44960  1.0000
  C   C60       1.0  0.50770  0.37450  0.05040  1.0000
  H   H21       1.0  0.52280  0.08080  0.55650  1.0000
  H   H22       1.0  0.47720  0.58080  0.94350  1.0000
  H   H23       1.0  0.47720  0.91920  0.44350  1.0000
  H   H24       1.0  0.52280  0.41920  0.05650  1.0000
  C   C61       1.0  0.65600  0.14180  0.76380  1.0000
  C   C62       1.0  0.34400  0.64180  0.73620  1.0000
  C   C63       1.0  0.34400  0.85820  0.23620  1.0000
  C   C64       1.0  0.65600  0.35820  0.26380  1.0000
  N   N1        1.0  0.14710  0.32460  0.04280  1.0000
  N   N2        1.0  0.85290  0.82460  0.45720  1.0000
  N   N3        1.0  0.85290  0.67540  0.95720  1.0000
  N   N4        1.0  0.14710  0.17540  0.54280  1.0000
  N   N5        1.0  0.45110  0.32880  0.51460  1.0000
  N   N6        1.0  0.54890  0.82880  0.98540  1.0000
  N   N7        1.0  0.54890  0.67120  0.48540  1.0000
  N   N8        1.0  0.45110  0.17120  0.01460  1.0000
  O   O1        1.0  0.14090  0.00820  0.33970  1.0000
  O   O2        1.0  0.85910  0.50820  0.16030  1.0000
  O   O3        1.0  0.85910  0.99180  0.66030  1.0000
  O   O4        1.0  0.14090  0.49180  0.83970  1.0000
  O   O5        1.0  0.27860  0.00780  0.04630  1.0000
  O   O6        1.0  0.72140  0.50780  0.45370  1.0000
  O   O7        1.0  0.72140  0.99220  0.95370  1.0000
  O   O8        1.0  0.27860  0.49220  0.54630  1.0000
  O   O9        1.0  0.27590  0.12232  0.25550  1.0000
  O   O10       1.0  0.72410  0.62232  0.24450  1.0000
  O   O11       1.0  0.72410  0.87768  0.74450  1.0000
  O   O12       1.0  0.27590  0.37768  0.75550  1.0000
  O   O13       1.0  0.38110  0.04192  0.35560  1.0000
  O   O14       1.0  0.61890  0.54192  0.14440  1.0000
  O   O15       1.0  0.61890  0.95808  0.64440  1.0000
  O   O16       1.0  0.38110  0.45808  0.85560  1.0000
  O   O17       1.0  0.70260  0.08853  0.73710  1.0000
  O   O18       1.0  0.29740  0.58853  0.76290  1.0000
  O   O19       1.0  0.29740  0.91147  0.26290  1.0000
  O   O20       1.0  0.70260  0.41147  0.23710  1.0000
  O   O21       1.0  0.07510  0.08167  0.07910  1.0000
  O   O22       1.0  0.92490  0.58167  0.42090  1.0000
  O   O23       1.0  0.92490  0.91833  0.92090  1.0000
  O   O24       1.0  0.07510  0.41833  0.57910  1.0000
  O   O25       1.0  0.93200  0.06151  0.91100  1.0000
  O   O26       1.0  0.06800  0.56151  0.58900  1.0000
  O   O27       1.0  0.06800  0.93849  0.08900  1.0000
  O   O28       1.0  0.93200  0.43849  0.41100  1.0000
  O   O29       1.0  0.67910  0.17320  0.87170  1.0000
  O   O30       1.0  0.32090  0.67320  0.62830  1.0000
  O   O31       1.0  0.32090  0.82680  0.12830  1.0000
  O   O32       1.0  0.67910  0.32680  0.37170  1.0000
  O   O33       1.0  0.80890  0.22270  0.54700  1.0000
  O   O34       1.0  0.19110  0.72270  0.95300  1.0000
  O   O35       1.0  0.19110  0.77730  0.45300  1.0000
  O   O36       1.0  0.80890  0.27730  0.04700  1.0000
  O   O37       1.0  0.82670  0.32790  0.61250  1.0000
  O   O38       1.0  0.17330  0.82790  0.88750  1.0000
  O   O39       1.0  0.17330  0.67210  0.38750  1.0000
  O   O40       1.0  0.82670  0.17210  0.11250  1.0000
  O   O41       1.0  0.12820  0.38160  0.01630  1.0000
  O   O42       1.0  0.87180  0.88160  0.48370  1.0000
  O   O43       1.0  0.87180  0.61840  0.98370  1.0000
  O   O44       1.0  0.12820  0.11840  0.51630  1.0000
  O   O45       1.0  0.21790  0.30630  0.13680  1.0000
  O   O46       1.0  0.78210  0.80630  0.36320  1.0000
  O   O47       1.0  0.78210  0.69370  0.86320  1.0000
  O   O48       1.0  0.21790  0.19370  0.63680  1.0000
  O   O49       1.0  0.38300  0.34870  0.41720  1.0000
  O   O50       1.0  0.61700  0.84870  0.08280  1.0000
  O   O51       1.0  0.61700  0.65130  0.58280  1.0000
  O   O52       1.0  0.38300  0.15130  0.91720  1.0000
  O   O53       1.0  0.50480  0.36423  0.60110  1.0000
  O   O54       1.0  0.49520  0.86423  0.89890  1.0000
  O   O55       1.0  0.49520  0.63577  0.39890  1.0000
  O   O56       1.0  0.50480  0.13577  0.10110  1.0000
  U   U1        1.0  0.21037  0.00899  0.19293  1.0000
  U   U2        1.0  0.78963  0.50899  0.30707  1.0000
  U   U3        1.0  0.78963  0.99101  0.80707  1.0000
  U   U4        1.0  0.21037  0.49101  0.69293  1.0000
