data_image0
_chemical_formula_structural       Co6O32N8C12H4C20H4C4H4C12H4C4H4C12H4
_chemical_formula_sum              "Co6 O32 N8 C64 H24"
_cell_length_a       12.7977
_cell_length_b       14.5344
_cell_length_c       13.0141
_cell_angle_alpha    90
_cell_angle_beta     118.732
_cell_angle_gamma    90

_space_group_name_H-M_alt    "P 1"
_space_group_IT_number       1

loop_
  _space_group_symop_operation_xyz
  'x, y, z'

loop_
  _atom_site_type_symbol
  _atom_site_label
  _atom_site_symmetry_multiplicity
  _atom_site_fract_x
  _atom_site_fract_y
  _atom_site_fract_z
  _atom_site_occupancy
  Co  Co1       1.0  0.50000  0.50000  0.00000  1.0000
  Co  Co2       1.0  0.50000  0.00000  0.50000  1.0000
  Co  Co3       1.0  0.77557  0.44041  0.02575  1.0000
  Co  Co4       1.0  0.22443  0.94041  0.47425  1.0000
  Co  Co5       1.0  0.22443  0.55959  0.97425  1.0000
  Co  Co6       1.0  0.77557  0.05959  0.52575  1.0000
  O   O1        1.0  0.53960  0.57220  0.88380  1.0000
  O   O2        1.0  0.46040  0.07220  0.61620  1.0000
  O   O3        1.0  0.46040  0.42780  0.11620  1.0000
  O   O4        1.0  0.53960  0.92780  0.38380  1.0000
  O   O5        1.0  0.38700  0.88730  0.49510  1.0000
  O   O6        1.0  0.61300  0.38730  0.00490  1.0000
  O   O7        1.0  0.61300  0.11270  0.50490  1.0000
  O   O8        1.0  0.38700  0.61270  0.99510  1.0000
  O   O9        1.0  0.82670  0.53520  0.15270  1.0000
  O   O10       1.0  0.17330  0.03520  0.34730  1.0000
  O   O11       1.0  0.17330  0.46480  0.84730  1.0000
  O   O12       1.0  0.82670  0.96480  0.65270  1.0000
  O   O13       1.0  0.64880  0.55160  0.14610  1.0000
  O   O14       1.0  0.35120  0.05160  0.35390  1.0000
  O   O15       1.0  0.35120  0.44840  0.85390  1.0000
  O   O16       1.0  0.64880  0.94840  0.64610  1.0000
  O   O17       1.0  0.70970  0.52450  0.88750  1.0000
  O   O18       1.0  0.29030  0.02450  0.61250  1.0000
  O   O19       1.0  0.29030  0.47550  0.11250  1.0000
  O   O20       1.0  0.70970  0.97550  0.38750  1.0000
  O   O21       1.0  0.10270  0.81350  0.34470  1.0000
  O   O22       1.0  0.89730  0.31350  0.15530  1.0000
  O   O23       1.0  0.89730  0.18650  0.65530  1.0000
  O   O24       1.0  0.10270  0.68650  0.84470  1.0000
  O   O25       1.0  0.31370  0.82470  0.60120  1.0000
  O   O26       1.0  0.68630  0.32470  0.89880  1.0000
  O   O27       1.0  0.68630  0.17530  0.39880  1.0000
  O   O28       1.0  0.31370  0.67530  0.10120  1.0000
  O   O29       1.0  0.06730  0.89940  0.46450  1.0000
  O   O30       1.0  0.93270  0.39940  0.03550  1.0000
  O   O31       1.0  0.93270  0.10060  0.53550  1.0000
  O   O32       1.0  0.06730  0.60060  0.96450  1.0000
  N   N1        1.0  0.71540  0.66470  0.54120  1.0000
  N   N2        1.0  0.28460  0.16470  0.95880  1.0000
  N   N3        1.0  0.28460  0.33530  0.45880  1.0000
  N   N4        1.0  0.71540  0.83530  0.04120  1.0000
  N   N5        1.0  0.74330  0.73760  0.50880  1.0000
  N   N6        1.0  0.25670  0.23760  0.99120  1.0000
  N   N7        1.0  0.25670  0.26240  0.49120  1.0000
  N   N8        1.0  0.74330  0.76240  0.00880  1.0000
  C   C1        1.0  0.79870  0.72220  0.43780  1.0000
  C   C2        1.0  0.20130  0.22220  0.06220  1.0000
  C   C3        1.0  0.20130  0.27780  0.56220  1.0000
  C   C4        1.0  0.79870  0.77780  0.93780  1.0000
  C   C5        1.0  0.61570  0.57160  0.84740  1.0000
  C   C6        1.0  0.38430  0.07160  0.65260  1.0000
  C   C7        1.0  0.38430  0.42840  0.15260  1.0000
  C   C8        1.0  0.61570  0.92840  0.34740  1.0000
  C   C9        1.0  0.56130  0.75060  0.56310  1.0000
  C   C10       1.0  0.43870  0.25060  0.93690  1.0000
  C   C11       1.0  0.43870  0.24940  0.43690  1.0000
  C   C12       1.0  0.56130  0.74940  0.06310  1.0000
  H   H1        1.0  0.55111  0.79155  0.50207  1.0000
  H   H2        1.0  0.44889  0.29155  0.99793  1.0000
  H   H3        1.0  0.44889  0.20845  0.49793  1.0000
  H   H4        1.0  0.55111  0.70845  0.00207  1.0000
  C   C13       1.0  0.94160  0.76870  0.37890  1.0000
  C   C14       1.0  0.05840  0.26870  0.12110  1.0000
  C   C15       1.0  0.05840  0.23130  0.62110  1.0000
  C   C16       1.0  0.94160  0.73130  0.87890  1.0000
  C   C17       1.0  0.75630  0.57120  0.18480  1.0000
  C   C18       1.0  0.24370  0.07120  0.31520  1.0000
  C   C19       1.0  0.24370  0.42880  0.81520  1.0000
  C   C20       1.0  0.75630  0.92880  0.68480  1.0000
  C   C21       1.0  0.64670  0.68150  0.59980  1.0000
  C   C22       1.0  0.35330  0.18150  0.90020  1.0000
  C   C23       1.0  0.35330  0.31850  0.40020  1.0000
  C   C24       1.0  0.64670  0.81850  0.09980  1.0000
  C   C25       1.0  0.59490  0.63340  0.74730  1.0000
  C   C26       1.0  0.40510  0.13340  0.75270  1.0000
  C   C27       1.0  0.40510  0.36660  0.25270  1.0000
  C   C28       1.0  0.59490  0.86660  0.24730  1.0000
  C   C29       1.0  0.88590  0.78140  0.44710  1.0000
  C   C30       1.0  0.11410  0.28140  0.05290  1.0000
  C   C31       1.0  0.11410  0.21860  0.55290  1.0000
  C   C32       1.0  0.88590  0.71860  0.94710  1.0000
  H   H5        1.0  0.90864  0.83141  0.50055  1.0000
  H   H6        1.0  0.09136  0.33141  0.99945  1.0000
  H   H7        1.0  0.09136  0.16859  0.49945  1.0000
  H   H8        1.0  0.90864  0.66859  0.00055  1.0000
  C   C33       1.0  0.75680  0.65330  0.35200  1.0000
  C   C34       1.0  0.24320  0.15330  0.14800  1.0000
  C   C35       1.0  0.24320  0.34670  0.64800  1.0000
  C   C36       1.0  0.75680  0.84670  0.85200  1.0000
  H   H9        1.0  0.69324  0.61445  0.34299  1.0000
  H   H10       1.0  0.30676  0.11445  0.15701  1.0000
  H   H11       1.0  0.30676  0.38555  0.65701  1.0000
  H   H12       1.0  0.69324  0.88555  0.84299  1.0000
  C   C37       1.0  0.49150  0.75880  0.61700  1.0000
  C   C38       1.0  0.50850  0.25880  0.88300  1.0000
  C   C39       1.0  0.50850  0.24120  0.38300  1.0000
  C   C40       1.0  0.49150  0.74120  0.11700  1.0000
  C   C41       1.0  0.80800  0.64190  0.28020  1.0000
  C   C42       1.0  0.19200  0.14190  0.21980  1.0000
  C   C43       1.0  0.19200  0.35810  0.71980  1.0000
  C   C44       1.0  0.80800  0.85810  0.78020  1.0000
  C   C45       1.0  0.66430  0.62270  0.69100  1.0000
  C   C46       1.0  0.33570  0.12270  0.80900  1.0000
  C   C47       1.0  0.33570  0.37730  0.30900  1.0000
  C   C48       1.0  0.66430  0.87730  0.19100  1.0000
  H   H13       1.0  0.72278  0.57551  0.71496  1.0000
  H   H14       1.0  0.27722  0.07551  0.78504  1.0000
  H   H15       1.0  0.27722  0.42449  0.28504  1.0000
  H   H16       1.0  0.72278  0.92449  0.21496  1.0000
  C   C49       1.0  0.50710  0.69980  0.70930  1.0000
  C   C50       1.0  0.49290  0.19980  0.79070  1.0000
  C   C51       1.0  0.49290  0.30020  0.29070  1.0000
  C   C52       1.0  0.50710  0.80020  0.20930  1.0000
  H   H17       1.0  0.45772  0.70567  0.74488  1.0000
  H   H18       1.0  0.54228  0.20567  0.75512  1.0000
  H   H19       1.0  0.54228  0.29433  0.25512  1.0000
  H   H20       1.0  0.45772  0.79433  0.24488  1.0000
  C   C53       1.0  0.04340  0.83100  0.39640  1.0000
  C   C54       1.0  0.95660  0.33100  0.10360  1.0000
  C   C55       1.0  0.95660  0.16900  0.60360  1.0000
  C   C56       1.0  0.04340  0.66900  0.89640  1.0000
  C   C57       1.0  0.39300  0.82730  0.57090  1.0000
  C   C58       1.0  0.60700  0.32730  0.92910  1.0000
  C   C59       1.0  0.60700  0.17270  0.42910  1.0000
  C   C60       1.0  0.39300  0.67270  0.07090  1.0000
  C   C61       1.0  0.90320  0.69940  0.29630  1.0000
  C   C62       1.0  0.09680  0.19940  0.20370  1.0000
  C   C63       1.0  0.09680  0.30060  0.70370  1.0000
  C   C64       1.0  0.90320  0.80060  0.79630  1.0000
  H   H21       1.0  0.94130  0.69050  0.24992  1.0000
  H   H22       1.0  0.05870  0.19050  0.25008  1.0000
  H   H23       1.0  0.05870  0.30950  0.75008  1.0000
  H   H24       1.0  0.94130  0.80950  0.74992  1.0000
