data_image0
_chemical_formula_structural       C12H6C12H6C12H6C12H6C12H6C12H6C12H6C12H6C12H6C24N6O60Cu6
_chemical_formula_sum              "C132 H54 N6 O60 Cu6"
_cell_length_a       22.4612
_cell_length_b       22.4612
_cell_length_c       11.1324
_cell_angle_alpha    90
_cell_angle_beta     90
_cell_angle_gamma    120

_space_group_name_H-M_alt    "P 1"
_space_group_IT_number       1

loop_
  _space_group_symop_operation_xyz
  'x, y, z'

loop_
  _atom_site_type_symbol
  _atom_site_label
  _atom_site_symmetry_multiplicity
  _atom_site_fract_x
  _atom_site_fract_y
  _atom_site_fract_z
  _atom_site_occupancy
  C   C1        1.0  0.28950  0.81130  0.54360  1.0000
  C   C2        1.0  0.18870  0.47820  0.21027  1.0000
  C   C3        1.0  0.52180  0.71050  0.87693  1.0000
  C   C4        1.0  0.81130  0.28950  0.45640  1.0000
  C   C5        1.0  0.47820  0.18870  0.78973  1.0000
  C   C6        1.0  0.71050  0.52180  0.12307  1.0000
  C   C7        1.0  0.22080  0.77760  0.50700  1.0000
  C   C8        1.0  0.22240  0.44320  0.17367  1.0000
  C   C9        1.0  0.55680  0.77920  0.84033  1.0000
  C   C10       1.0  0.77760  0.22080  0.49300  1.0000
  C   C11       1.0  0.44320  0.22240  0.82633  1.0000
  C   C12       1.0  0.77920  0.55680  0.15967  1.0000
  H   H1        1.0  0.19657  0.80125  0.50794  1.0000
  H   H2        1.0  0.19875  0.39532  0.17461  1.0000
  H   H3        1.0  0.60468  0.80343  0.84127  1.0000
  H   H4        1.0  0.80125  0.19657  0.49206  1.0000
  H   H5        1.0  0.39532  0.19875  0.82539  1.0000
  H   H6        1.0  0.80343  0.60468  0.15873  1.0000
  C   C13       1.0  0.18750  0.70920  0.46800  1.0000
  C   C14       1.0  0.29080  0.47830  0.13467  1.0000
  C   C15       1.0  0.52170  0.81250  0.80133  1.0000
  C   C16       1.0  0.70920  0.18750  0.53200  1.0000
  C   C17       1.0  0.47830  0.29080  0.86533  1.0000
  C   C18       1.0  0.81250  0.52170  0.19867  1.0000
  C   C19       1.0  0.21780  0.67350  0.48050  1.0000
  C   C20       1.0  0.32650  0.54430  0.14717  1.0000
  C   C21       1.0  0.45570  0.78220  0.81383  1.0000
  C   C22       1.0  0.67350  0.21780  0.51950  1.0000
  C   C23       1.0  0.54430  0.32650  0.85283  1.0000
  C   C24       1.0  0.78220  0.45570  0.18617  1.0000
  H   H7        1.0  0.19430  0.62775  0.45636  1.0000
  H   H8        1.0  0.37225  0.56655  0.12303  1.0000
  H   H9        1.0  0.43345  0.80570  0.78969  1.0000
  H   H10       1.0  0.62775  0.19430  0.54364  1.0000
  H   H11       1.0  0.56655  0.37225  0.87697  1.0000
  H   H12       1.0  0.80570  0.43345  0.21031  1.0000
  C   C25       1.0  0.28290  0.69940  0.52800  1.0000
  C   C26       1.0  0.30060  0.58350  0.19467  1.0000
  C   C27       1.0  0.41650  0.71710  0.86133  1.0000
  C   C28       1.0  0.69940  0.28290  0.47200  1.0000
  C   C29       1.0  0.58350  0.30060  0.80533  1.0000
  C   C30       1.0  0.71710  0.41650  0.13867  1.0000
  C   C31       1.0  0.32290  0.77180  0.55900  1.0000
  C   C32       1.0  0.22820  0.55110  0.22567  1.0000
  C   C33       1.0  0.44890  0.67710  0.89233  1.0000
  C   C34       1.0  0.77180  0.32290  0.44100  1.0000
  C   C35       1.0  0.55110  0.22820  0.77433  1.0000
  C   C36       1.0  0.67710  0.44890  0.10767  1.0000
  H   H13       1.0  0.36776  0.79135  0.58725  1.0000
  H   H14       1.0  0.20865  0.57641  0.25392  1.0000
  H   H15       1.0  0.42359  0.63224  0.92058  1.0000
  H   H16       1.0  0.79135  0.36776  0.41275  1.0000
  H   H17       1.0  0.57641  0.20865  0.74608  1.0000
  H   H18       1.0  0.63224  0.42359  0.07942  1.0000
  C   C37       1.0  0.22570  0.36120  0.73480  1.0000
  C   C38       1.0  0.63880  0.86450  0.40147  1.0000
  C   C39       1.0  0.13550  0.77430  0.06813  1.0000
  C   C40       1.0  0.36120  0.22570  0.26520  1.0000
  C   C41       1.0  0.86450  0.63880  0.59853  1.0000
  C   C42       1.0  0.77430  0.13550  0.93187  1.0000
  C   C43       1.0  0.16410  0.32540  0.66700  1.0000
  C   C44       1.0  0.67460  0.83870  0.33367  1.0000
  C   C45       1.0  0.16130  0.83590  0.00033  1.0000
  C   C46       1.0  0.32540  0.16410  0.33300  1.0000
  C   C47       1.0  0.83870  0.67460  0.66633  1.0000
  C   C48       1.0  0.83590  0.16130  0.99967  1.0000
  H   H19       1.0  0.13828  0.27782  0.67394  1.0000
  H   H20       1.0  0.72218  0.86046  0.34061  1.0000
  H   H21       1.0  0.13954  0.86172  0.00727  1.0000
  H   H22       1.0  0.27782  0.13828  0.32606  1.0000
  H   H23       1.0  0.86046  0.72218  0.65939  1.0000
  H   H24       1.0  0.86172  0.13954  0.99273  1.0000
  C   C49       1.0  0.14130  0.35690  0.59200  1.0000
  C   C50       1.0  0.64310  0.78440  0.25867  1.0000
  C   C51       1.0  0.21560  0.85870  0.92533  1.0000
  C   C52       1.0  0.35690  0.14130  0.40800  1.0000
  C   C53       1.0  0.78440  0.64310  0.74133  1.0000
  C   C54       1.0  0.85870  0.21560  0.07467  1.0000
  C   C55       1.0  0.18730  0.42590  0.55630  1.0000
  C   C56       1.0  0.57410  0.76140  0.22297  1.0000
  C   C57       1.0  0.23860  0.81270  0.88963  1.0000
  C   C58       1.0  0.42590  0.18730  0.44370  1.0000
  C   C59       1.0  0.76140  0.57410  0.77703  1.0000
  C   C60       1.0  0.81270  0.23860  0.11037  1.0000
  H   H25       1.0  0.17501  0.44632  0.49597  1.0000
  H   H26       1.0  0.55368  0.72869  0.16264  1.0000
  H   H27       1.0  0.27131  0.82499  0.82930  1.0000
  H   H28       1.0  0.44632  0.17501  0.50403  1.0000
  H   H29       1.0  0.72869  0.55368  0.83736  1.0000
  H   H30       1.0  0.82499  0.27131  0.17070  1.0000
  C   C61       1.0  0.25200  0.46290  0.61350  1.0000
  C   C62       1.0  0.53710  0.78910  0.28017  1.0000
  C   C63       1.0  0.21090  0.74800  0.94683  1.0000
  C   C64       1.0  0.46290  0.25200  0.38650  1.0000
  C   C65       1.0  0.78910  0.53710  0.71983  1.0000
  C   C66       1.0  0.74800  0.21090  0.05317  1.0000
  C   C67       1.0  0.27280  0.43000  0.69430  1.0000
  C   C68       1.0  0.57000  0.84280  0.36097  1.0000
  C   C69       1.0  0.15720  0.72720  0.02763  1.0000
  C   C70       1.0  0.43000  0.27280  0.30570  1.0000
  C   C71       1.0  0.84280  0.57000  0.63903  1.0000
  C   C72       1.0  0.72720  0.15720  0.97237  1.0000
  H   H31       1.0  0.31776  0.45267  0.72278  1.0000
  H   H32       1.0  0.54733  0.86509  0.38945  1.0000
  H   H33       1.0  0.13491  0.68224  0.05611  1.0000
  H   H34       1.0  0.45267  0.31776  0.27722  1.0000
  H   H35       1.0  0.86509  0.54733  0.61055  1.0000
  H   H36       1.0  0.68224  0.13491  0.94389  1.0000
  C   C73       1.0  0.31370  0.65260  0.55550  1.0000
  C   C74       1.0  0.34740  0.66110  0.22217  1.0000
  C   C75       1.0  0.33890  0.68630  0.88883  1.0000
  C   C76       1.0  0.65260  0.31370  0.44450  1.0000
  C   C77       1.0  0.66110  0.34740  0.77783  1.0000
  C   C78       1.0  0.68630  0.33890  0.11117  1.0000
  C   C79       1.0  0.38150  0.67550  0.54400  1.0000
  C   C80       1.0  0.32450  0.70600  0.21067  1.0000
  C   C81       1.0  0.29400  0.61850  0.87733  1.0000
  C   C82       1.0  0.67550  0.38150  0.45600  1.0000
  C   C83       1.0  0.70600  0.32450  0.78933  1.0000
  C   C84       1.0  0.61850  0.29400  0.12267  1.0000
  H   H37       1.0  0.41106  0.72109  0.52287  1.0000
  H   H38       1.0  0.27891  0.68997  0.18954  1.0000
  H   H39       1.0  0.31003  0.58894  0.85620  1.0000
  H   H40       1.0  0.72109  0.41106  0.47713  1.0000
  H   H41       1.0  0.68997  0.27891  0.81046  1.0000
  H   H42       1.0  0.58894  0.31003  0.14380  1.0000
  C   C85       1.0  0.40670  0.63380  0.56300  1.0000
  C   C86       1.0  0.36620  0.77290  0.22967  1.0000
  C   C87       1.0  0.22710  0.59330  0.89633  1.0000
  C   C88       1.0  0.63380  0.40670  0.43700  1.0000
  C   C89       1.0  0.77290  0.36620  0.77033  1.0000
  C   C90       1.0  0.59330  0.22710  0.10367  1.0000
  C   C91       1.0  0.36760  0.56860  0.56800  1.0000
  C   C92       1.0  0.43140  0.79900  0.23467  1.0000
  C   C93       1.0  0.20100  0.63240  0.90133  1.0000
  C   C94       1.0  0.56860  0.36760  0.43200  1.0000
  C   C95       1.0  0.79900  0.43140  0.76533  1.0000
  C   C96       1.0  0.63240  0.20100  0.09867  1.0000
  H   H43       1.0  0.38586  0.53988  0.55716  1.0000
  H   H44       1.0  0.46012  0.84598  0.22383  1.0000
  H   H45       1.0  0.15402  0.61414  0.89049  1.0000
  H   H46       1.0  0.53988  0.38586  0.44284  1.0000
  H   H47       1.0  0.84598  0.46012  0.77617  1.0000
  H   H48       1.0  0.61414  0.15402  0.10951  1.0000
  C   C97       1.0  0.29890  0.54100  0.59100  1.0000
  C   C98       1.0  0.45900  0.75790  0.25767  1.0000
  C   C99       1.0  0.24210  0.70110  0.92433  1.0000
  C   C100      1.0  0.54100  0.29890  0.40900  1.0000
  C   C101      1.0  0.75790  0.45900  0.74233  1.0000
  C   C102      1.0  0.70110  0.24210  0.07567  1.0000
  C   C103      1.0  0.27270  0.58360  0.57150  1.0000
  C   C104      1.0  0.41640  0.68910  0.23817  1.0000
  C   C105      1.0  0.31090  0.72730  0.90483  1.0000
  C   C106      1.0  0.58360  0.27270  0.42850  1.0000
  C   C107      1.0  0.68910  0.41640  0.76183  1.0000
  C   C108      1.0  0.72730  0.31090  0.09517  1.0000
  H   H49       1.0  0.22529  0.56474  0.56931  1.0000
  H   H50       1.0  0.43526  0.66055  0.23598  1.0000
  H   H51       1.0  0.33945  0.77471  0.90264  1.0000
  H   H52       1.0  0.56474  0.22529  0.43069  1.0000
  H   H53       1.0  0.66055  0.43526  0.76402  1.0000
  H   H54       1.0  0.77471  0.33945  0.09736  1.0000
  C   C109      1.0  0.32260  0.88390  0.58730  1.0000
  C   C110      1.0  0.11610  0.43870  0.25397  1.0000
  C   C111      1.0  0.56130  0.67740  0.92063  1.0000
  C   C112      1.0  0.88390  0.32260  0.41270  1.0000
  C   C113      1.0  0.43870  0.11610  0.74603  1.0000
  C   C114      1.0  0.67740  0.56130  0.07937  1.0000
  C   C115      1.0  0.11350  0.67810  0.41690  1.0000
  C   C116      1.0  0.32190  0.43540  0.08357  1.0000
  C   C117      1.0  0.56460  0.88650  0.75023  1.0000
  C   C118      1.0  0.67810  0.11350  0.58310  1.0000
  C   C119      1.0  0.43540  0.32190  0.91643  1.0000
  C   C120      1.0  0.88650  0.56460  0.24977  1.0000
  C   C121      1.0  0.24470  0.32420  0.81570  1.0000
  C   C122      1.0  0.67580  0.92050  0.48237  1.0000
  C   C123      1.0  0.07950  0.75530  0.14903  1.0000
  C   C124      1.0  0.32420  0.24470  0.18430  1.0000
  C   C125      1.0  0.92050  0.67580  0.51763  1.0000
  C   C126      1.0  0.75530  0.07950  0.85097  1.0000
  C   C127      1.0  0.07570  0.32000  0.51400  1.0000
  C   C128      1.0  0.68000  0.75570  0.18067  1.0000
  C   C129      1.0  0.24430  0.92430  0.84733  1.0000
  C   C130      1.0  0.32000  0.07570  0.48600  1.0000
  C   C131      1.0  0.75570  0.68000  0.81933  1.0000
  C   C132      1.0  0.92430  0.24430  0.15267  1.0000
  N   N1        1.0  0.47920  0.65990  0.55500  1.0000
  N   N2        1.0  0.34010  0.81930  0.22167  1.0000
  N   N3        1.0  0.18070  0.52080  0.88833  1.0000
  N   N4        1.0  0.65990  0.47920  0.44500  1.0000
  N   N5        1.0  0.81930  0.34010  0.77833  1.0000
  N   N6        1.0  0.52080  0.18070  0.11167  1.0000
  O   O1        1.0  0.28840  0.91300  0.58440  1.0000
  O   O2        1.0  0.08700  0.37540  0.25107  1.0000
  O   O3        1.0  0.62460  0.71160  0.91773  1.0000
  O   O4        1.0  0.91300  0.28840  0.41560  1.0000
  O   O5        1.0  0.37540  0.08700  0.74893  1.0000
  O   O6        1.0  0.71160  0.62460  0.08227  1.0000
  O   O7        1.0  0.38160  0.91260  0.62730  1.0000
  O   O8        1.0  0.08740  0.46900  0.29397  1.0000
  O   O9        1.0  0.53100  0.61840  0.96063  1.0000
  O   O10       1.0  0.91260  0.38160  0.37270  1.0000
  O   O11       1.0  0.46900  0.08740  0.70603  1.0000
  O   O12       1.0  0.61840  0.53100  0.03937  1.0000
  O   O13       1.0  0.08860  0.71500  0.41520  1.0000
  O   O14       1.0  0.28500  0.37360  0.08187  1.0000
  O   O15       1.0  0.62640  0.91140  0.74853  1.0000
  O   O16       1.0  0.71500  0.08860  0.58480  1.0000
  O   O17       1.0  0.37360  0.28500  0.91813  1.0000
  O   O18       1.0  0.91140  0.62640  0.25147  1.0000
  O   O19       1.0  0.08610  0.61780  0.38290  1.0000
  O   O20       1.0  0.38220  0.46830  0.04957  1.0000
  O   O21       1.0  0.53170  0.91390  0.71623  1.0000
  O   O22       1.0  0.61780  0.08610  0.61710  1.0000
  O   O23       1.0  0.46830  0.38220  0.95043  1.0000
  O   O24       1.0  0.91390  0.53170  0.28377  1.0000
  O   O25       1.0  0.30350  0.35430  0.85210  1.0000
  O   O26       1.0  0.64570  0.94920  0.51877  1.0000
  O   O27       1.0  0.05080  0.69650  0.18543  1.0000
  O   O28       1.0  0.35430  0.30350  0.14790  1.0000
  O   O29       1.0  0.94920  0.64570  0.48123  1.0000
  O   O30       1.0  0.69650  0.05080  0.81457  1.0000
  O   O31       1.0  0.20200  0.25920  0.84360  1.0000
  O   O32       1.0  0.74080  0.94280  0.51027  1.0000
  O   O33       1.0  0.05720  0.79800  0.17693  1.0000
  O   O34       1.0  0.25920  0.20200  0.15640  1.0000
  O   O35       1.0  0.94280  0.74080  0.48973  1.0000
  O   O36       1.0  0.79800  0.05720  0.82307  1.0000
  O   O37       1.0  0.05850  0.26200  0.48410  1.0000
  O   O38       1.0  0.73800  0.79650  0.15077  1.0000
  O   O39       1.0  0.20350  0.94150  0.81743  1.0000
  O   O40       1.0  0.26200  0.05850  0.51590  1.0000
  O   O41       1.0  0.79650  0.73800  0.84923  1.0000
  O   O42       1.0  0.94150  0.20350  0.18257  1.0000
  O   O43       1.0  0.04950  0.35650  0.48280  1.0000
  O   O44       1.0  0.64350  0.69300  0.14947  1.0000
  O   O45       1.0  0.30700  0.95050  0.81613  1.0000
  O   O46       1.0  0.35650  0.04950  0.51720  1.0000
  O   O47       1.0  0.69300  0.64350  0.85053  1.0000
  O   O48       1.0  0.95050  0.30700  0.18387  1.0000
  O   O49       1.0  0.50420  0.62090  0.52300  1.0000
  O   O50       1.0  0.37910  0.88330  0.18967  1.0000
  O   O51       1.0  0.11670  0.49580  0.85633  1.0000
  O   O52       1.0  0.62090  0.50420  0.47700  1.0000
  O   O53       1.0  0.88330  0.37910  0.81033  1.0000
  O   O54       1.0  0.49580  0.11670  0.14367  1.0000
  O   O55       1.0  0.51850  0.72460  0.53100  1.0000
  O   O56       1.0  0.27540  0.79390  0.19767  1.0000
  O   O57       1.0  0.20610  0.48150  0.86433  1.0000
  O   O58       1.0  0.72460  0.51850  0.46900  1.0000
  O   O59       1.0  0.79390  0.27540  0.80233  1.0000
  O   O60       1.0  0.48150  0.20610  0.13567  1.0000
  Cu  Cu1       1.0  0.33000  0.00000  0.66667  1.0000
  Cu  Cu2       1.0  0.00000  0.33000  0.33334  1.0000
  Cu  Cu3       1.0  0.67000  0.67000  0.00000  1.0000
  Cu  Cu4       1.0  0.33047  0.33047  0.00000  1.0000
  Cu  Cu5       1.0  0.66953  0.00000  0.66667  1.0000
  Cu  Cu6       1.0  0.00000  0.66953  0.33333  1.0000
